data_str_m2_o1_o2_pcu_sym.131
_audit_creation_date              2020-01-03
_audit_creation_method            'Materials Studio'
_symmetry_space_group_name_H-M    'P1'
_symmetry_Int_Tables_number       1
_symmetry_cell_setting            triclinic
loop_
_symmetry_equiv_pos_as_xyz
  x,y,z
_cell_length_a                    32.3338
_cell_length_b                    28.5698
_cell_length_c                    30.2652
_cell_angle_alpha                 90.0592
_cell_angle_beta                  90.1748
_cell_angle_gamma                 90.0073
loop_
_atom_site_label
_atom_site_type_symbol
_atom_site_fract_x
_atom_site_fract_y
_atom_site_fract_z
_atom_site_U_iso_or_equiv
_atom_site_adp_type
_atom_site_occupancy
C1     C     0.08747   0.16666   0.24997   0.00000  Uiso   1.00
C2     C     0.24586   0.16667   0.25003   0.00000  Uiso   1.00
C3     C     0.16666   0.16665   0.16497   0.00000  Uiso   1.00
C4     C     0.16673   0.16668   0.33503   0.00000  Uiso   1.00
C5     C     0.14139   0.02477   0.22206   0.00000  Uiso   1.00
C6     C     0.19195   0.30857   0.27794   0.00000  Uiso   1.00
C7     C     0.19194   0.02484   0.27794   0.00000  Uiso   1.00
C8     C     0.14139   0.30850   0.22206   0.00000  Uiso   1.00
C9     C     0.02165   0.14427   0.28448   0.00000  Uiso   1.00
C10    C     0.31167   0.18907   0.21552   0.00000  Uiso   1.00
C11    C     0.31188   0.14428   0.28450   0.00000  Uiso   1.00
C12    C     0.02144   0.18905   0.21550   0.00000  Uiso   1.00
C13    C     0.17959   0.20658   0.04772   0.00000  Uiso   1.00
C14    C     0.17966   0.12673   0.45237   0.00000  Uiso   1.00
C15    C     0.15421   0.20662   0.45241   0.00000  Uiso   1.00
C16    C     0.15415   0.12667   0.04750   0.00000  Uiso   1.00
C17    C     0.17924   0.20668   0.09364   0.00000  Uiso   1.00
C18    C     0.17936   0.12665   0.40644   0.00000  Uiso   1.00
C19    C     0.15442   0.20674   0.40649   0.00000  Uiso   1.00
C20    C     0.15432   0.12658   0.09343   0.00000  Uiso   1.00
C21    C     0.16673   0.16663   0.11673   0.00000  Uiso   1.00
C22    C     0.16684   0.16669   0.38327   0.00000  Uiso   1.00
C23    C     0.16691   0.16663   0.02428   0.00000  Uiso   1.00
C24    C     0.16694   0.16666   0.47572   0.00000  Uiso   1.00
C25    C     0.29047   0.16668   0.25002   0.00000  Uiso   1.00
C26    C     0.04286   0.16666   0.24998   0.00000  Uiso   1.00
Cu27   Cu    0.16667   0.21355   0.25000   0.00000  Uiso   1.00
Cu28   Cu    0.16667   0.11978   0.25000   0.00000  Uiso   1.00
H29    H     0.12114   0.04342   0.19967   0.00000  Uiso   1.00
H30    H     0.21220   0.28991   0.30032   0.00000  Uiso   1.00
H31    H     0.21218   0.04354   0.30034   0.00000  Uiso   1.00
H32    H     0.12114   0.28979   0.19967   0.00000  Uiso   1.00
H33    H     0.19025   0.23754   0.03057   0.00000  Uiso   1.00
H34    H     0.19031   0.09576   0.46958   0.00000  Uiso   1.00
H35    H     0.14359   0.23757   0.46966   0.00000  Uiso   1.00
H36    H     0.14355   0.09571   0.03018   0.00000  Uiso   1.00
H37    H     0.18930   0.23784   0.11104   0.00000  Uiso   1.00
H38    H     0.18945   0.09551   0.38909   0.00000  Uiso   1.00
H39    H     0.14433   0.23790   0.38919   0.00000  Uiso   1.00
H40    H     0.14420   0.09542   0.11068   0.00000  Uiso   1.00
N41    N     0.16667   0.28402   0.25000   0.00000  Uiso   1.00
N42    N     0.16667   0.04931   0.25000   0.00000  Uiso   1.00
O43    O     0.10655   0.20625   0.24999   0.00000  Uiso   1.00
O44    O     0.22679   0.12709   0.25000   0.00000  Uiso   1.00
O45    O     0.22679   0.20625   0.25000   0.00000  Uiso   1.00
O46    O     0.10655   0.12709   0.24999   0.00000  Uiso   1.00
O47    O     0.16666   0.20626   0.18573   0.00000  Uiso   1.00
O48    O     0.16667   0.12707   0.31427   0.00000  Uiso   1.00
O49    O     0.16667   0.20626   0.31427   0.00000  Uiso   1.00
O50    O     0.16666   0.12707   0.18573   0.00000  Uiso   1.00
Cl51   Cl    0.04896   0.11790   0.32875   0.00000  Uiso   1.00
Cl52   Cl    0.28437   0.21547   0.17127   0.00000  Uiso   1.00
Cl53   Cl    0.28484   0.11792   0.32879   0.00000  Uiso   1.00
Cl54   Cl    0.04848   0.21538   0.17119   0.00000  Uiso   1.00
C55    C     0.42080   0.16666   0.24997   0.00000  Uiso   1.00
C56    C     0.57919   0.16667   0.25003   0.00000  Uiso   1.00
C57    C     0.49999   0.16665   0.16497   0.00000  Uiso   1.00
C58    C     0.50006   0.16668   0.33503   0.00000  Uiso   1.00
C59    C     0.47472   0.02477   0.22206   0.00000  Uiso   1.00
C60    C     0.52528   0.30857   0.27794   0.00000  Uiso   1.00
C61    C     0.52527   0.02484   0.27794   0.00000  Uiso   1.00
C62    C     0.47473   0.30850   0.22206   0.00000  Uiso   1.00
C63    C     0.35499   0.14427   0.28448   0.00000  Uiso   1.00
C64    C     0.64501   0.18907   0.21552   0.00000  Uiso   1.00
C65    C     0.64522   0.14428   0.28450   0.00000  Uiso   1.00
C66    C     0.35478   0.18905   0.21550   0.00000  Uiso   1.00
C67    C     0.51293   0.20658   0.04772   0.00000  Uiso   1.00
C68    C     0.51299   0.12673   0.45237   0.00000  Uiso   1.00
C69    C     0.48754   0.20662   0.45241   0.00000  Uiso   1.00
C70    C     0.48748   0.12667   0.04750   0.00000  Uiso   1.00
C71    C     0.51257   0.20668   0.09364   0.00000  Uiso   1.00
C72    C     0.51269   0.12665   0.40644   0.00000  Uiso   1.00
C73    C     0.48776   0.20674   0.40649   0.00000  Uiso   1.00
C74    C     0.48765   0.12658   0.09343   0.00000  Uiso   1.00
C75    C     0.50006   0.16663   0.11673   0.00000  Uiso   1.00
C76    C     0.50018   0.16669   0.38327   0.00000  Uiso   1.00
C77    C     0.50024   0.16663   0.02428   0.00000  Uiso   1.00
C78    C     0.50027   0.16666   0.47572   0.00000  Uiso   1.00
C79    C     0.62380   0.16668   0.25002   0.00000  Uiso   1.00
C80    C     0.37619   0.16666   0.24998   0.00000  Uiso   1.00
Cu81   Cu    0.50000   0.21355   0.25000   0.00000  Uiso   1.00
Cu82   Cu    0.50000   0.11978   0.25000   0.00000  Uiso   1.00
H83    H     0.45447   0.04342   0.19967   0.00000  Uiso   1.00
H84    H     0.54554   0.28991   0.30032   0.00000  Uiso   1.00
H85    H     0.54551   0.04354   0.30034   0.00000  Uiso   1.00
H86    H     0.45448   0.28979   0.19967   0.00000  Uiso   1.00
H87    H     0.52359   0.23754   0.03057   0.00000  Uiso   1.00
H88    H     0.52364   0.09576   0.46958   0.00000  Uiso   1.00
H89    H     0.47692   0.23757   0.46966   0.00000  Uiso   1.00
H90    H     0.47688   0.09571   0.03018   0.00000  Uiso   1.00
H91    H     0.52263   0.23784   0.11104   0.00000  Uiso   1.00
H92    H     0.52278   0.09551   0.38909   0.00000  Uiso   1.00
H93    H     0.47766   0.23790   0.38919   0.00000  Uiso   1.00
H94    H     0.47753   0.09542   0.11068   0.00000  Uiso   1.00
N95    N     0.50000   0.28402   0.25000   0.00000  Uiso   1.00
N96    N     0.50000   0.04931   0.25000   0.00000  Uiso   1.00
O97    O     0.43988   0.20625   0.24999   0.00000  Uiso   1.00
O98    O     0.56012   0.12709   0.25000   0.00000  Uiso   1.00
O99    O     0.56012   0.20625   0.25000   0.00000  Uiso   1.00
O100   O     0.43988   0.12709   0.24999   0.00000  Uiso   1.00
O101   O     0.50000   0.20626   0.18573   0.00000  Uiso   1.00
O102   O     0.50000   0.12707   0.31427   0.00000  Uiso   1.00
O103   O     0.50000   0.20626   0.31427   0.00000  Uiso   1.00
O104   O     0.50000   0.12707   0.18573   0.00000  Uiso   1.00
Cl105  Cl    0.38229   0.11790   0.32875   0.00000  Uiso   1.00
Cl106  Cl    0.61770   0.21547   0.17127   0.00000  Uiso   1.00
Cl107  Cl    0.61818   0.11792   0.32879   0.00000  Uiso   1.00
Cl108  Cl    0.38181   0.21538   0.17119   0.00000  Uiso   1.00
C109   C     0.75414   0.16666   0.24997   0.00000  Uiso   1.00
C110   C     0.91253   0.16667   0.25003   0.00000  Uiso   1.00
C111   C     0.83333   0.16665   0.16497   0.00000  Uiso   1.00
C112   C     0.83340   0.16668   0.33503   0.00000  Uiso   1.00
C113   C     0.80806   0.02477   0.22206   0.00000  Uiso   1.00
C114   C     0.85861   0.30857   0.27794   0.00000  Uiso   1.00
C115   C     0.85861   0.02484   0.27794   0.00000  Uiso   1.00
C116   C     0.80806   0.30850   0.22206   0.00000  Uiso   1.00
C117   C     0.68832   0.14427   0.28448   0.00000  Uiso   1.00
C118   C     0.97834   0.18907   0.21552   0.00000  Uiso   1.00
C119   C     0.97855   0.14428   0.28450   0.00000  Uiso   1.00
C120   C     0.68811   0.18905   0.21550   0.00000  Uiso   1.00
C121   C     0.84626   0.20658   0.04772   0.00000  Uiso   1.00
C122   C     0.84633   0.12673   0.45237   0.00000  Uiso   1.00
C123   C     0.82087   0.20662   0.45241   0.00000  Uiso   1.00
C124   C     0.82082   0.12667   0.04750   0.00000  Uiso   1.00
C125   C     0.84591   0.20668   0.09364   0.00000  Uiso   1.00
C126   C     0.84603   0.12665   0.40644   0.00000  Uiso   1.00
C127   C     0.82109   0.20674   0.40649   0.00000  Uiso   1.00
C128   C     0.82098   0.12658   0.09343   0.00000  Uiso   1.00
C129   C     0.83340   0.16663   0.11673   0.00000  Uiso   1.00
C130   C     0.83351   0.16669   0.38327   0.00000  Uiso   1.00
C131   C     0.83358   0.16663   0.02428   0.00000  Uiso   1.00
C132   C     0.83360   0.16666   0.47572   0.00000  Uiso   1.00
C133   C     0.95713   0.16668   0.25002   0.00000  Uiso   1.00
C134   C     0.70953   0.16666   0.24998   0.00000  Uiso   1.00
Cu135  Cu    0.83333   0.21355   0.25000   0.00000  Uiso   1.00
Cu136  Cu    0.83333   0.11978   0.25000   0.00000  Uiso   1.00
H137   H     0.78780   0.04342   0.19967   0.00000  Uiso   1.00
H138   H     0.87887   0.28991   0.30032   0.00000  Uiso   1.00
H139   H     0.87885   0.04354   0.30034   0.00000  Uiso   1.00
H140   H     0.78781   0.28979   0.19967   0.00000  Uiso   1.00
H141   H     0.85692   0.23754   0.03057   0.00000  Uiso   1.00
H142   H     0.85697   0.09576   0.46958   0.00000  Uiso   1.00
H143   H     0.81025   0.23757   0.46966   0.00000  Uiso   1.00
H144   H     0.81022   0.09571   0.03018   0.00000  Uiso   1.00
H145   H     0.85597   0.23784   0.11104   0.00000  Uiso   1.00
H146   H     0.85611   0.09551   0.38909   0.00000  Uiso   1.00
H147   H     0.81100   0.23790   0.38919   0.00000  Uiso   1.00
H148   H     0.81087   0.09542   0.11068   0.00000  Uiso   1.00
N149   N     0.83333   0.28402   0.25000   0.00000  Uiso   1.00
N150   N     0.83333   0.04931   0.25000   0.00000  Uiso   1.00
O151   O     0.77321   0.20625   0.24999   0.00000  Uiso   1.00
O152   O     0.89345   0.12709   0.25000   0.00000  Uiso   1.00
O153   O     0.89345   0.20625   0.25000   0.00000  Uiso   1.00
O154   O     0.77321   0.12709   0.24999   0.00000  Uiso   1.00
O155   O     0.83333   0.20626   0.18573   0.00000  Uiso   1.00
O156   O     0.83334   0.12707   0.31427   0.00000  Uiso   1.00
O157   O     0.83334   0.20626   0.31427   0.00000  Uiso   1.00
O158   O     0.83333   0.12707   0.18573   0.00000  Uiso   1.00
Cl159  Cl    0.71562   0.11790   0.32875   0.00000  Uiso   1.00
Cl160  Cl    0.95104   0.21547   0.17127   0.00000  Uiso   1.00
Cl161  Cl    0.95151   0.11792   0.32879   0.00000  Uiso   1.00
Cl162  Cl    0.71515   0.21538   0.17119   0.00000  Uiso   1.00
C163   C     0.08747   0.50000   0.24997   0.00000  Uiso   1.00
C164   C     0.24586   0.50000   0.25003   0.00000  Uiso   1.00
C165   C     0.16666   0.49998   0.16497   0.00000  Uiso   1.00
C166   C     0.16673   0.50001   0.33503   0.00000  Uiso   1.00
C167   C     0.14139   0.35810   0.22206   0.00000  Uiso   1.00
C168   C     0.19195   0.64190   0.27794   0.00000  Uiso   1.00
C169   C     0.19194   0.35817   0.27794   0.00000  Uiso   1.00
C170   C     0.14139   0.64183   0.22206   0.00000  Uiso   1.00
C171   C     0.02165   0.47760   0.28448   0.00000  Uiso   1.00
C172   C     0.31167   0.52241   0.21552   0.00000  Uiso   1.00
C173   C     0.31188   0.47761   0.28450   0.00000  Uiso   1.00
C174   C     0.02144   0.52239   0.21550   0.00000  Uiso   1.00
C175   C     0.17959   0.53991   0.04772   0.00000  Uiso   1.00
C176   C     0.17966   0.46006   0.45237   0.00000  Uiso   1.00
C177   C     0.15421   0.53995   0.45241   0.00000  Uiso   1.00
C178   C     0.15415   0.46001   0.04750   0.00000  Uiso   1.00
C179   C     0.17924   0.54002   0.09364   0.00000  Uiso   1.00
C180   C     0.17936   0.45998   0.40644   0.00000  Uiso   1.00
C181   C     0.15442   0.54007   0.40649   0.00000  Uiso   1.00
C182   C     0.15432   0.45991   0.09343   0.00000  Uiso   1.00
C183   C     0.16673   0.49997   0.11673   0.00000  Uiso   1.00
C184   C     0.16684   0.50003   0.38327   0.00000  Uiso   1.00
C185   C     0.16691   0.49996   0.02428   0.00000  Uiso   1.00
C186   C     0.16694   0.49999   0.47572   0.00000  Uiso   1.00
C187   C     0.29047   0.50001   0.25002   0.00000  Uiso   1.00
C188   C     0.04286   0.49999   0.24998   0.00000  Uiso   1.00
Cu189  Cu    0.16667   0.54689   0.25000   0.00000  Uiso   1.00
Cu190  Cu    0.16667   0.45311   0.25000   0.00000  Uiso   1.00
H191   H     0.12114   0.37676   0.19967   0.00000  Uiso   1.00
H192   H     0.21220   0.62325   0.30032   0.00000  Uiso   1.00
H193   H     0.21218   0.37688   0.30034   0.00000  Uiso   1.00
H194   H     0.12114   0.62313   0.19967   0.00000  Uiso   1.00
H195   H     0.19025   0.57088   0.03057   0.00000  Uiso   1.00
H196   H     0.19031   0.42909   0.46958   0.00000  Uiso   1.00
H197   H     0.14359   0.57091   0.46966   0.00000  Uiso   1.00
H198   H     0.14355   0.42904   0.03018   0.00000  Uiso   1.00
H199   H     0.18930   0.57117   0.11104   0.00000  Uiso   1.00
H200   H     0.18945   0.42884   0.38909   0.00000  Uiso   1.00
H201   H     0.14433   0.57123   0.38919   0.00000  Uiso   1.00
H202   H     0.14420   0.42875   0.11068   0.00000  Uiso   1.00
N203   N     0.16667   0.61736   0.25000   0.00000  Uiso   1.00
N204   N     0.16667   0.38264   0.25000   0.00000  Uiso   1.00
O205   O     0.10655   0.53958   0.24999   0.00000  Uiso   1.00
O206   O     0.22679   0.46042   0.25000   0.00000  Uiso   1.00
O207   O     0.22679   0.53958   0.25000   0.00000  Uiso   1.00
O208   O     0.10655   0.46042   0.24999   0.00000  Uiso   1.00
O209   O     0.16666   0.53959   0.18573   0.00000  Uiso   1.00
O210   O     0.16667   0.46041   0.31427   0.00000  Uiso   1.00
O211   O     0.16667   0.53959   0.31427   0.00000  Uiso   1.00
O212   O     0.16666   0.46041   0.18573   0.00000  Uiso   1.00
Cl213  Cl    0.04896   0.45123   0.32875   0.00000  Uiso   1.00
Cl214  Cl    0.28437   0.54881   0.17127   0.00000  Uiso   1.00
Cl215  Cl    0.28484   0.45126   0.32879   0.00000  Uiso   1.00
Cl216  Cl    0.04848   0.54871   0.17119   0.00000  Uiso   1.00
C217   C     0.42080   0.50000   0.24997   0.00000  Uiso   1.00
C218   C     0.57919   0.50000   0.25003   0.00000  Uiso   1.00
C219   C     0.49999   0.49998   0.16497   0.00000  Uiso   1.00
C220   C     0.50006   0.50001   0.33503   0.00000  Uiso   1.00
C221   C     0.47472   0.35810   0.22206   0.00000  Uiso   1.00
C222   C     0.52528   0.64190   0.27794   0.00000  Uiso   1.00
C223   C     0.52527   0.35817   0.27794   0.00000  Uiso   1.00
C224   C     0.47473   0.64183   0.22206   0.00000  Uiso   1.00
C225   C     0.35499   0.47760   0.28448   0.00000  Uiso   1.00
C226   C     0.64501   0.52241   0.21552   0.00000  Uiso   1.00
C227   C     0.64522   0.47761   0.28450   0.00000  Uiso   1.00
C228   C     0.35478   0.52239   0.21550   0.00000  Uiso   1.00
C229   C     0.51293   0.53991   0.04772   0.00000  Uiso   1.00
C230   C     0.51299   0.46006   0.45237   0.00000  Uiso   1.00
C231   C     0.48754   0.53995   0.45241   0.00000  Uiso   1.00
C232   C     0.48748   0.46001   0.04750   0.00000  Uiso   1.00
C233   C     0.51257   0.54002   0.09364   0.00000  Uiso   1.00
C234   C     0.51269   0.45998   0.40644   0.00000  Uiso   1.00
C235   C     0.48776   0.54007   0.40649   0.00000  Uiso   1.00
C236   C     0.48765   0.45991   0.09343   0.00000  Uiso   1.00
C237   C     0.50006   0.49997   0.11673   0.00000  Uiso   1.00
C238   C     0.50018   0.50003   0.38327   0.00000  Uiso   1.00
C239   C     0.50024   0.49996   0.02428   0.00000  Uiso   1.00
C240   C     0.50027   0.49999   0.47572   0.00000  Uiso   1.00
C241   C     0.62380   0.50001   0.25002   0.00000  Uiso   1.00
C242   C     0.37619   0.49999   0.24998   0.00000  Uiso   1.00
Cu243  Cu    0.50000   0.54689   0.25000   0.00000  Uiso   1.00
Cu244  Cu    0.50000   0.45311   0.25000   0.00000  Uiso   1.00
H245   H     0.45447   0.37676   0.19967   0.00000  Uiso   1.00
H246   H     0.54554   0.62325   0.30032   0.00000  Uiso   1.00
H247   H     0.54551   0.37688   0.30034   0.00000  Uiso   1.00
H248   H     0.45448   0.62313   0.19967   0.00000  Uiso   1.00
H249   H     0.52359   0.57088   0.03057   0.00000  Uiso   1.00
H250   H     0.52364   0.42909   0.46958   0.00000  Uiso   1.00
H251   H     0.47692   0.57091   0.46966   0.00000  Uiso   1.00
H252   H     0.47688   0.42904   0.03018   0.00000  Uiso   1.00
H253   H     0.52263   0.57117   0.11104   0.00000  Uiso   1.00
H254   H     0.52278   0.42884   0.38909   0.00000  Uiso   1.00
H255   H     0.47766   0.57123   0.38919   0.00000  Uiso   1.00
H256   H     0.47753   0.42875   0.11068   0.00000  Uiso   1.00
N257   N     0.50000   0.61736   0.25000   0.00000  Uiso   1.00
N258   N     0.50000   0.38264   0.25000   0.00000  Uiso   1.00
O259   O     0.43988   0.53958   0.24999   0.00000  Uiso   1.00
O260   O     0.56012   0.46042   0.25000   0.00000  Uiso   1.00
O261   O     0.56012   0.53958   0.25000   0.00000  Uiso   1.00
O262   O     0.43988   0.46042   0.24999   0.00000  Uiso   1.00
O263   O     0.50000   0.53959   0.18573   0.00000  Uiso   1.00
O264   O     0.50000   0.46041   0.31427   0.00000  Uiso   1.00
O265   O     0.50000   0.53959   0.31427   0.00000  Uiso   1.00
O266   O     0.50000   0.46041   0.18573   0.00000  Uiso   1.00
Cl267  Cl    0.38229   0.45123   0.32875   0.00000  Uiso   1.00
Cl268  Cl    0.61770   0.54881   0.17127   0.00000  Uiso   1.00
Cl269  Cl    0.61818   0.45126   0.32879   0.00000  Uiso   1.00
Cl270  Cl    0.38181   0.54871   0.17119   0.00000  Uiso   1.00
C271   C     0.75414   0.50000   0.24997   0.00000  Uiso   1.00
C272   C     0.91253   0.50000   0.25003   0.00000  Uiso   1.00
C273   C     0.83333   0.49998   0.16497   0.00000  Uiso   1.00
C274   C     0.83340   0.50001   0.33503   0.00000  Uiso   1.00
C275   C     0.80806   0.35810   0.22206   0.00000  Uiso   1.00
C276   C     0.85861   0.64190   0.27794   0.00000  Uiso   1.00
C277   C     0.85861   0.35817   0.27794   0.00000  Uiso   1.00
C278   C     0.80806   0.64183   0.22206   0.00000  Uiso   1.00
C279   C     0.68832   0.47760   0.28448   0.00000  Uiso   1.00
C280   C     0.97834   0.52241   0.21552   0.00000  Uiso   1.00
C281   C     0.97855   0.47761   0.28450   0.00000  Uiso   1.00
C282   C     0.68811   0.52239   0.21550   0.00000  Uiso   1.00
C283   C     0.84626   0.53991   0.04772   0.00000  Uiso   1.00
C284   C     0.84633   0.46006   0.45237   0.00000  Uiso   1.00
C285   C     0.82087   0.53995   0.45241   0.00000  Uiso   1.00
C286   C     0.82082   0.46001   0.04750   0.00000  Uiso   1.00
C287   C     0.84591   0.54002   0.09364   0.00000  Uiso   1.00
C288   C     0.84603   0.45998   0.40644   0.00000  Uiso   1.00
C289   C     0.82109   0.54007   0.40649   0.00000  Uiso   1.00
C290   C     0.82098   0.45991   0.09343   0.00000  Uiso   1.00
C291   C     0.83340   0.49997   0.11673   0.00000  Uiso   1.00
C292   C     0.83351   0.50003   0.38327   0.00000  Uiso   1.00
C293   C     0.83358   0.49996   0.02428   0.00000  Uiso   1.00
C294   C     0.83360   0.49999   0.47572   0.00000  Uiso   1.00
C295   C     0.95713   0.50001   0.25002   0.00000  Uiso   1.00
C296   C     0.70953   0.49999   0.24998   0.00000  Uiso   1.00
Cu297  Cu    0.83333   0.54689   0.25000   0.00000  Uiso   1.00
Cu298  Cu    0.83333   0.45311   0.25000   0.00000  Uiso   1.00
H299   H     0.78780   0.37676   0.19967   0.00000  Uiso   1.00
H300   H     0.87887   0.62325   0.30032   0.00000  Uiso   1.00
H301   H     0.87885   0.37688   0.30034   0.00000  Uiso   1.00
H302   H     0.78781   0.62313   0.19967   0.00000  Uiso   1.00
H303   H     0.85692   0.57088   0.03057   0.00000  Uiso   1.00
H304   H     0.85697   0.42909   0.46958   0.00000  Uiso   1.00
H305   H     0.81025   0.57091   0.46966   0.00000  Uiso   1.00
H306   H     0.81022   0.42904   0.03018   0.00000  Uiso   1.00
H307   H     0.85597   0.57117   0.11104   0.00000  Uiso   1.00
H308   H     0.85611   0.42884   0.38909   0.00000  Uiso   1.00
H309   H     0.81100   0.57123   0.38919   0.00000  Uiso   1.00
H310   H     0.81087   0.42875   0.11068   0.00000  Uiso   1.00
N311   N     0.83333   0.61736   0.25000   0.00000  Uiso   1.00
N312   N     0.83333   0.38264   0.25000   0.00000  Uiso   1.00
O313   O     0.77321   0.53958   0.24999   0.00000  Uiso   1.00
O314   O     0.89345   0.46042   0.25000   0.00000  Uiso   1.00
O315   O     0.89345   0.53958   0.25000   0.00000  Uiso   1.00
O316   O     0.77321   0.46042   0.24999   0.00000  Uiso   1.00
O317   O     0.83333   0.53959   0.18573   0.00000  Uiso   1.00
O318   O     0.83334   0.46041   0.31427   0.00000  Uiso   1.00
O319   O     0.83334   0.53959   0.31427   0.00000  Uiso   1.00
O320   O     0.83333   0.46041   0.18573   0.00000  Uiso   1.00
Cl321  Cl    0.71562   0.45123   0.32875   0.00000  Uiso   1.00
Cl322  Cl    0.95104   0.54881   0.17127   0.00000  Uiso   1.00
Cl323  Cl    0.95151   0.45126   0.32879   0.00000  Uiso   1.00
Cl324  Cl    0.71515   0.54871   0.17119   0.00000  Uiso   1.00
C325   C     0.08747   0.83333   0.24997   0.00000  Uiso   1.00
C326   C     0.24586   0.83334   0.25003   0.00000  Uiso   1.00
C327   C     0.16666   0.83332   0.16497   0.00000  Uiso   1.00
C328   C     0.16673   0.83335   0.33503   0.00000  Uiso   1.00
C329   C     0.14139   0.69143   0.22206   0.00000  Uiso   1.00
C330   C     0.19195   0.97524   0.27794   0.00000  Uiso   1.00
C331   C     0.19194   0.69150   0.27794   0.00000  Uiso   1.00
C332   C     0.14139   0.97517   0.22206   0.00000  Uiso   1.00
C333   C     0.02165   0.81093   0.28448   0.00000  Uiso   1.00
C334   C     0.31167   0.85574   0.21552   0.00000  Uiso   1.00
C335   C     0.31188   0.81094   0.28450   0.00000  Uiso   1.00
C336   C     0.02144   0.85572   0.21550   0.00000  Uiso   1.00
C337   C     0.17959   0.87324   0.04772   0.00000  Uiso   1.00
C338   C     0.17966   0.79339   0.45237   0.00000  Uiso   1.00
C339   C     0.15421   0.87329   0.45241   0.00000  Uiso   1.00
C340   C     0.15415   0.79334   0.04750   0.00000  Uiso   1.00
C341   C     0.17924   0.87335   0.09364   0.00000  Uiso   1.00
C342   C     0.17936   0.79331   0.40644   0.00000  Uiso   1.00
C343   C     0.15442   0.87341   0.40649   0.00000  Uiso   1.00
C344   C     0.15432   0.79324   0.09343   0.00000  Uiso   1.00
C345   C     0.16673   0.83330   0.11673   0.00000  Uiso   1.00
C346   C     0.16684   0.83336   0.38327   0.00000  Uiso   1.00
C347   C     0.16691   0.83329   0.02428   0.00000  Uiso   1.00
C348   C     0.16694   0.83333   0.47572   0.00000  Uiso   1.00
C349   C     0.29047   0.83334   0.25002   0.00000  Uiso   1.00
C350   C     0.04286   0.83332   0.24998   0.00000  Uiso   1.00
Cu351  Cu    0.16667   0.88022   0.25000   0.00000  Uiso   1.00
Cu352  Cu    0.16667   0.78645   0.25000   0.00000  Uiso   1.00
H353   H     0.12114   0.71009   0.19967   0.00000  Uiso   1.00
H354   H     0.21220   0.95658   0.30032   0.00000  Uiso   1.00
H355   H     0.21218   0.71021   0.30034   0.00000  Uiso   1.00
H356   H     0.12114   0.95646   0.19967   0.00000  Uiso   1.00
H357   H     0.19025   0.90421   0.03057   0.00000  Uiso   1.00
H358   H     0.19031   0.76243   0.46958   0.00000  Uiso   1.00
H359   H     0.14359   0.90424   0.46966   0.00000  Uiso   1.00
H360   H     0.14355   0.76238   0.03018   0.00000  Uiso   1.00
H361   H     0.18930   0.90451   0.11104   0.00000  Uiso   1.00
H362   H     0.18945   0.76217   0.38909   0.00000  Uiso   1.00
H363   H     0.14433   0.90457   0.38919   0.00000  Uiso   1.00
H364   H     0.14420   0.76209   0.11068   0.00000  Uiso   1.00
N365   N     0.16667   0.95069   0.25000   0.00000  Uiso   1.00
N366   N     0.16667   0.71598   0.25000   0.00000  Uiso   1.00
O367   O     0.10655   0.87291   0.24999   0.00000  Uiso   1.00
O368   O     0.22679   0.79375   0.25000   0.00000  Uiso   1.00
O369   O     0.22679   0.87291   0.25000   0.00000  Uiso   1.00
O370   O     0.10655   0.79375   0.24999   0.00000  Uiso   1.00
O371   O     0.16666   0.87293   0.18573   0.00000  Uiso   1.00
O372   O     0.16667   0.79374   0.31427   0.00000  Uiso   1.00
O373   O     0.16667   0.87293   0.31427   0.00000  Uiso   1.00
O374   O     0.16666   0.79374   0.18573   0.00000  Uiso   1.00
Cl375  Cl    0.04896   0.78457   0.32875   0.00000  Uiso   1.00
Cl376  Cl    0.28437   0.88214   0.17127   0.00000  Uiso   1.00
Cl377  Cl    0.28484   0.78459   0.32879   0.00000  Uiso   1.00
Cl378  Cl    0.04848   0.88205   0.17119   0.00000  Uiso   1.00
C379   C     0.42080   0.83333   0.24997   0.00000  Uiso   1.00
C380   C     0.57919   0.83334   0.25003   0.00000  Uiso   1.00
C381   C     0.49999   0.83332   0.16497   0.00000  Uiso   1.00
C382   C     0.50006   0.83335   0.33503   0.00000  Uiso   1.00
C383   C     0.47472   0.69143   0.22206   0.00000  Uiso   1.00
C384   C     0.52528   0.97524   0.27794   0.00000  Uiso   1.00
C385   C     0.52527   0.69150   0.27794   0.00000  Uiso   1.00
C386   C     0.47473   0.97517   0.22206   0.00000  Uiso   1.00
C387   C     0.35499   0.81093   0.28448   0.00000  Uiso   1.00
C388   C     0.64501   0.85574   0.21552   0.00000  Uiso   1.00
C389   C     0.64522   0.81094   0.28450   0.00000  Uiso   1.00
C390   C     0.35478   0.85572   0.21550   0.00000  Uiso   1.00
C391   C     0.51293   0.87324   0.04772   0.00000  Uiso   1.00
C392   C     0.51299   0.79339   0.45237   0.00000  Uiso   1.00
C393   C     0.48754   0.87329   0.45241   0.00000  Uiso   1.00
C394   C     0.48748   0.79334   0.04750   0.00000  Uiso   1.00
C395   C     0.51257   0.87335   0.09364   0.00000  Uiso   1.00
C396   C     0.51269   0.79331   0.40644   0.00000  Uiso   1.00
C397   C     0.48776   0.87341   0.40649   0.00000  Uiso   1.00
C398   C     0.48765   0.79324   0.09343   0.00000  Uiso   1.00
C399   C     0.50006   0.83330   0.11673   0.00000  Uiso   1.00
C400   C     0.50018   0.83336   0.38327   0.00000  Uiso   1.00
C401   C     0.50024   0.83329   0.02428   0.00000  Uiso   1.00
C402   C     0.50027   0.83333   0.47572   0.00000  Uiso   1.00
C403   C     0.62380   0.83334   0.25002   0.00000  Uiso   1.00
C404   C     0.37619   0.83332   0.24998   0.00000  Uiso   1.00
Cu405  Cu    0.50000   0.88022   0.25000   0.00000  Uiso   1.00
Cu406  Cu    0.50000   0.78645   0.25000   0.00000  Uiso   1.00
H407   H     0.45447   0.71009   0.19967   0.00000  Uiso   1.00
H408   H     0.54554   0.95658   0.30032   0.00000  Uiso   1.00
H409   H     0.54551   0.71021   0.30034   0.00000  Uiso   1.00
H410   H     0.45448   0.95646   0.19967   0.00000  Uiso   1.00
H411   H     0.52359   0.90421   0.03057   0.00000  Uiso   1.00
H412   H     0.52364   0.76243   0.46958   0.00000  Uiso   1.00
H413   H     0.47692   0.90424   0.46966   0.00000  Uiso   1.00
H414   H     0.47688   0.76238   0.03018   0.00000  Uiso   1.00
H415   H     0.52263   0.90451   0.11104   0.00000  Uiso   1.00
H416   H     0.52278   0.76217   0.38909   0.00000  Uiso   1.00
H417   H     0.47766   0.90457   0.38919   0.00000  Uiso   1.00
H418   H     0.47753   0.76209   0.11068   0.00000  Uiso   1.00
N419   N     0.50000   0.95069   0.25000   0.00000  Uiso   1.00
N420   N     0.50000   0.71598   0.25000   0.00000  Uiso   1.00
O421   O     0.43988   0.87291   0.24999   0.00000  Uiso   1.00
O422   O     0.56012   0.79375   0.25000   0.00000  Uiso   1.00
O423   O     0.56012   0.87291   0.25000   0.00000  Uiso   1.00
O424   O     0.43988   0.79375   0.24999   0.00000  Uiso   1.00
O425   O     0.50000   0.87293   0.18573   0.00000  Uiso   1.00
O426   O     0.50000   0.79374   0.31427   0.00000  Uiso   1.00
O427   O     0.50000   0.87293   0.31427   0.00000  Uiso   1.00
O428   O     0.50000   0.79374   0.18573   0.00000  Uiso   1.00
Cl429  Cl    0.38229   0.78457   0.32875   0.00000  Uiso   1.00
Cl430  Cl    0.61770   0.88214   0.17127   0.00000  Uiso   1.00
Cl431  Cl    0.61818   0.78459   0.32879   0.00000  Uiso   1.00
Cl432  Cl    0.38181   0.88205   0.17119   0.00000  Uiso   1.00
C433   C     0.75414   0.83333   0.24997   0.00000  Uiso   1.00
C434   C     0.91253   0.83334   0.25003   0.00000  Uiso   1.00
C435   C     0.83333   0.83332   0.16497   0.00000  Uiso   1.00
C436   C     0.83340   0.83335   0.33503   0.00000  Uiso   1.00
C437   C     0.80806   0.69143   0.22206   0.00000  Uiso   1.00
C438   C     0.85861   0.97524   0.27794   0.00000  Uiso   1.00
C439   C     0.85861   0.69150   0.27794   0.00000  Uiso   1.00
C440   C     0.80806   0.97517   0.22206   0.00000  Uiso   1.00
C441   C     0.68832   0.81093   0.28448   0.00000  Uiso   1.00
C442   C     0.97834   0.85574   0.21552   0.00000  Uiso   1.00
C443   C     0.97855   0.81094   0.28450   0.00000  Uiso   1.00
C444   C     0.68811   0.85572   0.21550   0.00000  Uiso   1.00
C445   C     0.84626   0.87324   0.04772   0.00000  Uiso   1.00
C446   C     0.84633   0.79339   0.45237   0.00000  Uiso   1.00
C447   C     0.82087   0.87329   0.45241   0.00000  Uiso   1.00
C448   C     0.82082   0.79334   0.04750   0.00000  Uiso   1.00
C449   C     0.84591   0.87335   0.09364   0.00000  Uiso   1.00
C450   C     0.84603   0.79331   0.40644   0.00000  Uiso   1.00
C451   C     0.82109   0.87341   0.40649   0.00000  Uiso   1.00
C452   C     0.82098   0.79324   0.09343   0.00000  Uiso   1.00
C453   C     0.83340   0.83330   0.11673   0.00000  Uiso   1.00
C454   C     0.83351   0.83336   0.38327   0.00000  Uiso   1.00
C455   C     0.83358   0.83329   0.02428   0.00000  Uiso   1.00
C456   C     0.83360   0.83333   0.47572   0.00000  Uiso   1.00
C457   C     0.95713   0.83334   0.25002   0.00000  Uiso   1.00
C458   C     0.70953   0.83332   0.24998   0.00000  Uiso   1.00
Cu459  Cu    0.83333   0.88022   0.25000   0.00000  Uiso   1.00
Cu460  Cu    0.83333   0.78645   0.25000   0.00000  Uiso   1.00
H461   H     0.78780   0.71009   0.19967   0.00000  Uiso   1.00
H462   H     0.87887   0.95658   0.30032   0.00000  Uiso   1.00
H463   H     0.87885   0.71021   0.30034   0.00000  Uiso   1.00
H464   H     0.78781   0.95646   0.19967   0.00000  Uiso   1.00
H465   H     0.85692   0.90421   0.03057   0.00000  Uiso   1.00
H466   H     0.85697   0.76243   0.46958   0.00000  Uiso   1.00
H467   H     0.81025   0.90424   0.46966   0.00000  Uiso   1.00
H468   H     0.81022   0.76238   0.03018   0.00000  Uiso   1.00
H469   H     0.85597   0.90451   0.11104   0.00000  Uiso   1.00
H470   H     0.85611   0.76217   0.38909   0.00000  Uiso   1.00
H471   H     0.81100   0.90457   0.38919   0.00000  Uiso   1.00
H472   H     0.81087   0.76209   0.11068   0.00000  Uiso   1.00
N473   N     0.83333   0.95069   0.25000   0.00000  Uiso   1.00
N474   N     0.83333   0.71598   0.25000   0.00000  Uiso   1.00
O475   O     0.77321   0.87291   0.24999   0.00000  Uiso   1.00
O476   O     0.89345   0.79375   0.25000   0.00000  Uiso   1.00
O477   O     0.89345   0.87291   0.25000   0.00000  Uiso   1.00
O478   O     0.77321   0.79375   0.24999   0.00000  Uiso   1.00
O479   O     0.83333   0.87293   0.18573   0.00000  Uiso   1.00
O480   O     0.83334   0.79374   0.31427   0.00000  Uiso   1.00
O481   O     0.83334   0.87293   0.31427   0.00000  Uiso   1.00
O482   O     0.83333   0.79374   0.18573   0.00000  Uiso   1.00
Cl483  Cl    0.71562   0.78457   0.32875   0.00000  Uiso   1.00
Cl484  Cl    0.95104   0.88214   0.17127   0.00000  Uiso   1.00
Cl485  Cl    0.95151   0.78459   0.32879   0.00000  Uiso   1.00
Cl486  Cl    0.71515   0.88205   0.17119   0.00000  Uiso   1.00
C487   C     0.08747   0.16666   0.74997   0.00000  Uiso   1.00
C488   C     0.24586   0.16667   0.75003   0.00000  Uiso   1.00
C489   C     0.16666   0.16665   0.66497   0.00000  Uiso   1.00
C490   C     0.16673   0.16668   0.83503   0.00000  Uiso   1.00
C491   C     0.14139   0.02477   0.72206   0.00000  Uiso   1.00
C492   C     0.19195   0.30857   0.77794   0.00000  Uiso   1.00
C493   C     0.19194   0.02484   0.77794   0.00000  Uiso   1.00
C494   C     0.14139   0.30850   0.72206   0.00000  Uiso   1.00
C495   C     0.02165   0.14427   0.78448   0.00000  Uiso   1.00
C496   C     0.31167   0.18907   0.71552   0.00000  Uiso   1.00
C497   C     0.31188   0.14428   0.78450   0.00000  Uiso   1.00
C498   C     0.02144   0.18905   0.71550   0.00000  Uiso   1.00
C499   C     0.17959   0.20658   0.54772   0.00000  Uiso   1.00
C500   C     0.17966   0.12673   0.95237   0.00000  Uiso   1.00
C501   C     0.15421   0.20662   0.95241   0.00000  Uiso   1.00
C502   C     0.15415   0.12667   0.54750   0.00000  Uiso   1.00
C503   C     0.17924   0.20668   0.59364   0.00000  Uiso   1.00
C504   C     0.17936   0.12665   0.90644   0.00000  Uiso   1.00
C505   C     0.15442   0.20674   0.90649   0.00000  Uiso   1.00
C506   C     0.15432   0.12658   0.59343   0.00000  Uiso   1.00
C507   C     0.16673   0.16663   0.61673   0.00000  Uiso   1.00
C508   C     0.16684   0.16669   0.88327   0.00000  Uiso   1.00
C509   C     0.16691   0.16663   0.52428   0.00000  Uiso   1.00
C510   C     0.16694   0.16666   0.97572   0.00000  Uiso   1.00
C511   C     0.29047   0.16668   0.75002   0.00000  Uiso   1.00
C512   C     0.04286   0.16666   0.74998   0.00000  Uiso   1.00
Cu513  Cu    0.16667   0.21355   0.75000   0.00000  Uiso   1.00
Cu514  Cu    0.16667   0.11978   0.75000   0.00000  Uiso   1.00
H515   H     0.12114   0.04342   0.69967   0.00000  Uiso   1.00
H516   H     0.21220   0.28991   0.80032   0.00000  Uiso   1.00
H517   H     0.21218   0.04354   0.80034   0.00000  Uiso   1.00
H518   H     0.12114   0.28979   0.69967   0.00000  Uiso   1.00
H519   H     0.19025   0.23754   0.53057   0.00000  Uiso   1.00
H520   H     0.19031   0.09576   0.96958   0.00000  Uiso   1.00
H521   H     0.14359   0.23757   0.96966   0.00000  Uiso   1.00
H522   H     0.14355   0.09571   0.53018   0.00000  Uiso   1.00
H523   H     0.18930   0.23784   0.61104   0.00000  Uiso   1.00
H524   H     0.18945   0.09551   0.88909   0.00000  Uiso   1.00
H525   H     0.14433   0.23790   0.88919   0.00000  Uiso   1.00
H526   H     0.14420   0.09542   0.61068   0.00000  Uiso   1.00
N527   N     0.16667   0.28402   0.75000   0.00000  Uiso   1.00
N528   N     0.16667   0.04931   0.75000   0.00000  Uiso   1.00
O529   O     0.10655   0.20625   0.74999   0.00000  Uiso   1.00
O530   O     0.22679   0.12709   0.75000   0.00000  Uiso   1.00
O531   O     0.22679   0.20625   0.75000   0.00000  Uiso   1.00
O532   O     0.10655   0.12709   0.74999   0.00000  Uiso   1.00
O533   O     0.16666   0.20626   0.68573   0.00000  Uiso   1.00
O534   O     0.16667   0.12707   0.81427   0.00000  Uiso   1.00
O535   O     0.16667   0.20626   0.81427   0.00000  Uiso   1.00
O536   O     0.16666   0.12707   0.68573   0.00000  Uiso   1.00
Cl537  Cl    0.04896   0.11790   0.82875   0.00000  Uiso   1.00
Cl538  Cl    0.28437   0.21547   0.67127   0.00000  Uiso   1.00
Cl539  Cl    0.28484   0.11792   0.82879   0.00000  Uiso   1.00
Cl540  Cl    0.04848   0.21538   0.67119   0.00000  Uiso   1.00
C541   C     0.42080   0.16666   0.74997   0.00000  Uiso   1.00
C542   C     0.57919   0.16667   0.75003   0.00000  Uiso   1.00
C543   C     0.49999   0.16665   0.66497   0.00000  Uiso   1.00
C544   C     0.50006   0.16668   0.83503   0.00000  Uiso   1.00
C545   C     0.47472   0.02477   0.72206   0.00000  Uiso   1.00
C546   C     0.52528   0.30857   0.77794   0.00000  Uiso   1.00
C547   C     0.52527   0.02484   0.77794   0.00000  Uiso   1.00
C548   C     0.47473   0.30850   0.72206   0.00000  Uiso   1.00
C549   C     0.35499   0.14427   0.78448   0.00000  Uiso   1.00
C550   C     0.64501   0.18907   0.71552   0.00000  Uiso   1.00
C551   C     0.64522   0.14428   0.78450   0.00000  Uiso   1.00
C552   C     0.35478   0.18905   0.71550   0.00000  Uiso   1.00
C553   C     0.51293   0.20658   0.54772   0.00000  Uiso   1.00
C554   C     0.51299   0.12673   0.95237   0.00000  Uiso   1.00
C555   C     0.48754   0.20662   0.95241   0.00000  Uiso   1.00
C556   C     0.48748   0.12667   0.54750   0.00000  Uiso   1.00
C557   C     0.51257   0.20668   0.59364   0.00000  Uiso   1.00
C558   C     0.51269   0.12665   0.90644   0.00000  Uiso   1.00
C559   C     0.48776   0.20674   0.90649   0.00000  Uiso   1.00
C560   C     0.48765   0.12658   0.59343   0.00000  Uiso   1.00
C561   C     0.50006   0.16663   0.61673   0.00000  Uiso   1.00
C562   C     0.50018   0.16669   0.88327   0.00000  Uiso   1.00
C563   C     0.50024   0.16663   0.52428   0.00000  Uiso   1.00
C564   C     0.50027   0.16666   0.97572   0.00000  Uiso   1.00
C565   C     0.62380   0.16668   0.75002   0.00000  Uiso   1.00
C566   C     0.37619   0.16666   0.74998   0.00000  Uiso   1.00
Cu567  Cu    0.50000   0.21355   0.75000   0.00000  Uiso   1.00
Cu568  Cu    0.50000   0.11978   0.75000   0.00000  Uiso   1.00
H569   H     0.45447   0.04342   0.69967   0.00000  Uiso   1.00
H570   H     0.54554   0.28991   0.80032   0.00000  Uiso   1.00
H571   H     0.54551   0.04354   0.80034   0.00000  Uiso   1.00
H572   H     0.45448   0.28979   0.69967   0.00000  Uiso   1.00
H573   H     0.52359   0.23754   0.53057   0.00000  Uiso   1.00
H574   H     0.52364   0.09576   0.96958   0.00000  Uiso   1.00
H575   H     0.47692   0.23757   0.96966   0.00000  Uiso   1.00
H576   H     0.47688   0.09571   0.53018   0.00000  Uiso   1.00
H577   H     0.52263   0.23784   0.61104   0.00000  Uiso   1.00
H578   H     0.52278   0.09551   0.88909   0.00000  Uiso   1.00
H579   H     0.47766   0.23790   0.88919   0.00000  Uiso   1.00
H580   H     0.47753   0.09542   0.61068   0.00000  Uiso   1.00
N581   N     0.50000   0.28402   0.75000   0.00000  Uiso   1.00
N582   N     0.50000   0.04931   0.75000   0.00000  Uiso   1.00
O583   O     0.43988   0.20625   0.74999   0.00000  Uiso   1.00
O584   O     0.56012   0.12709   0.75000   0.00000  Uiso   1.00
O585   O     0.56012   0.20625   0.75000   0.00000  Uiso   1.00
O586   O     0.43988   0.12709   0.74999   0.00000  Uiso   1.00
O587   O     0.50000   0.20626   0.68573   0.00000  Uiso   1.00
O588   O     0.50000   0.12707   0.81427   0.00000  Uiso   1.00
O589   O     0.50000   0.20626   0.81427   0.00000  Uiso   1.00
O590   O     0.50000   0.12707   0.68573   0.00000  Uiso   1.00
Cl591  Cl    0.38229   0.11790   0.82875   0.00000  Uiso   1.00
Cl592  Cl    0.61770   0.21547   0.67127   0.00000  Uiso   1.00
Cl593  Cl    0.61818   0.11792   0.82879   0.00000  Uiso   1.00
Cl594  Cl    0.38181   0.21538   0.67119   0.00000  Uiso   1.00
C595   C     0.75414   0.16666   0.74997   0.00000  Uiso   1.00
C596   C     0.91253   0.16667   0.75003   0.00000  Uiso   1.00
C597   C     0.83333   0.16665   0.66497   0.00000  Uiso   1.00
C598   C     0.83340   0.16668   0.83503   0.00000  Uiso   1.00
C599   C     0.80806   0.02477   0.72206   0.00000  Uiso   1.00
C600   C     0.85861   0.30857   0.77794   0.00000  Uiso   1.00
C601   C     0.85861   0.02484   0.77794   0.00000  Uiso   1.00
C602   C     0.80806   0.30850   0.72206   0.00000  Uiso   1.00
C603   C     0.68832   0.14427   0.78448   0.00000  Uiso   1.00
C604   C     0.97834   0.18907   0.71552   0.00000  Uiso   1.00
C605   C     0.97855   0.14428   0.78450   0.00000  Uiso   1.00
C606   C     0.68811   0.18905   0.71550   0.00000  Uiso   1.00
C607   C     0.84626   0.20658   0.54772   0.00000  Uiso   1.00
C608   C     0.84633   0.12673   0.95237   0.00000  Uiso   1.00
C609   C     0.82087   0.20662   0.95241   0.00000  Uiso   1.00
C610   C     0.82082   0.12667   0.54750   0.00000  Uiso   1.00
C611   C     0.84591   0.20668   0.59364   0.00000  Uiso   1.00
C612   C     0.84603   0.12665   0.90644   0.00000  Uiso   1.00
C613   C     0.82109   0.20674   0.90649   0.00000  Uiso   1.00
C614   C     0.82098   0.12658   0.59343   0.00000  Uiso   1.00
C615   C     0.83340   0.16663   0.61673   0.00000  Uiso   1.00
C616   C     0.83351   0.16669   0.88327   0.00000  Uiso   1.00
C617   C     0.83358   0.16663   0.52428   0.00000  Uiso   1.00
C618   C     0.83360   0.16666   0.97572   0.00000  Uiso   1.00
C619   C     0.95713   0.16668   0.75002   0.00000  Uiso   1.00
C620   C     0.70953   0.16666   0.74998   0.00000  Uiso   1.00
Cu621  Cu    0.83333   0.21355   0.75000   0.00000  Uiso   1.00
Cu622  Cu    0.83333   0.11978   0.75000   0.00000  Uiso   1.00
H623   H     0.78780   0.04342   0.69967   0.00000  Uiso   1.00
H624   H     0.87887   0.28991   0.80032   0.00000  Uiso   1.00
H625   H     0.87885   0.04354   0.80034   0.00000  Uiso   1.00
H626   H     0.78781   0.28979   0.69967   0.00000  Uiso   1.00
H627   H     0.85692   0.23754   0.53057   0.00000  Uiso   1.00
H628   H     0.85697   0.09576   0.96958   0.00000  Uiso   1.00
H629   H     0.81025   0.23757   0.96966   0.00000  Uiso   1.00
H630   H     0.81022   0.09571   0.53018   0.00000  Uiso   1.00
H631   H     0.85597   0.23784   0.61104   0.00000  Uiso   1.00
H632   H     0.85611   0.09551   0.88909   0.00000  Uiso   1.00
H633   H     0.81100   0.23790   0.88919   0.00000  Uiso   1.00
H634   H     0.81087   0.09542   0.61068   0.00000  Uiso   1.00
N635   N     0.83333   0.28402   0.75000   0.00000  Uiso   1.00
N636   N     0.83333   0.04931   0.75000   0.00000  Uiso   1.00
O637   O     0.77321   0.20625   0.74999   0.00000  Uiso   1.00
O638   O     0.89345   0.12709   0.75000   0.00000  Uiso   1.00
O639   O     0.89345   0.20625   0.75000   0.00000  Uiso   1.00
O640   O     0.77321   0.12709   0.74999   0.00000  Uiso   1.00
O641   O     0.83333   0.20626   0.68573   0.00000  Uiso   1.00
O642   O     0.83334   0.12707   0.81427   0.00000  Uiso   1.00
O643   O     0.83334   0.20626   0.81427   0.00000  Uiso   1.00
O644   O     0.83333   0.12707   0.68573   0.00000  Uiso   1.00
Cl645  Cl    0.71562   0.11790   0.82875   0.00000  Uiso   1.00
Cl646  Cl    0.95104   0.21547   0.67127   0.00000  Uiso   1.00
Cl647  Cl    0.95151   0.11792   0.82879   0.00000  Uiso   1.00
Cl648  Cl    0.71515   0.21538   0.67119   0.00000  Uiso   1.00
C649   C     0.08747   0.50000   0.74997   0.00000  Uiso   1.00
C650   C     0.24586   0.50000   0.75003   0.00000  Uiso   1.00
C651   C     0.16666   0.49998   0.66497   0.00000  Uiso   1.00
C652   C     0.16673   0.50001   0.83503   0.00000  Uiso   1.00
C653   C     0.14139   0.35810   0.72206   0.00000  Uiso   1.00
C654   C     0.19195   0.64190   0.77794   0.00000  Uiso   1.00
C655   C     0.19194   0.35817   0.77794   0.00000  Uiso   1.00
C656   C     0.14139   0.64183   0.72206   0.00000  Uiso   1.00
C657   C     0.02165   0.47760   0.78448   0.00000  Uiso   1.00
C658   C     0.31167   0.52241   0.71552   0.00000  Uiso   1.00
C659   C     0.31188   0.47761   0.78450   0.00000  Uiso   1.00
C660   C     0.02144   0.52239   0.71550   0.00000  Uiso   1.00
C661   C     0.17959   0.53991   0.54772   0.00000  Uiso   1.00
C662   C     0.17966   0.46006   0.95237   0.00000  Uiso   1.00
C663   C     0.15421   0.53995   0.95241   0.00000  Uiso   1.00
C664   C     0.15415   0.46001   0.54750   0.00000  Uiso   1.00
C665   C     0.17924   0.54002   0.59364   0.00000  Uiso   1.00
C666   C     0.17936   0.45998   0.90644   0.00000  Uiso   1.00
C667   C     0.15442   0.54007   0.90649   0.00000  Uiso   1.00
C668   C     0.15432   0.45991   0.59343   0.00000  Uiso   1.00
C669   C     0.16673   0.49997   0.61673   0.00000  Uiso   1.00
C670   C     0.16684   0.50003   0.88327   0.00000  Uiso   1.00
C671   C     0.16691   0.49996   0.52428   0.00000  Uiso   1.00
C672   C     0.16694   0.49999   0.97572   0.00000  Uiso   1.00
C673   C     0.29047   0.50001   0.75002   0.00000  Uiso   1.00
C674   C     0.04286   0.49999   0.74998   0.00000  Uiso   1.00
Cu675  Cu    0.16667   0.54689   0.75000   0.00000  Uiso   1.00
Cu676  Cu    0.16667   0.45311   0.75000   0.00000  Uiso   1.00
H677   H     0.12114   0.37676   0.69967   0.00000  Uiso   1.00
H678   H     0.21220   0.62325   0.80032   0.00000  Uiso   1.00
H679   H     0.21218   0.37688   0.80034   0.00000  Uiso   1.00
H680   H     0.12114   0.62313   0.69967   0.00000  Uiso   1.00
H681   H     0.19025   0.57088   0.53057   0.00000  Uiso   1.00
H682   H     0.19031   0.42909   0.96958   0.00000  Uiso   1.00
H683   H     0.14359   0.57091   0.96966   0.00000  Uiso   1.00
H684   H     0.14355   0.42904   0.53018   0.00000  Uiso   1.00
H685   H     0.18930   0.57117   0.61104   0.00000  Uiso   1.00
H686   H     0.18945   0.42884   0.88909   0.00000  Uiso   1.00
H687   H     0.14433   0.57123   0.88919   0.00000  Uiso   1.00
H688   H     0.14420   0.42875   0.61068   0.00000  Uiso   1.00
N689   N     0.16667   0.61736   0.75000   0.00000  Uiso   1.00
N690   N     0.16667   0.38264   0.75000   0.00000  Uiso   1.00
O691   O     0.10655   0.53958   0.74999   0.00000  Uiso   1.00
O692   O     0.22679   0.46042   0.75000   0.00000  Uiso   1.00
O693   O     0.22679   0.53958   0.75000   0.00000  Uiso   1.00
O694   O     0.10655   0.46042   0.74999   0.00000  Uiso   1.00
O695   O     0.16666   0.53959   0.68573   0.00000  Uiso   1.00
O696   O     0.16667   0.46041   0.81427   0.00000  Uiso   1.00
O697   O     0.16667   0.53959   0.81427   0.00000  Uiso   1.00
O698   O     0.16666   0.46041   0.68573   0.00000  Uiso   1.00
Cl699  Cl    0.04896   0.45123   0.82875   0.00000  Uiso   1.00
Cl700  Cl    0.28437   0.54881   0.67127   0.00000  Uiso   1.00
Cl701  Cl    0.28484   0.45126   0.82879   0.00000  Uiso   1.00
Cl702  Cl    0.04848   0.54871   0.67119   0.00000  Uiso   1.00
C703   C     0.42080   0.50000   0.74997   0.00000  Uiso   1.00
C704   C     0.57919   0.50000   0.75003   0.00000  Uiso   1.00
C705   C     0.49999   0.49998   0.66497   0.00000  Uiso   1.00
C706   C     0.50006   0.50001   0.83503   0.00000  Uiso   1.00
C707   C     0.47472   0.35810   0.72206   0.00000  Uiso   1.00
C708   C     0.52528   0.64190   0.77794   0.00000  Uiso   1.00
C709   C     0.52527   0.35817   0.77794   0.00000  Uiso   1.00
C710   C     0.47473   0.64183   0.72206   0.00000  Uiso   1.00
C711   C     0.35499   0.47760   0.78448   0.00000  Uiso   1.00
C712   C     0.64501   0.52241   0.71552   0.00000  Uiso   1.00
C713   C     0.64522   0.47761   0.78450   0.00000  Uiso   1.00
C714   C     0.35478   0.52239   0.71550   0.00000  Uiso   1.00
C715   C     0.51293   0.53991   0.54772   0.00000  Uiso   1.00
C716   C     0.51299   0.46006   0.95237   0.00000  Uiso   1.00
C717   C     0.48754   0.53995   0.95241   0.00000  Uiso   1.00
C718   C     0.48748   0.46001   0.54750   0.00000  Uiso   1.00
C719   C     0.51257   0.54002   0.59364   0.00000  Uiso   1.00
C720   C     0.51269   0.45998   0.90644   0.00000  Uiso   1.00
C721   C     0.48776   0.54007   0.90649   0.00000  Uiso   1.00
C722   C     0.48765   0.45991   0.59343   0.00000  Uiso   1.00
C723   C     0.50006   0.49997   0.61673   0.00000  Uiso   1.00
C724   C     0.50018   0.50003   0.88327   0.00000  Uiso   1.00
C725   C     0.50024   0.49996   0.52428   0.00000  Uiso   1.00
C726   C     0.50027   0.49999   0.97572   0.00000  Uiso   1.00
C727   C     0.62380   0.50001   0.75002   0.00000  Uiso   1.00
C728   C     0.37619   0.49999   0.74998   0.00000  Uiso   1.00
Cu729  Cu    0.50000   0.54689   0.75000   0.00000  Uiso   1.00
Cu730  Cu    0.50000   0.45311   0.75000   0.00000  Uiso   1.00
H731   H     0.45447   0.37676   0.69967   0.00000  Uiso   1.00
H732   H     0.54554   0.62325   0.80032   0.00000  Uiso   1.00
H733   H     0.54551   0.37688   0.80034   0.00000  Uiso   1.00
H734   H     0.45448   0.62313   0.69967   0.00000  Uiso   1.00
H735   H     0.52359   0.57088   0.53057   0.00000  Uiso   1.00
H736   H     0.52364   0.42909   0.96958   0.00000  Uiso   1.00
H737   H     0.47692   0.57091   0.96966   0.00000  Uiso   1.00
H738   H     0.47688   0.42904   0.53018   0.00000  Uiso   1.00
H739   H     0.52263   0.57117   0.61104   0.00000  Uiso   1.00
H740   H     0.52278   0.42884   0.88909   0.00000  Uiso   1.00
H741   H     0.47766   0.57123   0.88919   0.00000  Uiso   1.00
H742   H     0.47753   0.42875   0.61068   0.00000  Uiso   1.00
N743   N     0.50000   0.61736   0.75000   0.00000  Uiso   1.00
N744   N     0.50000   0.38264   0.75000   0.00000  Uiso   1.00
O745   O     0.43988   0.53958   0.74999   0.00000  Uiso   1.00
O746   O     0.56012   0.46042   0.75000   0.00000  Uiso   1.00
O747   O     0.56012   0.53958   0.75000   0.00000  Uiso   1.00
O748   O     0.43988   0.46042   0.74999   0.00000  Uiso   1.00
O749   O     0.50000   0.53959   0.68573   0.00000  Uiso   1.00
O750   O     0.50000   0.46041   0.81427   0.00000  Uiso   1.00
O751   O     0.50000   0.53959   0.81427   0.00000  Uiso   1.00
O752   O     0.50000   0.46041   0.68573   0.00000  Uiso   1.00
Cl753  Cl    0.38229   0.45123   0.82875   0.00000  Uiso   1.00
Cl754  Cl    0.61770   0.54881   0.67127   0.00000  Uiso   1.00
Cl755  Cl    0.61818   0.45126   0.82879   0.00000  Uiso   1.00
Cl756  Cl    0.38181   0.54871   0.67119   0.00000  Uiso   1.00
C757   C     0.75414   0.50000   0.74997   0.00000  Uiso   1.00
C758   C     0.91253   0.50000   0.75003   0.00000  Uiso   1.00
C759   C     0.83333   0.49998   0.66497   0.00000  Uiso   1.00
C760   C     0.83340   0.50001   0.83503   0.00000  Uiso   1.00
C761   C     0.80806   0.35810   0.72206   0.00000  Uiso   1.00
C762   C     0.85861   0.64190   0.77794   0.00000  Uiso   1.00
C763   C     0.85861   0.35817   0.77794   0.00000  Uiso   1.00
C764   C     0.80806   0.64183   0.72206   0.00000  Uiso   1.00
C765   C     0.68832   0.47760   0.78448   0.00000  Uiso   1.00
C766   C     0.97834   0.52241   0.71552   0.00000  Uiso   1.00
C767   C     0.97855   0.47761   0.78450   0.00000  Uiso   1.00
C768   C     0.68811   0.52239   0.71550   0.00000  Uiso   1.00
C769   C     0.84626   0.53991   0.54772   0.00000  Uiso   1.00
C770   C     0.84633   0.46006   0.95237   0.00000  Uiso   1.00
C771   C     0.82087   0.53995   0.95241   0.00000  Uiso   1.00
C772   C     0.82082   0.46001   0.54750   0.00000  Uiso   1.00
C773   C     0.84591   0.54002   0.59364   0.00000  Uiso   1.00
C774   C     0.84603   0.45998   0.90644   0.00000  Uiso   1.00
C775   C     0.82109   0.54007   0.90649   0.00000  Uiso   1.00
C776   C     0.82098   0.45991   0.59343   0.00000  Uiso   1.00
C777   C     0.83340   0.49997   0.61673   0.00000  Uiso   1.00
C778   C     0.83351   0.50003   0.88327   0.00000  Uiso   1.00
C779   C     0.83358   0.49996   0.52428   0.00000  Uiso   1.00
C780   C     0.83360   0.49999   0.97572   0.00000  Uiso   1.00
C781   C     0.95713   0.50001   0.75002   0.00000  Uiso   1.00
C782   C     0.70953   0.49999   0.74998   0.00000  Uiso   1.00
Cu783  Cu    0.83333   0.54689   0.75000   0.00000  Uiso   1.00
Cu784  Cu    0.83333   0.45311   0.75000   0.00000  Uiso   1.00
H785   H     0.78780   0.37676   0.69967   0.00000  Uiso   1.00
H786   H     0.87887   0.62325   0.80032   0.00000  Uiso   1.00
H787   H     0.87885   0.37688   0.80034   0.00000  Uiso   1.00
H788   H     0.78781   0.62313   0.69967   0.00000  Uiso   1.00
H789   H     0.85692   0.57088   0.53057   0.00000  Uiso   1.00
H790   H     0.85697   0.42909   0.96958   0.00000  Uiso   1.00
H791   H     0.81025   0.57091   0.96966   0.00000  Uiso   1.00
H792   H     0.81022   0.42904   0.53018   0.00000  Uiso   1.00
H793   H     0.85597   0.57117   0.61104   0.00000  Uiso   1.00
H794   H     0.85611   0.42884   0.88909   0.00000  Uiso   1.00
H795   H     0.81100   0.57123   0.88919   0.00000  Uiso   1.00
H796   H     0.81087   0.42875   0.61068   0.00000  Uiso   1.00
N797   N     0.83333   0.61736   0.75000   0.00000  Uiso   1.00
N798   N     0.83333   0.38264   0.75000   0.00000  Uiso   1.00
O799   O     0.77321   0.53958   0.74999   0.00000  Uiso   1.00
O800   O     0.89345   0.46042   0.75000   0.00000  Uiso   1.00
O801   O     0.89345   0.53958   0.75000   0.00000  Uiso   1.00
O802   O     0.77321   0.46042   0.74999   0.00000  Uiso   1.00
O803   O     0.83333   0.53959   0.68573   0.00000  Uiso   1.00
O804   O     0.83334   0.46041   0.81427   0.00000  Uiso   1.00
O805   O     0.83334   0.53959   0.81427   0.00000  Uiso   1.00
O806   O     0.83333   0.46041   0.68573   0.00000  Uiso   1.00
Cl807  Cl    0.71562   0.45123   0.82875   0.00000  Uiso   1.00
Cl808  Cl    0.95104   0.54881   0.67127   0.00000  Uiso   1.00
Cl809  Cl    0.95151   0.45126   0.82879   0.00000  Uiso   1.00
Cl810  Cl    0.71515   0.54871   0.67119   0.00000  Uiso   1.00
C811   C     0.08747   0.83333   0.74997   0.00000  Uiso   1.00
C812   C     0.24586   0.83334   0.75003   0.00000  Uiso   1.00
C813   C     0.16666   0.83332   0.66497   0.00000  Uiso   1.00
C814   C     0.16673   0.83335   0.83503   0.00000  Uiso   1.00
C815   C     0.14139   0.69143   0.72206   0.00000  Uiso   1.00
C816   C     0.19195   0.97524   0.77794   0.00000  Uiso   1.00
C817   C     0.19194   0.69150   0.77794   0.00000  Uiso   1.00
C818   C     0.14139   0.97517   0.72206   0.00000  Uiso   1.00
C819   C     0.02165   0.81093   0.78448   0.00000  Uiso   1.00
C820   C     0.31167   0.85574   0.71552   0.00000  Uiso   1.00
C821   C     0.31188   0.81094   0.78450   0.00000  Uiso   1.00
C822   C     0.02144   0.85572   0.71550   0.00000  Uiso   1.00
C823   C     0.17959   0.87324   0.54772   0.00000  Uiso   1.00
C824   C     0.17966   0.79339   0.95237   0.00000  Uiso   1.00
C825   C     0.15421   0.87329   0.95241   0.00000  Uiso   1.00
C826   C     0.15415   0.79334   0.54750   0.00000  Uiso   1.00
C827   C     0.17924   0.87335   0.59364   0.00000  Uiso   1.00
C828   C     0.17936   0.79331   0.90644   0.00000  Uiso   1.00
C829   C     0.15442   0.87341   0.90649   0.00000  Uiso   1.00
C830   C     0.15432   0.79324   0.59343   0.00000  Uiso   1.00
C831   C     0.16673   0.83330   0.61673   0.00000  Uiso   1.00
C832   C     0.16684   0.83336   0.88327   0.00000  Uiso   1.00
C833   C     0.16691   0.83329   0.52428   0.00000  Uiso   1.00
C834   C     0.16694   0.83333   0.97572   0.00000  Uiso   1.00
C835   C     0.29047   0.83334   0.75002   0.00000  Uiso   1.00
C836   C     0.04286   0.83332   0.74998   0.00000  Uiso   1.00
Cu837  Cu    0.16667   0.88022   0.75000   0.00000  Uiso   1.00
Cu838  Cu    0.16667   0.78645   0.75000   0.00000  Uiso   1.00
H839   H     0.12114   0.71009   0.69967   0.00000  Uiso   1.00
H840   H     0.21220   0.95658   0.80032   0.00000  Uiso   1.00
H841   H     0.21218   0.71021   0.80034   0.00000  Uiso   1.00
H842   H     0.12114   0.95646   0.69967   0.00000  Uiso   1.00
H843   H     0.19025   0.90421   0.53057   0.00000  Uiso   1.00
H844   H     0.19031   0.76243   0.96958   0.00000  Uiso   1.00
H845   H     0.14359   0.90424   0.96966   0.00000  Uiso   1.00
H846   H     0.14355   0.76238   0.53018   0.00000  Uiso   1.00
H847   H     0.18930   0.90451   0.61104   0.00000  Uiso   1.00
H848   H     0.18945   0.76217   0.88909   0.00000  Uiso   1.00
H849   H     0.14433   0.90457   0.88919   0.00000  Uiso   1.00
H850   H     0.14420   0.76209   0.61068   0.00000  Uiso   1.00
N851   N     0.16667   0.95069   0.75000   0.00000  Uiso   1.00
N852   N     0.16667   0.71598   0.75000   0.00000  Uiso   1.00
O853   O     0.10655   0.87291   0.74999   0.00000  Uiso   1.00
O854   O     0.22679   0.79375   0.75000   0.00000  Uiso   1.00
O855   O     0.22679   0.87291   0.75000   0.00000  Uiso   1.00
O856   O     0.10655   0.79375   0.74999   0.00000  Uiso   1.00
O857   O     0.16666   0.87293   0.68573   0.00000  Uiso   1.00
O858   O     0.16667   0.79374   0.81427   0.00000  Uiso   1.00
O859   O     0.16667   0.87293   0.81427   0.00000  Uiso   1.00
O860   O     0.16666   0.79374   0.68573   0.00000  Uiso   1.00
Cl861  Cl    0.04896   0.78457   0.82875   0.00000  Uiso   1.00
Cl862  Cl    0.28437   0.88214   0.67127   0.00000  Uiso   1.00
Cl863  Cl    0.28484   0.78459   0.82879   0.00000  Uiso   1.00
Cl864  Cl    0.04848   0.88205   0.67119   0.00000  Uiso   1.00
C865   C     0.42080   0.83333   0.74997   0.00000  Uiso   1.00
C866   C     0.57919   0.83334   0.75003   0.00000  Uiso   1.00
C867   C     0.49999   0.83332   0.66497   0.00000  Uiso   1.00
C868   C     0.50006   0.83335   0.83503   0.00000  Uiso   1.00
C869   C     0.47472   0.69143   0.72206   0.00000  Uiso   1.00
C870   C     0.52528   0.97524   0.77794   0.00000  Uiso   1.00
C871   C     0.52527   0.69150   0.77794   0.00000  Uiso   1.00
C872   C     0.47473   0.97517   0.72206   0.00000  Uiso   1.00
C873   C     0.35499   0.81093   0.78448   0.00000  Uiso   1.00
C874   C     0.64501   0.85574   0.71552   0.00000  Uiso   1.00
C875   C     0.64522   0.81094   0.78450   0.00000  Uiso   1.00
C876   C     0.35478   0.85572   0.71550   0.00000  Uiso   1.00
C877   C     0.51293   0.87324   0.54772   0.00000  Uiso   1.00
C878   C     0.51299   0.79339   0.95237   0.00000  Uiso   1.00
C879   C     0.48754   0.87329   0.95241   0.00000  Uiso   1.00
C880   C     0.48748   0.79334   0.54750   0.00000  Uiso   1.00
C881   C     0.51257   0.87335   0.59364   0.00000  Uiso   1.00
C882   C     0.51269   0.79331   0.90644   0.00000  Uiso   1.00
C883   C     0.48776   0.87341   0.90649   0.00000  Uiso   1.00
C884   C     0.48765   0.79324   0.59343   0.00000  Uiso   1.00
C885   C     0.50006   0.83330   0.61673   0.00000  Uiso   1.00
C886   C     0.50018   0.83336   0.88327   0.00000  Uiso   1.00
C887   C     0.50024   0.83329   0.52428   0.00000  Uiso   1.00
C888   C     0.50027   0.83333   0.97572   0.00000  Uiso   1.00
C889   C     0.62380   0.83334   0.75002   0.00000  Uiso   1.00
C890   C     0.37619   0.83332   0.74998   0.00000  Uiso   1.00
Cu891  Cu    0.50000   0.88022   0.75000   0.00000  Uiso   1.00
Cu892  Cu    0.50000   0.78645   0.75000   0.00000  Uiso   1.00
H893   H     0.45447   0.71009   0.69967   0.00000  Uiso   1.00
H894   H     0.54554   0.95658   0.80032   0.00000  Uiso   1.00
H895   H     0.54551   0.71021   0.80034   0.00000  Uiso   1.00
H896   H     0.45448   0.95646   0.69967   0.00000  Uiso   1.00
H897   H     0.52359   0.90421   0.53057   0.00000  Uiso   1.00
H898   H     0.52364   0.76243   0.96958   0.00000  Uiso   1.00
H899   H     0.47692   0.90424   0.96966   0.00000  Uiso   1.00
H900   H     0.47688   0.76238   0.53018   0.00000  Uiso   1.00
H901   H     0.52263   0.90451   0.61104   0.00000  Uiso   1.00
H902   H     0.52278   0.76217   0.88909   0.00000  Uiso   1.00
H903   H     0.47766   0.90457   0.88919   0.00000  Uiso   1.00
H904   H     0.47753   0.76209   0.61068   0.00000  Uiso   1.00
N905   N     0.50000   0.95069   0.75000   0.00000  Uiso   1.00
N906   N     0.50000   0.71598   0.75000   0.00000  Uiso   1.00
O907   O     0.43988   0.87291   0.74999   0.00000  Uiso   1.00
O908   O     0.56012   0.79375   0.75000   0.00000  Uiso   1.00
O909   O     0.56012   0.87291   0.75000   0.00000  Uiso   1.00
O910   O     0.43988   0.79375   0.74999   0.00000  Uiso   1.00
O911   O     0.50000   0.87293   0.68573   0.00000  Uiso   1.00
O912   O     0.50000   0.79374   0.81427   0.00000  Uiso   1.00
O913   O     0.50000   0.87293   0.81427   0.00000  Uiso   1.00
O914   O     0.50000   0.79374   0.68573   0.00000  Uiso   1.00
Cl915  Cl    0.38229   0.78457   0.82875   0.00000  Uiso   1.00
Cl916  Cl    0.61770   0.88214   0.67127   0.00000  Uiso   1.00
Cl917  Cl    0.61818   0.78459   0.82879   0.00000  Uiso   1.00
Cl918  Cl    0.38181   0.88205   0.67119   0.00000  Uiso   1.00
C919   C     0.75414   0.83333   0.74997   0.00000  Uiso   1.00
C920   C     0.91253   0.83334   0.75003   0.00000  Uiso   1.00
C921   C     0.83333   0.83332   0.66497   0.00000  Uiso   1.00
C922   C     0.83340   0.83335   0.83503   0.00000  Uiso   1.00
C923   C     0.80806   0.69143   0.72206   0.00000  Uiso   1.00
C924   C     0.85861   0.97524   0.77794   0.00000  Uiso   1.00
C925   C     0.85861   0.69150   0.77794   0.00000  Uiso   1.00
C926   C     0.80806   0.97517   0.72206   0.00000  Uiso   1.00
C927   C     0.68832   0.81093   0.78448   0.00000  Uiso   1.00
C928   C     0.97834   0.85574   0.71552   0.00000  Uiso   1.00
C929   C     0.97855   0.81094   0.78450   0.00000  Uiso   1.00
C930   C     0.68811   0.85572   0.71550   0.00000  Uiso   1.00
C931   C     0.84626   0.87324   0.54772   0.00000  Uiso   1.00
C932   C     0.84633   0.79339   0.95237   0.00000  Uiso   1.00
C933   C     0.82087   0.87329   0.95241   0.00000  Uiso   1.00
C934   C     0.82082   0.79334   0.54750   0.00000  Uiso   1.00
C935   C     0.84591   0.87335   0.59364   0.00000  Uiso   1.00
C936   C     0.84603   0.79331   0.90644   0.00000  Uiso   1.00
C937   C     0.82109   0.87341   0.90649   0.00000  Uiso   1.00
C938   C     0.82098   0.79324   0.59343   0.00000  Uiso   1.00
C939   C     0.83340   0.83330   0.61673   0.00000  Uiso   1.00
C940   C     0.83351   0.83336   0.88327   0.00000  Uiso   1.00
C941   C     0.83358   0.83329   0.52428   0.00000  Uiso   1.00
C942   C     0.83360   0.83333   0.97572   0.00000  Uiso   1.00
C943   C     0.95713   0.83334   0.75002   0.00000  Uiso   1.00
C944   C     0.70953   0.83332   0.74998   0.00000  Uiso   1.00
Cu945  Cu    0.83333   0.88022   0.75000   0.00000  Uiso   1.00
Cu946  Cu    0.83333   0.78645   0.75000   0.00000  Uiso   1.00
H947   H     0.78780   0.71009   0.69967   0.00000  Uiso   1.00
H948   H     0.87887   0.95658   0.80032   0.00000  Uiso   1.00
H949   H     0.87885   0.71021   0.80034   0.00000  Uiso   1.00
H950   H     0.78781   0.95646   0.69967   0.00000  Uiso   1.00
H951   H     0.85692   0.90421   0.53057   0.00000  Uiso   1.00
H952   H     0.85697   0.76243   0.96958   0.00000  Uiso   1.00
H953   H     0.81025   0.90424   0.96966   0.00000  Uiso   1.00
H954   H     0.81022   0.76238   0.53018   0.00000  Uiso   1.00
H955   H     0.85597   0.90451   0.61104   0.00000  Uiso   1.00
H956   H     0.85611   0.76217   0.88909   0.00000  Uiso   1.00
H957   H     0.81100   0.90457   0.88919   0.00000  Uiso   1.00
H958   H     0.81087   0.76209   0.61068   0.00000  Uiso   1.00
N959   N     0.83333   0.95069   0.75000   0.00000  Uiso   1.00
N960   N     0.83333   0.71598   0.75000   0.00000  Uiso   1.00
O961   O     0.77321   0.87291   0.74999   0.00000  Uiso   1.00
O962   O     0.89345   0.79375   0.75000   0.00000  Uiso   1.00
O963   O     0.89345   0.87291   0.75000   0.00000  Uiso   1.00
O964   O     0.77321   0.79375   0.74999   0.00000  Uiso   1.00
O965   O     0.83333   0.87293   0.68573   0.00000  Uiso   1.00
O966   O     0.83334   0.79374   0.81427   0.00000  Uiso   1.00
O967   O     0.83334   0.87293   0.81427   0.00000  Uiso   1.00
O968   O     0.83333   0.79374   0.68573   0.00000  Uiso   1.00
Cl969  Cl    0.71562   0.78457   0.82875   0.00000  Uiso   1.00
Cl970  Cl    0.95104   0.88214   0.67127   0.00000  Uiso   1.00
Cl971  Cl    0.95151   0.78459   0.82879   0.00000  Uiso   1.00
Cl972  Cl    0.71515   0.88205   0.67119   0.00000  Uiso   1.00
loop_
_geom_bond_atom_site_label_1
_geom_bond_atom_site_label_2
_geom_bond_distance
_geom_bond_site_symmetry_2
_ccdc_geom_bond_type
C1     O43     1.288   .     A
C1     C26     1.442   .     S
C1     O46     1.288   .     A
C2     O44     1.288   .     A
C2     C25     1.442   .     S
C2     O45     1.288   .     A
C3     O47     1.294   .     A
C3     O50     1.294   .     A
C3     C21     1.460   .     S
C4     C22     1.460   .     S
C4     O49     1.294   .     A
C4     O48     1.294   .     A
C5     H29     1.082   .     S
C5     N42     1.367   .     A
C5     C332    1.417   1_545 S
C6     H30     1.082   .     S
C6     N41     1.367   .     A
C6     C169    1.417   .     S
C7     H31     1.082   .     S
C7     N42     1.367   .     A
C7     C330    1.417   1_545 S
C8     N41     1.367   .     A
C8     H32     1.082   .     S
C8     C167    1.417   .     S
C9     C26     1.405   .     A
C9     Cl51    1.771   .     S
C9     C119    1.394   1_455 S
C10    Cl52    1.771   .     S
C10    C25     1.405   .     A
C10    C66     1.394   .     S
C11    Cl53    1.771   .     S
C11    C25     1.405   .     A
C11    C63     1.394   .     S
C12    Cl54    1.771   .     S
C12    C26     1.405   .     A
C12    C118    1.394   1_455 S
C13    H33     1.083   .     S
C13    C17     1.390   .     A
C13    C23     1.404   .     A
C14    H34     1.083   .     S
C14    C18     1.390   .     A
C14    C24     1.404   .     A
C15    C19     1.390   .     A
C15    C24     1.404   .     A
C15    H35     1.083   .     S
C16    C20     1.390   .     A
C16    H36     1.083   .     S
C16    C23     1.404   .     A
C17    H37     1.083   .     S
C17    C21     1.402   .     A
C18    H38     1.083   .     S
C18    C22     1.402   .     A
C19    H39     1.083   .     S
C19    C22     1.402   .     A
C20    H40     1.083   .     S
C20    C21     1.402   .     A
C23    C510    1.470   1_554 S
C24    C509    1.470   .     S
Cu27   O47     1.956   .     S
Cu27   O45     1.955   .     S
Cu27   O43     1.955   .     S
Cu27   Cu28    2.679   .     S
Cu27   N41     2.013   .     S
Cu27   O49     1.956   .     S
Cu28   O46     1.955   .     S
Cu28   N42     2.013   .     S
Cu28   O48     1.956   .     S
Cu28   O50     1.956   .     S
Cu28   O44     1.955   .     S
C55    O97     1.288   .     A
C55    C80     1.442   .     S
C55    O100    1.288   .     A
C56    O98     1.288   .     A
C56    C79     1.442   .     S
C56    O99     1.288   .     A
C57    O101    1.294   .     A
C57    O104    1.294   .     A
C57    C75     1.460   .     S
C58    C76     1.460   .     S
C58    O103    1.294   .     A
C58    O102    1.294   .     A
C59    H83     1.082   .     S
C59    N96     1.367   .     A
C59    C386    1.417   1_545 S
C60    H84     1.082   .     S
C60    N95     1.367   .     A
C60    C223    1.417   .     S
C61    H85     1.082   .     S
C61    N96     1.367   .     A
C61    C384    1.417   1_545 S
C62    N95     1.367   .     A
C62    H86     1.082   .     S
C62    C221    1.417   .     S
C63    C80     1.405   .     A
C63    Cl105   1.771   .     S
C64    Cl106   1.771   .     S
C64    C79     1.405   .     A
C64    C120    1.394   .     S
C65    Cl107   1.771   .     S
C65    C79     1.405   .     A
C65    C117    1.394   .     S
C66    Cl108   1.771   .     S
C66    C80     1.405   .     A
C67    H87     1.083   .     S
C67    C71     1.390   .     A
C67    C77     1.404   .     A
C68    H88     1.083   .     S
C68    C72     1.390   .     A
C68    C78     1.404   .     A
C69    C73     1.390   .     A
C69    C78     1.404   .     A
C69    H89     1.083   .     S
C70    C74     1.390   .     A
C70    H90     1.083   .     S
C70    C77     1.404   .     A
C71    H91     1.083   .     S
C71    C75     1.402   .     A
C72    H92     1.083   .     S
C72    C76     1.402   .     A
C73    H93     1.083   .     S
C73    C76     1.402   .     A
C74    H94     1.083   .     S
C74    C75     1.402   .     A
C77    C564    1.470   1_554 S
C78    C563    1.470   .     S
Cu81   O101    1.956   .     S
Cu81   O99     1.955   .     S
Cu81   O97     1.955   .     S
Cu81   Cu82    2.679   .     S
Cu81   N95     2.013   .     S
Cu81   O103    1.956   .     S
Cu82   O100    1.955   .     S
Cu82   N96     2.013   .     S
Cu82   O102    1.956   .     S
Cu82   O104    1.956   .     S
Cu82   O98     1.955   .     S
C109   O151    1.288   .     A
C109   C134    1.442   .     S
C109   O154    1.288   .     A
C110   O152    1.288   .     A
C110   C133    1.442   .     S
C110   O153    1.288   .     A
C111   O155    1.294   .     A
C111   O158    1.294   .     A
C111   C129    1.460   .     S
C112   C130    1.460   .     S
C112   O157    1.294   .     A
C112   O156    1.294   .     A
C113   H137    1.082   .     S
C113   N150    1.367   .     A
C113   C440    1.417   1_545 S
C114   H138    1.082   .     S
C114   N149    1.367   .     A
C114   C277    1.417   .     S
C115   H139    1.082   .     S
C115   N150    1.367   .     A
C115   C438    1.417   1_545 S
C116   N149    1.367   .     A
C116   H140    1.082   .     S
C116   C275    1.417   .     S
C117   C134    1.405   .     A
C117   Cl159   1.771   .     S
C118   Cl160   1.771   .     S
C118   C133    1.405   .     A
C118   C12     1.394   1_655 S
C119   Cl161   1.771   .     S
C119   C133    1.405   .     A
C119   C9      1.394   1_655 S
C120   Cl162   1.771   .     S
C120   C134    1.405   .     A
C121   H141    1.083   .     S
C121   C125    1.390   .     A
C121   C131    1.404   .     A
C122   H142    1.083   .     S
C122   C126    1.390   .     A
C122   C132    1.404   .     A
C123   C127    1.390   .     A
C123   C132    1.404   .     A
C123   H143    1.083   .     S
C124   C128    1.390   .     A
C124   H144    1.083   .     S
C124   C131    1.404   .     A
C125   H145    1.083   .     S
C125   C129    1.402   .     A
C126   H146    1.083   .     S
C126   C130    1.402   .     A
C127   H147    1.083   .     S
C127   C130    1.402   .     A
C128   H148    1.083   .     S
C128   C129    1.402   .     A
C131   C618    1.470   1_554 S
C132   C617    1.470   .     S
Cu135  O155    1.956   .     S
Cu135  O153    1.955   .     S
Cu135  O151    1.955   .     S
Cu135  Cu136   2.679   .     S
Cu135  N149    2.013   .     S
Cu135  O157    1.956   .     S
Cu136  O154    1.955   .     S
Cu136  N150    2.013   .     S
Cu136  O156    1.956   .     S
Cu136  O158    1.956   .     S
Cu136  O152    1.955   .     S
C163   O205    1.288   .     A
C163   C188    1.442   .     S
C163   O208    1.288   .     A
C164   O206    1.288   .     A
C164   C187    1.442   .     S
C164   O207    1.288   .     A
C165   O209    1.294   .     A
C165   O212    1.294   .     A
C165   C183    1.460   .     S
C166   C184    1.460   .     S
C166   O211    1.294   .     A
C166   O210    1.294   .     A
C167   H191    1.082   .     S
C167   N204    1.367   .     A
C168   H192    1.082   .     S
C168   N203    1.367   .     A
C168   C331    1.417   .     S
C169   H193    1.082   .     S
C169   N204    1.367   .     A
C170   N203    1.367   .     A
C170   H194    1.082   .     S
C170   C329    1.417   .     S
C171   C188    1.405   .     A
C171   Cl213   1.771   .     S
C171   C281    1.394   1_455 S
C172   Cl214   1.771   .     S
C172   C187    1.405   .     A
C172   C228    1.394   .     S
C173   Cl215   1.771   .     S
C173   C187    1.405   .     A
C173   C225    1.394   .     S
C174   Cl216   1.771   .     S
C174   C188    1.405   .     A
C174   C280    1.394   1_455 S
C175   H195    1.083   .     S
C175   C179    1.390   .     A
C175   C185    1.404   .     A
C176   H196    1.083   .     S
C176   C180    1.390   .     A
C176   C186    1.404   .     A
C177   C181    1.390   .     A
C177   C186    1.404   .     A
C177   H197    1.083   .     S
C178   C182    1.390   .     A
C178   H198    1.083   .     S
C178   C185    1.404   .     A
C179   H199    1.083   .     S
C179   C183    1.402   .     A
C180   H200    1.083   .     S
C180   C184    1.402   .     A
C181   H201    1.083   .     S
C181   C184    1.402   .     A
C182   H202    1.083   .     S
C182   C183    1.402   .     A
C185   C672    1.470   1_554 S
C186   C671    1.470   .     S
Cu189  O209    1.956   .     S
Cu189  O207    1.955   .     S
Cu189  O205    1.955   .     S
Cu189  Cu190   2.679   .     S
Cu189  N203    2.013   .     S
Cu189  O211    1.956   .     S
Cu190  O208    1.955   .     S
Cu190  N204    2.013   .     S
Cu190  O210    1.956   .     S
Cu190  O212    1.956   .     S
Cu190  O206    1.955   .     S
C217   O259    1.288   .     A
C217   C242    1.442   .     S
C217   O262    1.288   .     A
C218   O260    1.288   .     A
C218   C241    1.442   .     S
C218   O261    1.288   .     A
C219   O263    1.294   .     A
C219   O266    1.294   .     A
C219   C237    1.460   .     S
C220   C238    1.460   .     S
C220   O265    1.294   .     A
C220   O264    1.294   .     A
C221   H245    1.082   .     S
C221   N258    1.367   .     A
C222   H246    1.082   .     S
C222   N257    1.367   .     A
C222   C385    1.417   .     S
C223   H247    1.082   .     S
C223   N258    1.367   .     A
C224   N257    1.367   .     A
C224   H248    1.082   .     S
C224   C383    1.417   .     S
C225   C242    1.405   .     A
C225   Cl267   1.771   .     S
C226   Cl268   1.771   .     S
C226   C241    1.405   .     A
C226   C282    1.394   .     S
C227   Cl269   1.771   .     S
C227   C241    1.405   .     A
C227   C279    1.394   .     S
C228   Cl270   1.771   .     S
C228   C242    1.405   .     A
C229   H249    1.083   .     S
C229   C233    1.390   .     A
C229   C239    1.404   .     A
C230   H250    1.083   .     S
C230   C234    1.390   .     A
C230   C240    1.404   .     A
C231   C235    1.390   .     A
C231   C240    1.404   .     A
C231   H251    1.083   .     S
C232   C236    1.390   .     A
C232   H252    1.083   .     S
C232   C239    1.404   .     A
C233   H253    1.083   .     S
C233   C237    1.402   .     A
C234   H254    1.083   .     S
C234   C238    1.402   .     A
C235   H255    1.083   .     S
C235   C238    1.402   .     A
C236   H256    1.083   .     S
C236   C237    1.402   .     A
C239   C726    1.470   1_554 S
C240   C725    1.470   .     S
Cu243  O263    1.956   .     S
Cu243  O261    1.955   .     S
Cu243  O259    1.955   .     S
Cu243  Cu244   2.679   .     S
Cu243  N257    2.013   .     S
Cu243  O265    1.956   .     S
Cu244  O262    1.955   .     S
Cu244  N258    2.013   .     S
Cu244  O264    1.956   .     S
Cu244  O266    1.956   .     S
Cu244  O260    1.955   .     S
C271   O313    1.288   .     A
C271   C296    1.442   .     S
C271   O316    1.288   .     A
C272   O314    1.288   .     A
C272   C295    1.442   .     S
C272   O315    1.288   .     A
C273   O317    1.294   .     A
C273   O320    1.294   .     A
C273   C291    1.460   .     S
C274   C292    1.460   .     S
C274   O319    1.294   .     A
C274   O318    1.294   .     A
C275   H299    1.082   .     S
C275   N312    1.367   .     A
C276   H300    1.082   .     S
C276   N311    1.367   .     A
C276   C439    1.417   .     S
C277   H301    1.082   .     S
C277   N312    1.367   .     A
C278   N311    1.367   .     A
C278   H302    1.082   .     S
C278   C437    1.417   .     S
C279   C296    1.405   .     A
C279   Cl321   1.771   .     S
C280   Cl322   1.771   .     S
C280   C295    1.405   .     A
C280   C174    1.394   1_655 S
C281   Cl323   1.771   .     S
C281   C295    1.405   .     A
C281   C171    1.394   1_655 S
C282   Cl324   1.771   .     S
C282   C296    1.405   .     A
C283   H303    1.083   .     S
C283   C287    1.390   .     A
C283   C293    1.404   .     A
C284   H304    1.083   .     S
C284   C288    1.390   .     A
C284   C294    1.404   .     A
C285   C289    1.390   .     A
C285   C294    1.404   .     A
C285   H305    1.083   .     S
C286   C290    1.390   .     A
C286   H306    1.083   .     S
C286   C293    1.404   .     A
C287   H307    1.083   .     S
C287   C291    1.402   .     A
C288   H308    1.083   .     S
C288   C292    1.402   .     A
C289   H309    1.083   .     S
C289   C292    1.402   .     A
C290   H310    1.083   .     S
C290   C291    1.402   .     A
C293   C780    1.470   1_554 S
C294   C779    1.470   .     S
Cu297  O317    1.956   .     S
Cu297  O315    1.955   .     S
Cu297  O313    1.955   .     S
Cu297  Cu298   2.679   .     S
Cu297  N311    2.013   .     S
Cu297  O319    1.956   .     S
Cu298  O316    1.955   .     S
Cu298  N312    2.013   .     S
Cu298  O318    1.956   .     S
Cu298  O320    1.956   .     S
Cu298  O314    1.955   .     S
C325   O367    1.288   .     A
C325   C350    1.442   .     S
C325   O370    1.288   .     A
C326   O368    1.288   .     A
C326   C349    1.442   .     S
C326   O369    1.288   .     A
C327   O371    1.294   .     A
C327   O374    1.294   .     A
C327   C345    1.460   .     S
C328   C346    1.460   .     S
C328   O373    1.294   .     A
C328   O372    1.294   .     A
C329   H353    1.082   .     S
C329   N366    1.367   .     A
C330   H354    1.082   .     S
C330   N365    1.367   .     A
C330   C7      1.417   1_565 S
C331   H355    1.082   .     S
C331   N366    1.367   .     A
C332   N365    1.367   .     A
C332   H356    1.082   .     S
C332   C5      1.417   1_565 S
C333   C350    1.405   .     A
C333   Cl375   1.771   .     S
C333   C443    1.394   1_455 S
C334   Cl376   1.771   .     S
C334   C349    1.405   .     A
C334   C390    1.394   .     S
C335   Cl377   1.771   .     S
C335   C349    1.405   .     A
C335   C387    1.394   .     S
C336   Cl378   1.771   .     S
C336   C350    1.405   .     A
C336   C442    1.394   1_455 S
C337   H357    1.083   .     S
C337   C341    1.390   .     A
C337   C347    1.404   .     A
C338   H358    1.083   .     S
C338   C342    1.390   .     A
C338   C348    1.404   .     A
C339   C343    1.390   .     A
C339   C348    1.404   .     A
C339   H359    1.083   .     S
C340   C344    1.390   .     A
C340   H360    1.083   .     S
C340   C347    1.404   .     A
C341   H361    1.083   .     S
C341   C345    1.402   .     A
C342   H362    1.083   .     S
C342   C346    1.402   .     A
C343   H363    1.083   .     S
C343   C346    1.402   .     A
C344   H364    1.083   .     S
C344   C345    1.402   .     A
C347   C834    1.470   1_554 S
C348   C833    1.470   .     S
Cu351  O371    1.956   .     S
Cu351  O369    1.955   .     S
Cu351  O367    1.955   .     S
Cu351  Cu352   2.679   .     S
Cu351  N365    2.013   .     S
Cu351  O373    1.956   .     S
Cu352  O370    1.955   .     S
Cu352  N366    2.013   .     S
Cu352  O372    1.956   .     S
Cu352  O374    1.956   .     S
Cu352  O368    1.955   .     S
C379   O421    1.288   .     A
C379   C404    1.442   .     S
C379   O424    1.288   .     A
C380   O422    1.288   .     A
C380   C403    1.442   .     S
C380   O423    1.288   .     A
C381   O425    1.294   .     A
C381   O428    1.294   .     A
C381   C399    1.460   .     S
C382   C400    1.460   .     S
C382   O427    1.294   .     A
C382   O426    1.294   .     A
C383   H407    1.082   .     S
C383   N420    1.367   .     A
C384   H408    1.082   .     S
C384   N419    1.367   .     A
C384   C61     1.417   1_565 S
C385   H409    1.082   .     S
C385   N420    1.367   .     A
C386   N419    1.367   .     A
C386   H410    1.082   .     S
C386   C59     1.417   1_565 S
C387   C404    1.405   .     A
C387   Cl429   1.771   .     S
C388   Cl430   1.771   .     S
C388   C403    1.405   .     A
C388   C444    1.394   .     S
C389   Cl431   1.771   .     S
C389   C403    1.405   .     A
C389   C441    1.394   .     S
C390   Cl432   1.771   .     S
C390   C404    1.405   .     A
C391   H411    1.083   .     S
C391   C395    1.390   .     A
C391   C401    1.404   .     A
C392   H412    1.083   .     S
C392   C396    1.390   .     A
C392   C402    1.404   .     A
C393   C397    1.390   .     A
C393   C402    1.404   .     A
C393   H413    1.083   .     S
C394   C398    1.390   .     A
C394   H414    1.083   .     S
C394   C401    1.404   .     A
C395   H415    1.083   .     S
C395   C399    1.402   .     A
C396   H416    1.083   .     S
C396   C400    1.402   .     A
C397   H417    1.083   .     S
C397   C400    1.402   .     A
C398   H418    1.083   .     S
C398   C399    1.402   .     A
C401   C888    1.470   1_554 S
C402   C887    1.470   .     S
Cu405  O425    1.956   .     S
Cu405  O423    1.955   .     S
Cu405  O421    1.955   .     S
Cu405  Cu406   2.679   .     S
Cu405  N419    2.013   .     S
Cu405  O427    1.956   .     S
Cu406  O424    1.955   .     S
Cu406  N420    2.013   .     S
Cu406  O426    1.956   .     S
Cu406  O428    1.956   .     S
Cu406  O422    1.955   .     S
C433   O475    1.288   .     A
C433   C458    1.442   .     S
C433   O478    1.288   .     A
C434   O476    1.288   .     A
C434   C457    1.442   .     S
C434   O477    1.288   .     A
C435   O479    1.294   .     A
C435   O482    1.294   .     A
C435   C453    1.460   .     S
C436   C454    1.460   .     S
C436   O481    1.294   .     A
C436   O480    1.294   .     A
C437   H461    1.082   .     S
C437   N474    1.367   .     A
C438   H462    1.082   .     S
C438   N473    1.367   .     A
C438   C115    1.417   1_565 S
C439   H463    1.082   .     S
C439   N474    1.367   .     A
C440   N473    1.367   .     A
C440   H464    1.082   .     S
C440   C113    1.417   1_565 S
C441   C458    1.405   .     A
C441   Cl483   1.771   .     S
C442   Cl484   1.771   .     S
C442   C457    1.405   .     A
C442   C336    1.394   1_655 S
C443   Cl485   1.771   .     S
C443   C457    1.405   .     A
C443   C333    1.394   1_655 S
C444   Cl486   1.771   .     S
C444   C458    1.405   .     A
C445   H465    1.083   .     S
C445   C449    1.390   .     A
C445   C455    1.404   .     A
C446   H466    1.083   .     S
C446   C450    1.390   .     A
C446   C456    1.404   .     A
C447   C451    1.390   .     A
C447   C456    1.404   .     A
C447   H467    1.083   .     S
C448   C452    1.390   .     A
C448   H468    1.083   .     S
C448   C455    1.404   .     A
C449   H469    1.083   .     S
C449   C453    1.402   .     A
C450   H470    1.083   .     S
C450   C454    1.402   .     A
C451   H471    1.083   .     S
C451   C454    1.402   .     A
C452   H472    1.083   .     S
C452   C453    1.402   .     A
C455   C942    1.470   1_554 S
C456   C941    1.470   .     S
Cu459  O479    1.956   .     S
Cu459  O477    1.955   .     S
Cu459  O475    1.955   .     S
Cu459  Cu460   2.679   .     S
Cu459  N473    2.013   .     S
Cu459  O481    1.956   .     S
Cu460  O478    1.955   .     S
Cu460  N474    2.013   .     S
Cu460  O480    1.956   .     S
Cu460  O482    1.956   .     S
Cu460  O476    1.955   .     S
C487   O529    1.288   .     A
C487   C512    1.442   .     S
C487   O532    1.288   .     A
C488   O530    1.288   .     A
C488   C511    1.442   .     S
C488   O531    1.288   .     A
C489   O533    1.294   .     A
C489   O536    1.294   .     A
C489   C507    1.460   .     S
C490   C508    1.460   .     S
C490   O535    1.294   .     A
C490   O534    1.294   .     A
C491   H515    1.082   .     S
C491   N528    1.367   .     A
C491   C818    1.417   1_545 S
C492   H516    1.082   .     S
C492   N527    1.367   .     A
C492   C655    1.417   .     S
C493   H517    1.082   .     S
C493   N528    1.367   .     A
C493   C816    1.417   1_545 S
C494   N527    1.367   .     A
C494   H518    1.082   .     S
C494   C653    1.417   .     S
C495   C512    1.405   .     A
C495   Cl537   1.771   .     S
C495   C605    1.394   1_455 S
C496   Cl538   1.771   .     S
C496   C511    1.405   .     A
C496   C552    1.394   .     S
C497   Cl539   1.771   .     S
C497   C511    1.405   .     A
C497   C549    1.394   .     S
C498   Cl540   1.771   .     S
C498   C512    1.405   .     A
C498   C604    1.394   1_455 S
C499   H519    1.083   .     S
C499   C503    1.390   .     A
C499   C509    1.404   .     A
C500   H520    1.083   .     S
C500   C504    1.390   .     A
C500   C510    1.404   .     A
C501   C505    1.390   .     A
C501   C510    1.404   .     A
C501   H521    1.083   .     S
C502   C506    1.390   .     A
C502   H522    1.083   .     S
C502   C509    1.404   .     A
C503   H523    1.083   .     S
C503   C507    1.402   .     A
C504   H524    1.083   .     S
C504   C508    1.402   .     A
C505   H525    1.083   .     S
C505   C508    1.402   .     A
C506   H526    1.083   .     S
C506   C507    1.402   .     A
C510   C23     1.470   1_556 S
Cu513  O533    1.956   .     S
Cu513  O531    1.955   .     S
Cu513  O529    1.955   .     S
Cu513  Cu514   2.679   .     S
Cu513  N527    2.013   .     S
Cu513  O535    1.956   .     S
Cu514  O532    1.955   .     S
Cu514  N528    2.013   .     S
Cu514  O534    1.956   .     S
Cu514  O536    1.956   .     S
Cu514  O530    1.955   .     S
C541   O583    1.288   .     A
C541   C566    1.442   .     S
C541   O586    1.288   .     A
C542   O584    1.288   .     A
C542   C565    1.442   .     S
C542   O585    1.288   .     A
C543   O587    1.294   .     A
C543   O590    1.294   .     A
C543   C561    1.460   .     S
C544   C562    1.460   .     S
C544   O589    1.294   .     A
C544   O588    1.294   .     A
C545   H569    1.082   .     S
C545   N582    1.367   .     A
C545   C872    1.417   1_545 S
C546   H570    1.082   .     S
C546   N581    1.367   .     A
C546   C709    1.417   .     S
C547   H571    1.082   .     S
C547   N582    1.367   .     A
C547   C870    1.417   1_545 S
C548   N581    1.367   .     A
C548   H572    1.082   .     S
C548   C707    1.417   .     S
C549   C566    1.405   .     A
C549   Cl591   1.771   .     S
C550   Cl592   1.771   .     S
C550   C565    1.405   .     A
C550   C606    1.394   .     S
C551   Cl593   1.771   .     S
C551   C565    1.405   .     A
C551   C603    1.394   .     S
C552   Cl594   1.771   .     S
C552   C566    1.405   .     A
C553   H573    1.083   .     S
C553   C557    1.390   .     A
C553   C563    1.404   .     A
C554   H574    1.083   .     S
C554   C558    1.390   .     A
C554   C564    1.404   .     A
C555   C559    1.390   .     A
C555   C564    1.404   .     A
C555   H575    1.083   .     S
C556   C560    1.390   .     A
C556   H576    1.083   .     S
C556   C563    1.404   .     A
C557   H577    1.083   .     S
C557   C561    1.402   .     A
C558   H578    1.083   .     S
C558   C562    1.402   .     A
C559   H579    1.083   .     S
C559   C562    1.402   .     A
C560   H580    1.083   .     S
C560   C561    1.402   .     A
C564   C77     1.470   1_556 S
Cu567  O587    1.956   .     S
Cu567  O585    1.955   .     S
Cu567  O583    1.955   .     S
Cu567  Cu568   2.679   .     S
Cu567  N581    2.013   .     S
Cu567  O589    1.956   .     S
Cu568  O586    1.955   .     S
Cu568  N582    2.013   .     S
Cu568  O588    1.956   .     S
Cu568  O590    1.956   .     S
Cu568  O584    1.955   .     S
C595   O637    1.288   .     A
C595   C620    1.442   .     S
C595   O640    1.288   .     A
C596   O638    1.288   .     A
C596   C619    1.442   .     S
C596   O639    1.288   .     A
C597   O641    1.294   .     A
C597   O644    1.294   .     A
C597   C615    1.460   .     S
C598   C616    1.460   .     S
C598   O643    1.294   .     A
C598   O642    1.294   .     A
C599   H623    1.082   .     S
C599   N636    1.367   .     A
C599   C926    1.417   1_545 S
C600   H624    1.082   .     S
C600   N635    1.367   .     A
C600   C763    1.417   .     S
C601   H625    1.082   .     S
C601   N636    1.367   .     A
C601   C924    1.417   1_545 S
C602   N635    1.367   .     A
C602   H626    1.082   .     S
C602   C761    1.417   .     S
C603   C620    1.405   .     A
C603   Cl645   1.771   .     S
C604   Cl646   1.771   .     S
C604   C619    1.405   .     A
C604   C498    1.394   1_655 S
C605   Cl647   1.771   .     S
C605   C619    1.405   .     A
C605   C495    1.394   1_655 S
C606   Cl648   1.771   .     S
C606   C620    1.405   .     A
C607   H627    1.083   .     S
C607   C611    1.390   .     A
C607   C617    1.404   .     A
C608   H628    1.083   .     S
C608   C612    1.390   .     A
C608   C618    1.404   .     A
C609   C613    1.390   .     A
C609   C618    1.404   .     A
C609   H629    1.083   .     S
C610   C614    1.390   .     A
C610   H630    1.083   .     S
C610   C617    1.404   .     A
C611   H631    1.083   .     S
C611   C615    1.402   .     A
C612   H632    1.083   .     S
C612   C616    1.402   .     A
C613   H633    1.083   .     S
C613   C616    1.402   .     A
C614   H634    1.083   .     S
C614   C615    1.402   .     A
C618   C131    1.470   1_556 S
Cu621  O641    1.956   .     S
Cu621  O639    1.955   .     S
Cu621  O637    1.955   .     S
Cu621  Cu622   2.679   .     S
Cu621  N635    2.013   .     S
Cu621  O643    1.956   .     S
Cu622  O640    1.955   .     S
Cu622  N636    2.013   .     S
Cu622  O642    1.956   .     S
Cu622  O644    1.956   .     S
Cu622  O638    1.955   .     S
C649   O691    1.288   .     A
C649   C674    1.442   .     S
C649   O694    1.288   .     A
C650   O692    1.288   .     A
C650   C673    1.442   .     S
C650   O693    1.288   .     A
C651   O695    1.294   .     A
C651   O698    1.294   .     A
C651   C669    1.460   .     S
C652   C670    1.460   .     S
C652   O697    1.294   .     A
C652   O696    1.294   .     A
C653   H677    1.082   .     S
C653   N690    1.367   .     A
C654   H678    1.082   .     S
C654   N689    1.367   .     A
C654   C817    1.417   .     S
C655   H679    1.082   .     S
C655   N690    1.367   .     A
C656   N689    1.367   .     A
C656   H680    1.082   .     S
C656   C815    1.417   .     S
C657   C674    1.405   .     A
C657   Cl699   1.771   .     S
C657   C767    1.394   1_455 S
C658   Cl700   1.771   .     S
C658   C673    1.405   .     A
C658   C714    1.394   .     S
C659   Cl701   1.771   .     S
C659   C673    1.405   .     A
C659   C711    1.394   .     S
C660   Cl702   1.771   .     S
C660   C674    1.405   .     A
C660   C766    1.394   1_455 S
C661   H681    1.083   .     S
C661   C665    1.390   .     A
C661   C671    1.404   .     A
C662   H682    1.083   .     S
C662   C666    1.390   .     A
C662   C672    1.404   .     A
C663   C667    1.390   .     A
C663   C672    1.404   .     A
C663   H683    1.083   .     S
C664   C668    1.390   .     A
C664   H684    1.083   .     S
C664   C671    1.404   .     A
C665   H685    1.083   .     S
C665   C669    1.402   .     A
C666   H686    1.083   .     S
C666   C670    1.402   .     A
C667   H687    1.083   .     S
C667   C670    1.402   .     A
C668   H688    1.083   .     S
C668   C669    1.402   .     A
C672   C185    1.470   1_556 S
Cu675  O695    1.956   .     S
Cu675  O693    1.955   .     S
Cu675  O691    1.955   .     S
Cu675  Cu676   2.679   .     S
Cu675  N689    2.013   .     S
Cu675  O697    1.956   .     S
Cu676  O694    1.955   .     S
Cu676  N690    2.013   .     S
Cu676  O696    1.956   .     S
Cu676  O698    1.956   .     S
Cu676  O692    1.955   .     S
C703   O745    1.288   .     A
C703   C728    1.442   .     S
C703   O748    1.288   .     A
C704   O746    1.288   .     A
C704   C727    1.442   .     S
C704   O747    1.288   .     A
C705   O749    1.294   .     A
C705   O752    1.294   .     A
C705   C723    1.460   .     S
C706   C724    1.460   .     S
C706   O751    1.294   .     A
C706   O750    1.294   .     A
C707   H731    1.082   .     S
C707   N744    1.367   .     A
C708   H732    1.082   .     S
C708   N743    1.367   .     A
C708   C871    1.417   .     S
C709   H733    1.082   .     S
C709   N744    1.367   .     A
C710   N743    1.367   .     A
C710   H734    1.082   .     S
C710   C869    1.417   .     S
C711   C728    1.405   .     A
C711   Cl753   1.771   .     S
C712   Cl754   1.771   .     S
C712   C727    1.405   .     A
C712   C768    1.394   .     S
C713   Cl755   1.771   .     S
C713   C727    1.405   .     A
C713   C765    1.394   .     S
C714   Cl756   1.771   .     S
C714   C728    1.405   .     A
C715   H735    1.083   .     S
C715   C719    1.390   .     A
C715   C725    1.404   .     A
C716   H736    1.083   .     S
C716   C720    1.390   .     A
C716   C726    1.404   .     A
C717   C721    1.390   .     A
C717   C726    1.404   .     A
C717   H737    1.083   .     S
C718   C722    1.390   .     A
C718   H738    1.083   .     S
C718   C725    1.404   .     A
C719   H739    1.083   .     S
C719   C723    1.402   .     A
C720   H740    1.083   .     S
C720   C724    1.402   .     A
C721   H741    1.083   .     S
C721   C724    1.402   .     A
C722   H742    1.083   .     S
C722   C723    1.402   .     A
C726   C239    1.470   1_556 S
Cu729  O749    1.956   .     S
Cu729  O747    1.955   .     S
Cu729  O745    1.955   .     S
Cu729  Cu730   2.679   .     S
Cu729  N743    2.013   .     S
Cu729  O751    1.956   .     S
Cu730  O748    1.955   .     S
Cu730  N744    2.013   .     S
Cu730  O750    1.956   .     S
Cu730  O752    1.956   .     S
Cu730  O746    1.955   .     S
C757   O799    1.288   .     A
C757   C782    1.442   .     S
C757   O802    1.288   .     A
C758   O800    1.288   .     A
C758   C781    1.442   .     S
C758   O801    1.288   .     A
C759   O803    1.294   .     A
C759   O806    1.294   .     A
C759   C777    1.460   .     S
C760   C778    1.460   .     S
C760   O805    1.294   .     A
C760   O804    1.294   .     A
C761   H785    1.082   .     S
C761   N798    1.367   .     A
C762   H786    1.082   .     S
C762   N797    1.367   .     A
C762   C925    1.417   .     S
C763   H787    1.082   .     S
C763   N798    1.367   .     A
C764   N797    1.367   .     A
C764   H788    1.082   .     S
C764   C923    1.417   .     S
C765   C782    1.405   .     A
C765   Cl807   1.771   .     S
C766   Cl808   1.771   .     S
C766   C781    1.405   .     A
C766   C660    1.394   1_655 S
C767   Cl809   1.771   .     S
C767   C781    1.405   .     A
C767   C657    1.394   1_655 S
C768   Cl810   1.771   .     S
C768   C782    1.405   .     A
C769   H789    1.083   .     S
C769   C773    1.390   .     A
C769   C779    1.404   .     A
C770   H790    1.083   .     S
C770   C774    1.390   .     A
C770   C780    1.404   .     A
C771   C775    1.390   .     A
C771   C780    1.404   .     A
C771   H791    1.083   .     S
C772   C776    1.390   .     A
C772   H792    1.083   .     S
C772   C779    1.404   .     A
C773   H793    1.083   .     S
C773   C777    1.402   .     A
C774   H794    1.083   .     S
C774   C778    1.402   .     A
C775   H795    1.083   .     S
C775   C778    1.402   .     A
C776   H796    1.083   .     S
C776   C777    1.402   .     A
C780   C293    1.470   1_556 S
Cu783  O803    1.956   .     S
Cu783  O801    1.955   .     S
Cu783  O799    1.955   .     S
Cu783  Cu784   2.679   .     S
Cu783  N797    2.013   .     S
Cu783  O805    1.956   .     S
Cu784  O802    1.955   .     S
Cu784  N798    2.013   .     S
Cu784  O804    1.956   .     S
Cu784  O806    1.956   .     S
Cu784  O800    1.955   .     S
C811   O853    1.288   .     A
C811   C836    1.442   .     S
C811   O856    1.288   .     A
C812   O854    1.288   .     A
C812   C835    1.442   .     S
C812   O855    1.288   .     A
C813   O857    1.294   .     A
C813   O860    1.294   .     A
C813   C831    1.460   .     S
C814   C832    1.460   .     S
C814   O859    1.294   .     A
C814   O858    1.294   .     A
C815   H839    1.082   .     S
C815   N852    1.367   .     A
C816   H840    1.082   .     S
C816   N851    1.367   .     A
C816   C493    1.417   1_565 S
C817   H841    1.082   .     S
C817   N852    1.367   .     A
C818   N851    1.367   .     A
C818   H842    1.082   .     S
C818   C491    1.417   1_565 S
C819   C836    1.405   .     A
C819   Cl861   1.771   .     S
C819   C929    1.394   1_455 S
C820   Cl862   1.771   .     S
C820   C835    1.405   .     A
C820   C876    1.394   .     S
C821   Cl863   1.771   .     S
C821   C835    1.405   .     A
C821   C873    1.394   .     S
C822   Cl864   1.771   .     S
C822   C836    1.405   .     A
C822   C928    1.394   1_455 S
C823   H843    1.083   .     S
C823   C827    1.390   .     A
C823   C833    1.404   .     A
C824   H844    1.083   .     S
C824   C828    1.390   .     A
C824   C834    1.404   .     A
C825   C829    1.390   .     A
C825   C834    1.404   .     A
C825   H845    1.083   .     S
C826   C830    1.390   .     A
C826   H846    1.083   .     S
C826   C833    1.404   .     A
C827   H847    1.083   .     S
C827   C831    1.402   .     A
C828   H848    1.083   .     S
C828   C832    1.402   .     A
C829   H849    1.083   .     S
C829   C832    1.402   .     A
C830   H850    1.083   .     S
C830   C831    1.402   .     A
C834   C347    1.470   1_556 S
Cu837  O857    1.956   .     S
Cu837  O855    1.955   .     S
Cu837  O853    1.955   .     S
Cu837  Cu838   2.679   .     S
Cu837  N851    2.013   .     S
Cu837  O859    1.956   .     S
Cu838  O856    1.955   .     S
Cu838  N852    2.013   .     S
Cu838  O858    1.956   .     S
Cu838  O860    1.956   .     S
Cu838  O854    1.955   .     S
C865   O907    1.288   .     A
C865   C890    1.442   .     S
C865   O910    1.288   .     A
C866   O908    1.288   .     A
C866   C889    1.442   .     S
C866   O909    1.288   .     A
C867   O911    1.294   .     A
C867   O914    1.294   .     A
C867   C885    1.460   .     S
C868   C886    1.460   .     S
C868   O913    1.294   .     A
C868   O912    1.294   .     A
C869   H893    1.082   .     S
C869   N906    1.367   .     A
C870   H894    1.082   .     S
C870   N905    1.367   .     A
C870   C547    1.417   1_565 S
C871   H895    1.082   .     S
C871   N906    1.367   .     A
C872   N905    1.367   .     A
C872   H896    1.082   .     S
C872   C545    1.417   1_565 S
C873   C890    1.405   .     A
C873   Cl915   1.771   .     S
C874   Cl916   1.771   .     S
C874   C889    1.405   .     A
C874   C930    1.394   .     S
C875   Cl917   1.771   .     S
C875   C889    1.405   .     A
C875   C927    1.394   .     S
C876   Cl918   1.771   .     S
C876   C890    1.405   .     A
C877   H897    1.083   .     S
C877   C881    1.390   .     A
C877   C887    1.404   .     A
C878   H898    1.083   .     S
C878   C882    1.390   .     A
C878   C888    1.404   .     A
C879   C883    1.390   .     A
C879   C888    1.404   .     A
C879   H899    1.083   .     S
C880   C884    1.390   .     A
C880   H900    1.083   .     S
C880   C887    1.404   .     A
C881   H901    1.083   .     S
C881   C885    1.402   .     A
C882   H902    1.083   .     S
C882   C886    1.402   .     A
C883   H903    1.083   .     S
C883   C886    1.402   .     A
C884   H904    1.083   .     S
C884   C885    1.402   .     A
C888   C401    1.470   1_556 S
Cu891  O911    1.956   .     S
Cu891  O909    1.955   .     S
Cu891  O907    1.955   .     S
Cu891  Cu892   2.679   .     S
Cu891  N905    2.013   .     S
Cu891  O913    1.956   .     S
Cu892  O910    1.955   .     S
Cu892  N906    2.013   .     S
Cu892  O912    1.956   .     S
Cu892  O914    1.956   .     S
Cu892  O908    1.955   .     S
C919   O961    1.288   .     A
C919   C944    1.442   .     S
C919   O964    1.288   .     A
C920   O962    1.288   .     A
C920   C943    1.442   .     S
C920   O963    1.288   .     A
C921   O965    1.294   .     A
C921   O968    1.294   .     A
C921   C939    1.460   .     S
C922   C940    1.460   .     S
C922   O967    1.294   .     A
C922   O966    1.294   .     A
C923   H947    1.082   .     S
C923   N960    1.367   .     A
C924   H948    1.082   .     S
C924   N959    1.367   .     A
C924   C601    1.417   1_565 S
C925   H949    1.082   .     S
C925   N960    1.367   .     A
C926   N959    1.367   .     A
C926   H950    1.082   .     S
C926   C599    1.417   1_565 S
C927   C944    1.405   .     A
C927   Cl969   1.771   .     S
C928   Cl970   1.771   .     S
C928   C943    1.405   .     A
C928   C822    1.394   1_655 S
C929   Cl971   1.771   .     S
C929   C943    1.405   .     A
C929   C819    1.394   1_655 S
C930   Cl972   1.771   .     S
C930   C944    1.405   .     A
C931   H951    1.083   .     S
C931   C935    1.390   .     A
C931   C941    1.404   .     A
C932   H952    1.083   .     S
C932   C936    1.390   .     A
C932   C942    1.404   .     A
C933   C937    1.390   .     A
C933   C942    1.404   .     A
C933   H953    1.083   .     S
C934   C938    1.390   .     A
C934   H954    1.083   .     S
C934   C941    1.404   .     A
C935   H955    1.083   .     S
C935   C939    1.402   .     A
C936   H956    1.083   .     S
C936   C940    1.402   .     A
C937   H957    1.083   .     S
C937   C940    1.402   .     A
C938   H958    1.083   .     S
C938   C939    1.402   .     A
C942   C455    1.470   1_556 S
Cu945  O965    1.956   .     S
Cu945  O963    1.955   .     S
Cu945  O961    1.955   .     S
Cu945  Cu946   2.679   .     S
Cu945  N959    2.013   .     S
Cu945  O967    1.956   .     S
Cu946  O964    1.955   .     S
Cu946  N960    2.013   .     S
Cu946  O966    1.956   .     S
Cu946  O968    1.956   .     S
Cu946  O962    1.955   .     S
