data_str_m2_o2_o10_pcu_sym.22
_audit_creation_date              2020-01-03
_audit_creation_method            'Materials Studio'
_symmetry_space_group_name_H-M    'P1'
_symmetry_Int_Tables_number       1
_symmetry_cell_setting            triclinic
loop_
_symmetry_equiv_pos_as_xyz
  x,y,z
_cell_length_a                    26.1810
_cell_length_b                    30.2334
_cell_length_c                    27.7402
_cell_angle_alpha                 90.4015
_cell_angle_beta                  97.9294
_cell_angle_gamma                 89.7350
loop_
_atom_site_label
_atom_site_type_symbol
_atom_site_fract_x
_atom_site_fract_y
_atom_site_fract_z
_atom_site_U_iso_or_equiv
_atom_site_adp_type
_atom_site_occupancy
C1     C     0.16779   0.16517   0.24995   0.00000  Uiso   1.00
C2     C     0.19416   0.28194   0.44979   0.00000  Uiso   1.00
C3     C     0.16669   0.24997   0.02731   0.00000  Uiso   1.00
C4     C     0.16670   0.24996   0.47261   0.00000  Uiso   1.00
C5     C     0.06790   0.24969   0.23754   0.00000  Uiso   1.00
C6     C     0.26543   0.25003   0.26244   0.00000  Uiso   1.00
C7     C     0.01262   0.24959   0.23065   0.00000  Uiso   1.00
C8     C     0.32069   0.24961   0.26928   0.00000  Uiso   1.00
C9     C     0.12099   0.04925   0.25138   0.00000  Uiso   1.00
C10    C     0.19120   0.45169   0.21632   0.00000  Uiso   1.00
C11    C     0.12239   0.09514   0.25259   0.00000  Uiso   1.00
C12    C     0.16486   0.33511   0.25000   0.00000  Uiso   1.00
C13    C     0.19042   0.40578   0.21740   0.00000  Uiso   1.00
C14    C     0.16854   0.11723   0.24944   0.00000  Uiso   1.00
C15    C     0.16319   0.38360   0.25006   0.00000  Uiso   1.00
C16    C     0.21408   0.09329   0.24520   0.00000  Uiso   1.00
C17    C     0.13535   0.40836   0.28151   0.00000  Uiso   1.00
C18    C     0.21236   0.04711   0.24447   0.00000  Uiso   1.00
C19    C     0.13742   0.45448   0.28061   0.00000  Uiso   1.00
C20    C     0.16601   0.02491   0.24758   0.00000  Uiso   1.00
C21    C     0.16491   0.47632   0.24809   0.00000  Uiso   1.00
C22    C     0.20786   0.26812   0.05945   0.00000  Uiso   1.00
C23    C     0.13928   0.21796   0.44216   0.00000  Uiso   1.00
C24    C     0.20686   0.26817   0.11002   0.00000  Uiso   1.00
C25    C     0.13944   0.21879   0.39147   0.00000  Uiso   1.00
C26    C     0.12650   0.23181   0.09930   0.00000  Uiso   1.00
C27    C     0.19405   0.28107   0.39906   0.00000  Uiso   1.00
C28    C     0.12552   0.23181   0.04845   0.00000  Uiso   1.00
Cu29   Cu    0.16667   0.24999   0.29821   0.00000  Uiso   1.00
Cu30   Cu    0.16667   0.25000   0.20178   0.00000  Uiso   1.00
H31    H     0.32597   0.24972   0.19360   0.00000  Uiso   1.00
H32    H     0.11825   0.19188   0.45712   0.00000  Uiso   1.00
H33    H     0.23863   0.28276   0.13378   0.00000  Uiso   1.00
H34    H     0.11787   0.19414   0.36879   0.00000  Uiso   1.00
H35    H     0.09472   0.21727   0.11459   0.00000  Uiso   1.00
H36    H     0.21569   0.30567   0.38236   0.00000  Uiso   1.00
H37    H     0.09217   0.21810   0.02610   0.00000  Uiso   1.00
H38    H     0.21521   0.30801   0.47062   0.00000  Uiso   1.00
H39    H     0.25607   0.13481   0.16605   0.00000  Uiso   1.00
H40    H     0.03803   0.33215   0.31368   0.00000  Uiso   1.00
H41    H     0.00734   0.24932   0.30634   0.00000  Uiso   1.00
H42    H     0.08464   0.03279   0.25314   0.00000  Uiso   1.00
H43    H     0.21214   0.46795   0.19046   0.00000  Uiso   1.00
H44    H     0.08733   0.11355   0.25559   0.00000  Uiso   1.00
H45    H     0.21166   0.38749   0.19287   0.00000  Uiso   1.00
H46    H     0.24730   0.02831   0.24246   0.00000  Uiso   1.00
H47    H     0.11755   0.47363   0.30547   0.00000  Uiso   1.00
H48    H     0.24122   0.28182   0.04599   0.00000  Uiso   1.00
N49    N     0.16667   0.25001   0.12934   0.00000  Uiso   1.00
N50    N     0.16667   0.24999   0.37065   0.00000  Uiso   1.00
O51    O     0.16667   0.18572   0.29071   0.00000  Uiso   1.00
O52    O     0.31591   0.08695   0.23870   0.00000  Uiso   1.00
O53    O     0.26854   0.15391   0.19435   0.00000  Uiso   1.00
O54    O     0.12805   0.36471   0.36387   0.00000  Uiso   1.00
O55    O     0.05932   0.41780   0.33715   0.00000  Uiso   1.00
O56    O     0.05988   0.34351   0.29010   0.00000  Uiso   1.00
O57    O     0.16666   0.31427   0.20928   0.00000  Uiso   1.00
O58    O     0.16667   0.18573   0.20928   0.00000  Uiso   1.00
O59    O     0.16666   0.31427   0.29072   0.00000  Uiso   1.00
O60    O     0.09161   0.24999   0.28132   0.00000  Uiso   1.00
O61    O     0.24172   0.25000   0.21868   0.00000  Uiso   1.00
O62    O     0.09161   0.25000   0.19988   0.00000  Uiso   1.00
O63    O     0.24172   0.25000   0.30011   0.00000  Uiso   1.00
O64    O     0.28738   0.14708   0.28821   0.00000  Uiso   1.00
S65    S     0.27367   0.12008   0.24263   0.00000  Uiso   1.00
S66    S     0.09516   0.38381   0.32026   0.00000  Uiso   1.00
C67    C     0.50112   0.16517   0.24995   0.00000  Uiso   1.00
C68    C     0.52750   0.28194   0.44979   0.00000  Uiso   1.00
C69    C     0.50002   0.24997   0.02731   0.00000  Uiso   1.00
C70    C     0.50003   0.24996   0.47261   0.00000  Uiso   1.00
C71    C     0.40123   0.24969   0.23754   0.00000  Uiso   1.00
C72    C     0.59876   0.25003   0.26244   0.00000  Uiso   1.00
C73    C     0.34595   0.24959   0.23065   0.00000  Uiso   1.00
C74    C     0.65403   0.24961   0.26928   0.00000  Uiso   1.00
C75    C     0.45432   0.04925   0.25138   0.00000  Uiso   1.00
C76    C     0.52453   0.45169   0.21632   0.00000  Uiso   1.00
C77    C     0.45572   0.09514   0.25259   0.00000  Uiso   1.00
C78    C     0.49819   0.33511   0.25000   0.00000  Uiso   1.00
C79    C     0.52376   0.40578   0.21740   0.00000  Uiso   1.00
C80    C     0.50187   0.11723   0.24944   0.00000  Uiso   1.00
C81    C     0.49652   0.38360   0.25006   0.00000  Uiso   1.00
C82    C     0.54741   0.09329   0.24520   0.00000  Uiso   1.00
C83    C     0.46868   0.40836   0.28151   0.00000  Uiso   1.00
C84    C     0.54569   0.04711   0.24447   0.00000  Uiso   1.00
C85    C     0.47075   0.45448   0.28061   0.00000  Uiso   1.00
C86    C     0.49934   0.02491   0.24758   0.00000  Uiso   1.00
C87    C     0.49824   0.47632   0.24809   0.00000  Uiso   1.00
C88    C     0.54120   0.26812   0.05945   0.00000  Uiso   1.00
C89    C     0.47261   0.21796   0.44216   0.00000  Uiso   1.00
C90    C     0.54019   0.26817   0.11002   0.00000  Uiso   1.00
C91    C     0.47278   0.21879   0.39147   0.00000  Uiso   1.00
C92    C     0.45983   0.23181   0.09930   0.00000  Uiso   1.00
C93    C     0.52739   0.28107   0.39906   0.00000  Uiso   1.00
C94    C     0.45885   0.23181   0.04845   0.00000  Uiso   1.00
Cu95   Cu    0.50000   0.24999   0.29821   0.00000  Uiso   1.00
Cu96   Cu    0.50000   0.25000   0.20178   0.00000  Uiso   1.00
H97    H     0.65930   0.24972   0.19360   0.00000  Uiso   1.00
H98    H     0.45158   0.19188   0.45712   0.00000  Uiso   1.00
H99    H     0.57196   0.28276   0.13378   0.00000  Uiso   1.00
H100   H     0.45120   0.19414   0.36879   0.00000  Uiso   1.00
H101   H     0.42805   0.21727   0.11459   0.00000  Uiso   1.00
H102   H     0.54902   0.30567   0.38236   0.00000  Uiso   1.00
H103   H     0.42550   0.21810   0.02610   0.00000  Uiso   1.00
H104   H     0.54854   0.30801   0.47062   0.00000  Uiso   1.00
H105   H     0.58940   0.13481   0.16605   0.00000  Uiso   1.00
H106   H     0.37137   0.33215   0.31368   0.00000  Uiso   1.00
H107   H     0.34068   0.24932   0.30634   0.00000  Uiso   1.00
H108   H     0.41798   0.03279   0.25314   0.00000  Uiso   1.00
H109   H     0.54548   0.46795   0.19046   0.00000  Uiso   1.00
H110   H     0.42067   0.11355   0.25559   0.00000  Uiso   1.00
H111   H     0.54500   0.38749   0.19287   0.00000  Uiso   1.00
H112   H     0.58064   0.02831   0.24246   0.00000  Uiso   1.00
H113   H     0.45088   0.47363   0.30547   0.00000  Uiso   1.00
H114   H     0.57456   0.28182   0.04599   0.00000  Uiso   1.00
N115   N     0.50000   0.25001   0.12934   0.00000  Uiso   1.00
N116   N     0.50000   0.24999   0.37065   0.00000  Uiso   1.00
O117   O     0.50000   0.18572   0.29071   0.00000  Uiso   1.00
O118   O     0.64924   0.08695   0.23870   0.00000  Uiso   1.00
O119   O     0.60187   0.15391   0.19435   0.00000  Uiso   1.00
O120   O     0.46138   0.36471   0.36387   0.00000  Uiso   1.00
O121   O     0.39266   0.41780   0.33715   0.00000  Uiso   1.00
O122   O     0.39322   0.34351   0.29010   0.00000  Uiso   1.00
O123   O     0.50000   0.31427   0.20928   0.00000  Uiso   1.00
O124   O     0.50000   0.18573   0.20928   0.00000  Uiso   1.00
O125   O     0.50000   0.31427   0.29072   0.00000  Uiso   1.00
O126   O     0.42495   0.24999   0.28132   0.00000  Uiso   1.00
O127   O     0.57505   0.25000   0.21868   0.00000  Uiso   1.00
O128   O     0.42495   0.25000   0.19988   0.00000  Uiso   1.00
O129   O     0.57505   0.25000   0.30011   0.00000  Uiso   1.00
O130   O     0.62071   0.14708   0.28821   0.00000  Uiso   1.00
S131   S     0.60700   0.12008   0.24263   0.00000  Uiso   1.00
S132   S     0.42849   0.38381   0.32026   0.00000  Uiso   1.00
C133   C     0.83446   0.16517   0.24995   0.00000  Uiso   1.00
C134   C     0.86083   0.28194   0.44979   0.00000  Uiso   1.00
C135   C     0.83336   0.24997   0.02731   0.00000  Uiso   1.00
C136   C     0.83336   0.24996   0.47261   0.00000  Uiso   1.00
C137   C     0.73456   0.24969   0.23754   0.00000  Uiso   1.00
C138   C     0.93210   0.25003   0.26244   0.00000  Uiso   1.00
C139   C     0.67929   0.24959   0.23065   0.00000  Uiso   1.00
C140   C     0.98736   0.24961   0.26928   0.00000  Uiso   1.00
C141   C     0.78765   0.04925   0.25138   0.00000  Uiso   1.00
C142   C     0.85786   0.45169   0.21632   0.00000  Uiso   1.00
C143   C     0.78905   0.09514   0.25259   0.00000  Uiso   1.00
C144   C     0.83152   0.33511   0.25000   0.00000  Uiso   1.00
C145   C     0.85709   0.40578   0.21740   0.00000  Uiso   1.00
C146   C     0.83520   0.11723   0.24944   0.00000  Uiso   1.00
C147   C     0.82985   0.38360   0.25006   0.00000  Uiso   1.00
C148   C     0.88075   0.09329   0.24520   0.00000  Uiso   1.00
C149   C     0.80202   0.40836   0.28151   0.00000  Uiso   1.00
C150   C     0.87902   0.04711   0.24447   0.00000  Uiso   1.00
C151   C     0.80408   0.45448   0.28061   0.00000  Uiso   1.00
C152   C     0.83268   0.02491   0.24758   0.00000  Uiso   1.00
C153   C     0.83158   0.47632   0.24809   0.00000  Uiso   1.00
C154   C     0.87453   0.26812   0.05945   0.00000  Uiso   1.00
C155   C     0.80594   0.21796   0.44216   0.00000  Uiso   1.00
C156   C     0.87353   0.26817   0.11002   0.00000  Uiso   1.00
C157   C     0.80611   0.21879   0.39147   0.00000  Uiso   1.00
C158   C     0.79317   0.23181   0.09930   0.00000  Uiso   1.00
C159   C     0.86072   0.28107   0.39906   0.00000  Uiso   1.00
C160   C     0.79218   0.23181   0.04845   0.00000  Uiso   1.00
Cu161  Cu    0.83333   0.24999   0.29821   0.00000  Uiso   1.00
Cu162  Cu    0.83333   0.25000   0.20178   0.00000  Uiso   1.00
H163   H     0.99264   0.24972   0.19360   0.00000  Uiso   1.00
H164   H     0.78491   0.19188   0.45712   0.00000  Uiso   1.00
H165   H     0.90530   0.28276   0.13378   0.00000  Uiso   1.00
H166   H     0.78453   0.19414   0.36879   0.00000  Uiso   1.00
H167   H     0.76139   0.21727   0.11459   0.00000  Uiso   1.00
H168   H     0.88236   0.30567   0.38236   0.00000  Uiso   1.00
H169   H     0.75883   0.21810   0.02610   0.00000  Uiso   1.00
H170   H     0.88187   0.30801   0.47062   0.00000  Uiso   1.00
H171   H     0.92274   0.13481   0.16605   0.00000  Uiso   1.00
H172   H     0.70470   0.33215   0.31368   0.00000  Uiso   1.00
H173   H     0.67401   0.24932   0.30634   0.00000  Uiso   1.00
H174   H     0.75131   0.03279   0.25314   0.00000  Uiso   1.00
H175   H     0.87881   0.46795   0.19046   0.00000  Uiso   1.00
H176   H     0.75400   0.11355   0.25559   0.00000  Uiso   1.00
H177   H     0.87833   0.38749   0.19287   0.00000  Uiso   1.00
H178   H     0.91397   0.02831   0.24246   0.00000  Uiso   1.00
H179   H     0.78421   0.47363   0.30547   0.00000  Uiso   1.00
H180   H     0.90789   0.28182   0.04599   0.00000  Uiso   1.00
N181   N     0.83333   0.25001   0.12934   0.00000  Uiso   1.00
N182   N     0.83333   0.24999   0.37065   0.00000  Uiso   1.00
O183   O     0.83334   0.18572   0.29071   0.00000  Uiso   1.00
O184   O     0.98258   0.08695   0.23870   0.00000  Uiso   1.00
O185   O     0.93520   0.15391   0.19435   0.00000  Uiso   1.00
O186   O     0.79472   0.36471   0.36387   0.00000  Uiso   1.00
O187   O     0.72599   0.41780   0.33715   0.00000  Uiso   1.00
O188   O     0.72655   0.34351   0.29010   0.00000  Uiso   1.00
O189   O     0.83333   0.31427   0.20928   0.00000  Uiso   1.00
O190   O     0.83334   0.18573   0.20928   0.00000  Uiso   1.00
O191   O     0.83333   0.31427   0.29072   0.00000  Uiso   1.00
O192   O     0.75828   0.24999   0.28132   0.00000  Uiso   1.00
O193   O     0.90839   0.25000   0.21868   0.00000  Uiso   1.00
O194   O     0.75828   0.25000   0.19988   0.00000  Uiso   1.00
O195   O     0.90839   0.25000   0.30011   0.00000  Uiso   1.00
O196   O     0.95404   0.14708   0.28821   0.00000  Uiso   1.00
S197   S     0.94034   0.12008   0.24263   0.00000  Uiso   1.00
S198   S     0.76183   0.38381   0.32026   0.00000  Uiso   1.00
C199   C     0.16779   0.66517   0.24995   0.00000  Uiso   1.00
C200   C     0.19416   0.78194   0.44979   0.00000  Uiso   1.00
C201   C     0.16669   0.74997   0.02731   0.00000  Uiso   1.00
C202   C     0.16670   0.74996   0.47261   0.00000  Uiso   1.00
C203   C     0.06790   0.74969   0.23754   0.00000  Uiso   1.00
C204   C     0.26543   0.75003   0.26244   0.00000  Uiso   1.00
C205   C     0.01262   0.74959   0.23065   0.00000  Uiso   1.00
C206   C     0.32069   0.74961   0.26928   0.00000  Uiso   1.00
C207   C     0.12099   0.54925   0.25138   0.00000  Uiso   1.00
C208   C     0.19120   0.95169   0.21632   0.00000  Uiso   1.00
C209   C     0.12239   0.59514   0.25259   0.00000  Uiso   1.00
C210   C     0.16486   0.83511   0.25000   0.00000  Uiso   1.00
C211   C     0.19042   0.90578   0.21740   0.00000  Uiso   1.00
C212   C     0.16854   0.61723   0.24944   0.00000  Uiso   1.00
C213   C     0.16319   0.88360   0.25006   0.00000  Uiso   1.00
C214   C     0.21408   0.59329   0.24520   0.00000  Uiso   1.00
C215   C     0.13535   0.90836   0.28151   0.00000  Uiso   1.00
C216   C     0.21236   0.54711   0.24447   0.00000  Uiso   1.00
C217   C     0.13742   0.95448   0.28061   0.00000  Uiso   1.00
C218   C     0.16601   0.52491   0.24758   0.00000  Uiso   1.00
C219   C     0.16491   0.97632   0.24809   0.00000  Uiso   1.00
C220   C     0.20786   0.76812   0.05945   0.00000  Uiso   1.00
C221   C     0.13928   0.71796   0.44216   0.00000  Uiso   1.00
C222   C     0.20686   0.76817   0.11002   0.00000  Uiso   1.00
C223   C     0.13944   0.71879   0.39147   0.00000  Uiso   1.00
C224   C     0.12650   0.73181   0.09930   0.00000  Uiso   1.00
C225   C     0.19405   0.78107   0.39906   0.00000  Uiso   1.00
C226   C     0.12552   0.73181   0.04845   0.00000  Uiso   1.00
Cu227  Cu    0.16667   0.74999   0.29821   0.00000  Uiso   1.00
Cu228  Cu    0.16667   0.75000   0.20178   0.00000  Uiso   1.00
H229   H     0.32597   0.74972   0.19360   0.00000  Uiso   1.00
H230   H     0.11825   0.69188   0.45712   0.00000  Uiso   1.00
H231   H     0.23863   0.78276   0.13378   0.00000  Uiso   1.00
H232   H     0.11787   0.69414   0.36879   0.00000  Uiso   1.00
H233   H     0.09472   0.71727   0.11459   0.00000  Uiso   1.00
H234   H     0.21569   0.80567   0.38236   0.00000  Uiso   1.00
H235   H     0.09217   0.71810   0.02610   0.00000  Uiso   1.00
H236   H     0.21521   0.80801   0.47062   0.00000  Uiso   1.00
H237   H     0.25607   0.63481   0.16605   0.00000  Uiso   1.00
H238   H     0.03803   0.83215   0.31368   0.00000  Uiso   1.00
H239   H     0.00734   0.74932   0.30634   0.00000  Uiso   1.00
H240   H     0.08464   0.53279   0.25314   0.00000  Uiso   1.00
H241   H     0.21214   0.96795   0.19046   0.00000  Uiso   1.00
H242   H     0.08733   0.61355   0.25559   0.00000  Uiso   1.00
H243   H     0.21166   0.88749   0.19287   0.00000  Uiso   1.00
H244   H     0.24730   0.52831   0.24246   0.00000  Uiso   1.00
H245   H     0.11755   0.97363   0.30547   0.00000  Uiso   1.00
H246   H     0.24122   0.78182   0.04599   0.00000  Uiso   1.00
N247   N     0.16667   0.75001   0.12934   0.00000  Uiso   1.00
N248   N     0.16667   0.74999   0.37065   0.00000  Uiso   1.00
O249   O     0.16667   0.68572   0.29071   0.00000  Uiso   1.00
O250   O     0.31591   0.58695   0.23870   0.00000  Uiso   1.00
O251   O     0.26854   0.65391   0.19435   0.00000  Uiso   1.00
O252   O     0.12805   0.86471   0.36387   0.00000  Uiso   1.00
O253   O     0.05932   0.91780   0.33715   0.00000  Uiso   1.00
O254   O     0.05988   0.84351   0.29010   0.00000  Uiso   1.00
O255   O     0.16666   0.81427   0.20928   0.00000  Uiso   1.00
O256   O     0.16667   0.68573   0.20928   0.00000  Uiso   1.00
O257   O     0.16666   0.81427   0.29072   0.00000  Uiso   1.00
O258   O     0.09161   0.74999   0.28132   0.00000  Uiso   1.00
O259   O     0.24172   0.75000   0.21868   0.00000  Uiso   1.00
O260   O     0.09161   0.75000   0.19988   0.00000  Uiso   1.00
O261   O     0.24172   0.75000   0.30011   0.00000  Uiso   1.00
O262   O     0.28738   0.64708   0.28821   0.00000  Uiso   1.00
S263   S     0.27367   0.62008   0.24263   0.00000  Uiso   1.00
S264   S     0.09516   0.88381   0.32026   0.00000  Uiso   1.00
C265   C     0.50112   0.66517   0.24995   0.00000  Uiso   1.00
C266   C     0.52750   0.78194   0.44979   0.00000  Uiso   1.00
C267   C     0.50002   0.74997   0.02731   0.00000  Uiso   1.00
C268   C     0.50003   0.74996   0.47261   0.00000  Uiso   1.00
C269   C     0.40123   0.74969   0.23754   0.00000  Uiso   1.00
C270   C     0.59876   0.75003   0.26244   0.00000  Uiso   1.00
C271   C     0.34595   0.74959   0.23065   0.00000  Uiso   1.00
C272   C     0.65403   0.74961   0.26928   0.00000  Uiso   1.00
C273   C     0.45432   0.54925   0.25138   0.00000  Uiso   1.00
C274   C     0.52453   0.95169   0.21632   0.00000  Uiso   1.00
C275   C     0.45572   0.59514   0.25259   0.00000  Uiso   1.00
C276   C     0.49819   0.83511   0.25000   0.00000  Uiso   1.00
C277   C     0.52376   0.90578   0.21740   0.00000  Uiso   1.00
C278   C     0.50187   0.61723   0.24944   0.00000  Uiso   1.00
C279   C     0.49652   0.88360   0.25006   0.00000  Uiso   1.00
C280   C     0.54741   0.59329   0.24520   0.00000  Uiso   1.00
C281   C     0.46868   0.90836   0.28151   0.00000  Uiso   1.00
C282   C     0.54569   0.54711   0.24447   0.00000  Uiso   1.00
C283   C     0.47075   0.95448   0.28061   0.00000  Uiso   1.00
C284   C     0.49934   0.52491   0.24758   0.00000  Uiso   1.00
C285   C     0.49824   0.97632   0.24809   0.00000  Uiso   1.00
C286   C     0.54120   0.76812   0.05945   0.00000  Uiso   1.00
C287   C     0.47261   0.71796   0.44216   0.00000  Uiso   1.00
C288   C     0.54019   0.76817   0.11002   0.00000  Uiso   1.00
C289   C     0.47278   0.71879   0.39147   0.00000  Uiso   1.00
C290   C     0.45983   0.73181   0.09930   0.00000  Uiso   1.00
C291   C     0.52739   0.78107   0.39906   0.00000  Uiso   1.00
C292   C     0.45885   0.73181   0.04845   0.00000  Uiso   1.00
Cu293  Cu    0.50000   0.74999   0.29821   0.00000  Uiso   1.00
Cu294  Cu    0.50000   0.75000   0.20178   0.00000  Uiso   1.00
H295   H     0.65930   0.74972   0.19360   0.00000  Uiso   1.00
H296   H     0.45158   0.69188   0.45712   0.00000  Uiso   1.00
H297   H     0.57196   0.78276   0.13378   0.00000  Uiso   1.00
H298   H     0.45120   0.69414   0.36879   0.00000  Uiso   1.00
H299   H     0.42805   0.71727   0.11459   0.00000  Uiso   1.00
H300   H     0.54902   0.80567   0.38236   0.00000  Uiso   1.00
H301   H     0.42550   0.71810   0.02610   0.00000  Uiso   1.00
H302   H     0.54854   0.80801   0.47062   0.00000  Uiso   1.00
H303   H     0.58940   0.63481   0.16605   0.00000  Uiso   1.00
H304   H     0.37137   0.83215   0.31368   0.00000  Uiso   1.00
H305   H     0.34068   0.74932   0.30634   0.00000  Uiso   1.00
H306   H     0.41798   0.53279   0.25314   0.00000  Uiso   1.00
H307   H     0.54548   0.96795   0.19046   0.00000  Uiso   1.00
H308   H     0.42067   0.61355   0.25559   0.00000  Uiso   1.00
H309   H     0.54500   0.88749   0.19287   0.00000  Uiso   1.00
H310   H     0.58064   0.52831   0.24246   0.00000  Uiso   1.00
H311   H     0.45088   0.97363   0.30547   0.00000  Uiso   1.00
H312   H     0.57456   0.78182   0.04599   0.00000  Uiso   1.00
N313   N     0.50000   0.75001   0.12934   0.00000  Uiso   1.00
N314   N     0.50000   0.74999   0.37065   0.00000  Uiso   1.00
O315   O     0.50000   0.68572   0.29071   0.00000  Uiso   1.00
O316   O     0.64924   0.58695   0.23870   0.00000  Uiso   1.00
O317   O     0.60187   0.65391   0.19435   0.00000  Uiso   1.00
O318   O     0.46138   0.86471   0.36387   0.00000  Uiso   1.00
O319   O     0.39266   0.91780   0.33715   0.00000  Uiso   1.00
O320   O     0.39322   0.84351   0.29010   0.00000  Uiso   1.00
O321   O     0.50000   0.81427   0.20928   0.00000  Uiso   1.00
O322   O     0.50000   0.68573   0.20928   0.00000  Uiso   1.00
O323   O     0.50000   0.81427   0.29072   0.00000  Uiso   1.00
O324   O     0.42495   0.74999   0.28132   0.00000  Uiso   1.00
O325   O     0.57505   0.75000   0.21868   0.00000  Uiso   1.00
O326   O     0.42495   0.75000   0.19988   0.00000  Uiso   1.00
O327   O     0.57505   0.75000   0.30011   0.00000  Uiso   1.00
O328   O     0.62071   0.64708   0.28821   0.00000  Uiso   1.00
S329   S     0.60700   0.62008   0.24263   0.00000  Uiso   1.00
S330   S     0.42849   0.88381   0.32026   0.00000  Uiso   1.00
C331   C     0.83446   0.66517   0.24995   0.00000  Uiso   1.00
C332   C     0.86083   0.78194   0.44979   0.00000  Uiso   1.00
C333   C     0.83336   0.74997   0.02731   0.00000  Uiso   1.00
C334   C     0.83336   0.74996   0.47261   0.00000  Uiso   1.00
C335   C     0.73456   0.74969   0.23754   0.00000  Uiso   1.00
C336   C     0.93210   0.75003   0.26244   0.00000  Uiso   1.00
C337   C     0.67929   0.74959   0.23065   0.00000  Uiso   1.00
C338   C     0.98736   0.74961   0.26928   0.00000  Uiso   1.00
C339   C     0.78765   0.54925   0.25138   0.00000  Uiso   1.00
C340   C     0.85786   0.95169   0.21632   0.00000  Uiso   1.00
C341   C     0.78905   0.59514   0.25259   0.00000  Uiso   1.00
C342   C     0.83152   0.83511   0.25000   0.00000  Uiso   1.00
C343   C     0.85709   0.90578   0.21740   0.00000  Uiso   1.00
C344   C     0.83520   0.61723   0.24944   0.00000  Uiso   1.00
C345   C     0.82985   0.88360   0.25006   0.00000  Uiso   1.00
C346   C     0.88075   0.59329   0.24520   0.00000  Uiso   1.00
C347   C     0.80202   0.90836   0.28151   0.00000  Uiso   1.00
C348   C     0.87902   0.54711   0.24447   0.00000  Uiso   1.00
C349   C     0.80408   0.95448   0.28061   0.00000  Uiso   1.00
C350   C     0.83268   0.52491   0.24758   0.00000  Uiso   1.00
C351   C     0.83158   0.97632   0.24809   0.00000  Uiso   1.00
C352   C     0.87453   0.76812   0.05945   0.00000  Uiso   1.00
C353   C     0.80594   0.71796   0.44216   0.00000  Uiso   1.00
C354   C     0.87353   0.76817   0.11002   0.00000  Uiso   1.00
C355   C     0.80611   0.71879   0.39147   0.00000  Uiso   1.00
C356   C     0.79317   0.73181   0.09930   0.00000  Uiso   1.00
C357   C     0.86072   0.78107   0.39906   0.00000  Uiso   1.00
C358   C     0.79218   0.73181   0.04845   0.00000  Uiso   1.00
Cu359  Cu    0.83333   0.74999   0.29821   0.00000  Uiso   1.00
Cu360  Cu    0.83333   0.75000   0.20178   0.00000  Uiso   1.00
H361   H     0.99264   0.74972   0.19360   0.00000  Uiso   1.00
H362   H     0.78491   0.69188   0.45712   0.00000  Uiso   1.00
H363   H     0.90530   0.78276   0.13378   0.00000  Uiso   1.00
H364   H     0.78453   0.69414   0.36879   0.00000  Uiso   1.00
H365   H     0.76139   0.71727   0.11459   0.00000  Uiso   1.00
H366   H     0.88236   0.80567   0.38236   0.00000  Uiso   1.00
H367   H     0.75883   0.71810   0.02610   0.00000  Uiso   1.00
H368   H     0.88187   0.80801   0.47062   0.00000  Uiso   1.00
H369   H     0.92274   0.63481   0.16605   0.00000  Uiso   1.00
H370   H     0.70470   0.83215   0.31368   0.00000  Uiso   1.00
H371   H     0.67401   0.74932   0.30634   0.00000  Uiso   1.00
H372   H     0.75131   0.53279   0.25314   0.00000  Uiso   1.00
H373   H     0.87881   0.96795   0.19046   0.00000  Uiso   1.00
H374   H     0.75400   0.61355   0.25559   0.00000  Uiso   1.00
H375   H     0.87833   0.88749   0.19287   0.00000  Uiso   1.00
H376   H     0.91397   0.52831   0.24246   0.00000  Uiso   1.00
H377   H     0.78421   0.97363   0.30547   0.00000  Uiso   1.00
H378   H     0.90789   0.78182   0.04599   0.00000  Uiso   1.00
N379   N     0.83333   0.75001   0.12934   0.00000  Uiso   1.00
N380   N     0.83333   0.74999   0.37065   0.00000  Uiso   1.00
O381   O     0.83334   0.68572   0.29071   0.00000  Uiso   1.00
O382   O     0.98258   0.58695   0.23870   0.00000  Uiso   1.00
O383   O     0.93520   0.65391   0.19435   0.00000  Uiso   1.00
O384   O     0.79472   0.86471   0.36387   0.00000  Uiso   1.00
O385   O     0.72599   0.91780   0.33715   0.00000  Uiso   1.00
O386   O     0.72655   0.84351   0.29010   0.00000  Uiso   1.00
O387   O     0.83333   0.81427   0.20928   0.00000  Uiso   1.00
O388   O     0.83334   0.68573   0.20928   0.00000  Uiso   1.00
O389   O     0.83333   0.81427   0.29072   0.00000  Uiso   1.00
O390   O     0.75828   0.74999   0.28132   0.00000  Uiso   1.00
O391   O     0.90839   0.75000   0.21868   0.00000  Uiso   1.00
O392   O     0.75828   0.75000   0.19988   0.00000  Uiso   1.00
O393   O     0.90839   0.75000   0.30011   0.00000  Uiso   1.00
O394   O     0.95404   0.64708   0.28821   0.00000  Uiso   1.00
S395   S     0.94034   0.62008   0.24263   0.00000  Uiso   1.00
S396   S     0.76183   0.88381   0.32026   0.00000  Uiso   1.00
C397   C     0.16779   0.16517   0.74995   0.00000  Uiso   1.00
C398   C     0.19416   0.28194   0.94979   0.00000  Uiso   1.00
C399   C     0.16669   0.24997   0.52731   0.00000  Uiso   1.00
C400   C     0.16670   0.24996   0.97261   0.00000  Uiso   1.00
C401   C     0.06790   0.24969   0.73754   0.00000  Uiso   1.00
C402   C     0.26543   0.25003   0.76244   0.00000  Uiso   1.00
C403   C     0.01262   0.24959   0.73065   0.00000  Uiso   1.00
C404   C     0.32069   0.24961   0.76928   0.00000  Uiso   1.00
C405   C     0.12099   0.04925   0.75138   0.00000  Uiso   1.00
C406   C     0.19120   0.45169   0.71632   0.00000  Uiso   1.00
C407   C     0.12239   0.09514   0.75259   0.00000  Uiso   1.00
C408   C     0.16486   0.33511   0.75000   0.00000  Uiso   1.00
C409   C     0.19042   0.40578   0.71740   0.00000  Uiso   1.00
C410   C     0.16854   0.11723   0.74944   0.00000  Uiso   1.00
C411   C     0.16319   0.38360   0.75006   0.00000  Uiso   1.00
C412   C     0.21408   0.09329   0.74520   0.00000  Uiso   1.00
C413   C     0.13535   0.40836   0.78151   0.00000  Uiso   1.00
C414   C     0.21236   0.04711   0.74447   0.00000  Uiso   1.00
C415   C     0.13742   0.45448   0.78061   0.00000  Uiso   1.00
C416   C     0.16601   0.02491   0.74758   0.00000  Uiso   1.00
C417   C     0.16491   0.47632   0.74809   0.00000  Uiso   1.00
C418   C     0.20786   0.26812   0.55945   0.00000  Uiso   1.00
C419   C     0.13928   0.21796   0.94216   0.00000  Uiso   1.00
C420   C     0.20686   0.26817   0.61002   0.00000  Uiso   1.00
C421   C     0.13944   0.21879   0.89147   0.00000  Uiso   1.00
C422   C     0.12650   0.23181   0.59930   0.00000  Uiso   1.00
C423   C     0.19405   0.28107   0.89906   0.00000  Uiso   1.00
C424   C     0.12552   0.23181   0.54845   0.00000  Uiso   1.00
Cu425  Cu    0.16667   0.24999   0.79821   0.00000  Uiso   1.00
Cu426  Cu    0.16667   0.25000   0.70178   0.00000  Uiso   1.00
H427   H     0.32597   0.24972   0.69360   0.00000  Uiso   1.00
H428   H     0.11825   0.19188   0.95712   0.00000  Uiso   1.00
H429   H     0.23863   0.28276   0.63378   0.00000  Uiso   1.00
H430   H     0.11787   0.19414   0.86879   0.00000  Uiso   1.00
H431   H     0.09472   0.21727   0.61459   0.00000  Uiso   1.00
H432   H     0.21569   0.30567   0.88236   0.00000  Uiso   1.00
H433   H     0.09217   0.21810   0.52610   0.00000  Uiso   1.00
H434   H     0.21521   0.30801   0.97062   0.00000  Uiso   1.00
H435   H     0.25607   0.13481   0.66605   0.00000  Uiso   1.00
H436   H     0.03803   0.33215   0.81368   0.00000  Uiso   1.00
H437   H     0.00734   0.24932   0.80634   0.00000  Uiso   1.00
H438   H     0.08464   0.03279   0.75314   0.00000  Uiso   1.00
H439   H     0.21214   0.46795   0.69046   0.00000  Uiso   1.00
H440   H     0.08733   0.11355   0.75559   0.00000  Uiso   1.00
H441   H     0.21166   0.38749   0.69287   0.00000  Uiso   1.00
H442   H     0.24730   0.02831   0.74246   0.00000  Uiso   1.00
H443   H     0.11755   0.47363   0.80547   0.00000  Uiso   1.00
H444   H     0.24122   0.28182   0.54599   0.00000  Uiso   1.00
N445   N     0.16667   0.25001   0.62934   0.00000  Uiso   1.00
N446   N     0.16667   0.24999   0.87065   0.00000  Uiso   1.00
O447   O     0.16667   0.18572   0.79071   0.00000  Uiso   1.00
O448   O     0.31591   0.08695   0.73870   0.00000  Uiso   1.00
O449   O     0.26854   0.15391   0.69435   0.00000  Uiso   1.00
O450   O     0.12805   0.36471   0.86387   0.00000  Uiso   1.00
O451   O     0.05932   0.41780   0.83715   0.00000  Uiso   1.00
O452   O     0.05988   0.34351   0.79010   0.00000  Uiso   1.00
O453   O     0.16666   0.31427   0.70928   0.00000  Uiso   1.00
O454   O     0.16667   0.18573   0.70928   0.00000  Uiso   1.00
O455   O     0.16666   0.31427   0.79072   0.00000  Uiso   1.00
O456   O     0.09161   0.24999   0.78132   0.00000  Uiso   1.00
O457   O     0.24172   0.25000   0.71868   0.00000  Uiso   1.00
O458   O     0.09161   0.25000   0.69988   0.00000  Uiso   1.00
O459   O     0.24172   0.25000   0.80011   0.00000  Uiso   1.00
O460   O     0.28738   0.14708   0.78821   0.00000  Uiso   1.00
S461   S     0.27367   0.12008   0.74263   0.00000  Uiso   1.00
S462   S     0.09516   0.38381   0.82026   0.00000  Uiso   1.00
C463   C     0.50112   0.16517   0.74995   0.00000  Uiso   1.00
C464   C     0.52750   0.28194   0.94979   0.00000  Uiso   1.00
C465   C     0.50002   0.24997   0.52731   0.00000  Uiso   1.00
C466   C     0.50003   0.24996   0.97261   0.00000  Uiso   1.00
C467   C     0.40123   0.24969   0.73754   0.00000  Uiso   1.00
C468   C     0.59876   0.25003   0.76244   0.00000  Uiso   1.00
C469   C     0.34595   0.24959   0.73065   0.00000  Uiso   1.00
C470   C     0.65403   0.24961   0.76928   0.00000  Uiso   1.00
C471   C     0.45432   0.04925   0.75138   0.00000  Uiso   1.00
C472   C     0.52453   0.45169   0.71632   0.00000  Uiso   1.00
C473   C     0.45572   0.09514   0.75259   0.00000  Uiso   1.00
C474   C     0.49819   0.33511   0.75000   0.00000  Uiso   1.00
C475   C     0.52376   0.40578   0.71740   0.00000  Uiso   1.00
C476   C     0.50187   0.11723   0.74944   0.00000  Uiso   1.00
C477   C     0.49652   0.38360   0.75006   0.00000  Uiso   1.00
C478   C     0.54741   0.09329   0.74520   0.00000  Uiso   1.00
C479   C     0.46868   0.40836   0.78151   0.00000  Uiso   1.00
C480   C     0.54569   0.04711   0.74447   0.00000  Uiso   1.00
C481   C     0.47075   0.45448   0.78061   0.00000  Uiso   1.00
C482   C     0.49934   0.02491   0.74758   0.00000  Uiso   1.00
C483   C     0.49824   0.47632   0.74809   0.00000  Uiso   1.00
C484   C     0.54120   0.26812   0.55945   0.00000  Uiso   1.00
C485   C     0.47261   0.21796   0.94216   0.00000  Uiso   1.00
C486   C     0.54019   0.26817   0.61002   0.00000  Uiso   1.00
C487   C     0.47278   0.21879   0.89147   0.00000  Uiso   1.00
C488   C     0.45983   0.23181   0.59930   0.00000  Uiso   1.00
C489   C     0.52739   0.28107   0.89906   0.00000  Uiso   1.00
C490   C     0.45885   0.23181   0.54845   0.00000  Uiso   1.00
Cu491  Cu    0.50000   0.24999   0.79821   0.00000  Uiso   1.00
Cu492  Cu    0.50000   0.25000   0.70178   0.00000  Uiso   1.00
H493   H     0.65930   0.24972   0.69360   0.00000  Uiso   1.00
H494   H     0.45158   0.19188   0.95712   0.00000  Uiso   1.00
H495   H     0.57196   0.28276   0.63378   0.00000  Uiso   1.00
H496   H     0.45120   0.19414   0.86879   0.00000  Uiso   1.00
H497   H     0.42805   0.21727   0.61459   0.00000  Uiso   1.00
H498   H     0.54902   0.30567   0.88236   0.00000  Uiso   1.00
H499   H     0.42550   0.21810   0.52610   0.00000  Uiso   1.00
H500   H     0.54854   0.30801   0.97062   0.00000  Uiso   1.00
H501   H     0.58940   0.13481   0.66605   0.00000  Uiso   1.00
H502   H     0.37137   0.33215   0.81368   0.00000  Uiso   1.00
H503   H     0.34068   0.24932   0.80634   0.00000  Uiso   1.00
H504   H     0.41798   0.03279   0.75314   0.00000  Uiso   1.00
H505   H     0.54548   0.46795   0.69046   0.00000  Uiso   1.00
H506   H     0.42067   0.11355   0.75559   0.00000  Uiso   1.00
H507   H     0.54500   0.38749   0.69287   0.00000  Uiso   1.00
H508   H     0.58064   0.02831   0.74246   0.00000  Uiso   1.00
H509   H     0.45088   0.47363   0.80547   0.00000  Uiso   1.00
H510   H     0.57456   0.28182   0.54599   0.00000  Uiso   1.00
N511   N     0.50000   0.25001   0.62934   0.00000  Uiso   1.00
N512   N     0.50000   0.24999   0.87065   0.00000  Uiso   1.00
O513   O     0.50000   0.18572   0.79071   0.00000  Uiso   1.00
O514   O     0.64924   0.08695   0.73870   0.00000  Uiso   1.00
O515   O     0.60187   0.15391   0.69435   0.00000  Uiso   1.00
O516   O     0.46138   0.36471   0.86387   0.00000  Uiso   1.00
O517   O     0.39266   0.41780   0.83715   0.00000  Uiso   1.00
O518   O     0.39322   0.34351   0.79010   0.00000  Uiso   1.00
O519   O     0.50000   0.31427   0.70928   0.00000  Uiso   1.00
O520   O     0.50000   0.18573   0.70928   0.00000  Uiso   1.00
O521   O     0.50000   0.31427   0.79072   0.00000  Uiso   1.00
O522   O     0.42495   0.24999   0.78132   0.00000  Uiso   1.00
O523   O     0.57505   0.25000   0.71868   0.00000  Uiso   1.00
O524   O     0.42495   0.25000   0.69988   0.00000  Uiso   1.00
O525   O     0.57505   0.25000   0.80011   0.00000  Uiso   1.00
O526   O     0.62071   0.14708   0.78821   0.00000  Uiso   1.00
S527   S     0.60700   0.12008   0.74263   0.00000  Uiso   1.00
S528   S     0.42849   0.38381   0.82026   0.00000  Uiso   1.00
C529   C     0.83446   0.16517   0.74995   0.00000  Uiso   1.00
C530   C     0.86083   0.28194   0.94979   0.00000  Uiso   1.00
C531   C     0.83336   0.24997   0.52731   0.00000  Uiso   1.00
C532   C     0.83336   0.24996   0.97261   0.00000  Uiso   1.00
C533   C     0.73456   0.24969   0.73754   0.00000  Uiso   1.00
C534   C     0.93210   0.25003   0.76244   0.00000  Uiso   1.00
C535   C     0.67929   0.24959   0.73065   0.00000  Uiso   1.00
C536   C     0.98736   0.24961   0.76928   0.00000  Uiso   1.00
C537   C     0.78765   0.04925   0.75138   0.00000  Uiso   1.00
C538   C     0.85786   0.45169   0.71632   0.00000  Uiso   1.00
C539   C     0.78905   0.09514   0.75259   0.00000  Uiso   1.00
C540   C     0.83152   0.33511   0.75000   0.00000  Uiso   1.00
C541   C     0.85709   0.40578   0.71740   0.00000  Uiso   1.00
C542   C     0.83520   0.11723   0.74944   0.00000  Uiso   1.00
C543   C     0.82985   0.38360   0.75006   0.00000  Uiso   1.00
C544   C     0.88075   0.09329   0.74520   0.00000  Uiso   1.00
C545   C     0.80202   0.40836   0.78151   0.00000  Uiso   1.00
C546   C     0.87902   0.04711   0.74447   0.00000  Uiso   1.00
C547   C     0.80408   0.45448   0.78061   0.00000  Uiso   1.00
C548   C     0.83268   0.02491   0.74758   0.00000  Uiso   1.00
C549   C     0.83158   0.47632   0.74809   0.00000  Uiso   1.00
C550   C     0.87453   0.26812   0.55945   0.00000  Uiso   1.00
C551   C     0.80594   0.21796   0.94216   0.00000  Uiso   1.00
C552   C     0.87353   0.26817   0.61002   0.00000  Uiso   1.00
C553   C     0.80611   0.21879   0.89147   0.00000  Uiso   1.00
C554   C     0.79317   0.23181   0.59930   0.00000  Uiso   1.00
C555   C     0.86072   0.28107   0.89906   0.00000  Uiso   1.00
C556   C     0.79218   0.23181   0.54845   0.00000  Uiso   1.00
Cu557  Cu    0.83333   0.24999   0.79821   0.00000  Uiso   1.00
Cu558  Cu    0.83333   0.25000   0.70178   0.00000  Uiso   1.00
H559   H     0.99264   0.24972   0.69360   0.00000  Uiso   1.00
H560   H     0.78491   0.19188   0.95712   0.00000  Uiso   1.00
H561   H     0.90530   0.28276   0.63378   0.00000  Uiso   1.00
H562   H     0.78453   0.19414   0.86879   0.00000  Uiso   1.00
H563   H     0.76139   0.21727   0.61459   0.00000  Uiso   1.00
H564   H     0.88236   0.30567   0.88236   0.00000  Uiso   1.00
H565   H     0.75883   0.21810   0.52610   0.00000  Uiso   1.00
H566   H     0.88187   0.30801   0.97062   0.00000  Uiso   1.00
H567   H     0.92274   0.13481   0.66605   0.00000  Uiso   1.00
H568   H     0.70470   0.33215   0.81368   0.00000  Uiso   1.00
H569   H     0.67401   0.24932   0.80634   0.00000  Uiso   1.00
H570   H     0.75131   0.03279   0.75314   0.00000  Uiso   1.00
H571   H     0.87881   0.46795   0.69046   0.00000  Uiso   1.00
H572   H     0.75400   0.11355   0.75559   0.00000  Uiso   1.00
H573   H     0.87833   0.38749   0.69287   0.00000  Uiso   1.00
H574   H     0.91397   0.02831   0.74246   0.00000  Uiso   1.00
H575   H     0.78421   0.47363   0.80547   0.00000  Uiso   1.00
H576   H     0.90789   0.28182   0.54599   0.00000  Uiso   1.00
N577   N     0.83333   0.25001   0.62934   0.00000  Uiso   1.00
N578   N     0.83333   0.24999   0.87065   0.00000  Uiso   1.00
O579   O     0.83334   0.18572   0.79071   0.00000  Uiso   1.00
O580   O     0.98258   0.08695   0.73870   0.00000  Uiso   1.00
O581   O     0.93520   0.15391   0.69435   0.00000  Uiso   1.00
O582   O     0.79472   0.36471   0.86387   0.00000  Uiso   1.00
O583   O     0.72599   0.41780   0.83715   0.00000  Uiso   1.00
O584   O     0.72655   0.34351   0.79010   0.00000  Uiso   1.00
O585   O     0.83333   0.31427   0.70928   0.00000  Uiso   1.00
O586   O     0.83334   0.18573   0.70928   0.00000  Uiso   1.00
O587   O     0.83333   0.31427   0.79072   0.00000  Uiso   1.00
O588   O     0.75828   0.24999   0.78132   0.00000  Uiso   1.00
O589   O     0.90839   0.25000   0.71868   0.00000  Uiso   1.00
O590   O     0.75828   0.25000   0.69988   0.00000  Uiso   1.00
O591   O     0.90839   0.25000   0.80011   0.00000  Uiso   1.00
O592   O     0.95404   0.14708   0.78821   0.00000  Uiso   1.00
S593   S     0.94034   0.12008   0.74263   0.00000  Uiso   1.00
S594   S     0.76183   0.38381   0.82026   0.00000  Uiso   1.00
C595   C     0.16779   0.66517   0.74995   0.00000  Uiso   1.00
C596   C     0.19416   0.78194   0.94979   0.00000  Uiso   1.00
C597   C     0.16669   0.74997   0.52731   0.00000  Uiso   1.00
C598   C     0.16670   0.74996   0.97261   0.00000  Uiso   1.00
C599   C     0.06790   0.74969   0.73754   0.00000  Uiso   1.00
C600   C     0.26543   0.75003   0.76244   0.00000  Uiso   1.00
C601   C     0.01262   0.74959   0.73065   0.00000  Uiso   1.00
C602   C     0.32069   0.74961   0.76928   0.00000  Uiso   1.00
C603   C     0.12099   0.54925   0.75138   0.00000  Uiso   1.00
C604   C     0.19120   0.95169   0.71632   0.00000  Uiso   1.00
C605   C     0.12239   0.59514   0.75259   0.00000  Uiso   1.00
C606   C     0.16486   0.83511   0.75000   0.00000  Uiso   1.00
C607   C     0.19042   0.90578   0.71740   0.00000  Uiso   1.00
C608   C     0.16854   0.61723   0.74944   0.00000  Uiso   1.00
C609   C     0.16319   0.88360   0.75006   0.00000  Uiso   1.00
C610   C     0.21408   0.59329   0.74520   0.00000  Uiso   1.00
C611   C     0.13535   0.90836   0.78151   0.00000  Uiso   1.00
C612   C     0.21236   0.54711   0.74447   0.00000  Uiso   1.00
C613   C     0.13742   0.95448   0.78061   0.00000  Uiso   1.00
C614   C     0.16601   0.52491   0.74758   0.00000  Uiso   1.00
C615   C     0.16491   0.97632   0.74809   0.00000  Uiso   1.00
C616   C     0.20786   0.76812   0.55945   0.00000  Uiso   1.00
C617   C     0.13928   0.71796   0.94216   0.00000  Uiso   1.00
C618   C     0.20686   0.76817   0.61002   0.00000  Uiso   1.00
C619   C     0.13944   0.71879   0.89147   0.00000  Uiso   1.00
C620   C     0.12650   0.73181   0.59930   0.00000  Uiso   1.00
C621   C     0.19405   0.78107   0.89906   0.00000  Uiso   1.00
C622   C     0.12552   0.73181   0.54845   0.00000  Uiso   1.00
Cu623  Cu    0.16667   0.74999   0.79821   0.00000  Uiso   1.00
Cu624  Cu    0.16667   0.75000   0.70178   0.00000  Uiso   1.00
H625   H     0.32597   0.74972   0.69360   0.00000  Uiso   1.00
H626   H     0.11825   0.69188   0.95712   0.00000  Uiso   1.00
H627   H     0.23863   0.78276   0.63378   0.00000  Uiso   1.00
H628   H     0.11787   0.69414   0.86879   0.00000  Uiso   1.00
H629   H     0.09472   0.71727   0.61459   0.00000  Uiso   1.00
H630   H     0.21569   0.80567   0.88236   0.00000  Uiso   1.00
H631   H     0.09217   0.71810   0.52610   0.00000  Uiso   1.00
H632   H     0.21521   0.80801   0.97062   0.00000  Uiso   1.00
H633   H     0.25607   0.63481   0.66605   0.00000  Uiso   1.00
H634   H     0.03803   0.83215   0.81368   0.00000  Uiso   1.00
H635   H     0.00734   0.74932   0.80634   0.00000  Uiso   1.00
H636   H     0.08464   0.53279   0.75314   0.00000  Uiso   1.00
H637   H     0.21214   0.96795   0.69046   0.00000  Uiso   1.00
H638   H     0.08733   0.61355   0.75559   0.00000  Uiso   1.00
H639   H     0.21166   0.88749   0.69287   0.00000  Uiso   1.00
H640   H     0.24730   0.52831   0.74246   0.00000  Uiso   1.00
H641   H     0.11755   0.97363   0.80547   0.00000  Uiso   1.00
H642   H     0.24122   0.78182   0.54599   0.00000  Uiso   1.00
N643   N     0.16667   0.75001   0.62934   0.00000  Uiso   1.00
N644   N     0.16667   0.74999   0.87065   0.00000  Uiso   1.00
O645   O     0.16667   0.68572   0.79071   0.00000  Uiso   1.00
O646   O     0.31591   0.58695   0.73870   0.00000  Uiso   1.00
O647   O     0.26854   0.65391   0.69435   0.00000  Uiso   1.00
O648   O     0.12805   0.86471   0.86387   0.00000  Uiso   1.00
O649   O     0.05932   0.91780   0.83715   0.00000  Uiso   1.00
O650   O     0.05988   0.84351   0.79010   0.00000  Uiso   1.00
O651   O     0.16666   0.81427   0.70928   0.00000  Uiso   1.00
O652   O     0.16667   0.68573   0.70928   0.00000  Uiso   1.00
O653   O     0.16666   0.81427   0.79072   0.00000  Uiso   1.00
O654   O     0.09161   0.74999   0.78132   0.00000  Uiso   1.00
O655   O     0.24172   0.75000   0.71868   0.00000  Uiso   1.00
O656   O     0.09161   0.75000   0.69988   0.00000  Uiso   1.00
O657   O     0.24172   0.75000   0.80011   0.00000  Uiso   1.00
O658   O     0.28738   0.64708   0.78821   0.00000  Uiso   1.00
S659   S     0.27367   0.62008   0.74263   0.00000  Uiso   1.00
S660   S     0.09516   0.88381   0.82026   0.00000  Uiso   1.00
C661   C     0.50112   0.66517   0.74995   0.00000  Uiso   1.00
C662   C     0.52750   0.78194   0.94979   0.00000  Uiso   1.00
C663   C     0.50002   0.74997   0.52731   0.00000  Uiso   1.00
C664   C     0.50003   0.74996   0.97261   0.00000  Uiso   1.00
C665   C     0.40123   0.74969   0.73754   0.00000  Uiso   1.00
C666   C     0.59876   0.75003   0.76244   0.00000  Uiso   1.00
C667   C     0.34595   0.74959   0.73065   0.00000  Uiso   1.00
C668   C     0.65403   0.74961   0.76928   0.00000  Uiso   1.00
C669   C     0.45432   0.54925   0.75138   0.00000  Uiso   1.00
C670   C     0.52453   0.95169   0.71632   0.00000  Uiso   1.00
C671   C     0.45572   0.59514   0.75259   0.00000  Uiso   1.00
C672   C     0.49819   0.83511   0.75000   0.00000  Uiso   1.00
C673   C     0.52376   0.90578   0.71740   0.00000  Uiso   1.00
C674   C     0.50187   0.61723   0.74944   0.00000  Uiso   1.00
C675   C     0.49652   0.88360   0.75006   0.00000  Uiso   1.00
C676   C     0.54741   0.59329   0.74520   0.00000  Uiso   1.00
C677   C     0.46868   0.90836   0.78151   0.00000  Uiso   1.00
C678   C     0.54569   0.54711   0.74447   0.00000  Uiso   1.00
C679   C     0.47075   0.95448   0.78061   0.00000  Uiso   1.00
C680   C     0.49934   0.52491   0.74758   0.00000  Uiso   1.00
C681   C     0.49824   0.97632   0.74809   0.00000  Uiso   1.00
C682   C     0.54120   0.76812   0.55945   0.00000  Uiso   1.00
C683   C     0.47261   0.71796   0.94216   0.00000  Uiso   1.00
C684   C     0.54019   0.76817   0.61002   0.00000  Uiso   1.00
C685   C     0.47278   0.71879   0.89147   0.00000  Uiso   1.00
C686   C     0.45983   0.73181   0.59930   0.00000  Uiso   1.00
C687   C     0.52739   0.78107   0.89906   0.00000  Uiso   1.00
C688   C     0.45885   0.73181   0.54845   0.00000  Uiso   1.00
Cu689  Cu    0.50000   0.74999   0.79821   0.00000  Uiso   1.00
Cu690  Cu    0.50000   0.75000   0.70178   0.00000  Uiso   1.00
H691   H     0.65930   0.74972   0.69360   0.00000  Uiso   1.00
H692   H     0.45158   0.69188   0.95712   0.00000  Uiso   1.00
H693   H     0.57196   0.78276   0.63378   0.00000  Uiso   1.00
H694   H     0.45120   0.69414   0.86879   0.00000  Uiso   1.00
H695   H     0.42805   0.71727   0.61459   0.00000  Uiso   1.00
H696   H     0.54902   0.80567   0.88236   0.00000  Uiso   1.00
H697   H     0.42550   0.71810   0.52610   0.00000  Uiso   1.00
H698   H     0.54854   0.80801   0.97062   0.00000  Uiso   1.00
H699   H     0.58940   0.63481   0.66605   0.00000  Uiso   1.00
H700   H     0.37137   0.83215   0.81368   0.00000  Uiso   1.00
H701   H     0.34068   0.74932   0.80634   0.00000  Uiso   1.00
H702   H     0.41798   0.53279   0.75314   0.00000  Uiso   1.00
H703   H     0.54548   0.96795   0.69046   0.00000  Uiso   1.00
H704   H     0.42067   0.61355   0.75559   0.00000  Uiso   1.00
H705   H     0.54500   0.88749   0.69287   0.00000  Uiso   1.00
H706   H     0.58064   0.52831   0.74246   0.00000  Uiso   1.00
H707   H     0.45088   0.97363   0.80547   0.00000  Uiso   1.00
H708   H     0.57456   0.78182   0.54599   0.00000  Uiso   1.00
N709   N     0.50000   0.75001   0.62934   0.00000  Uiso   1.00
N710   N     0.50000   0.74999   0.87065   0.00000  Uiso   1.00
O711   O     0.50000   0.68572   0.79071   0.00000  Uiso   1.00
O712   O     0.64924   0.58695   0.73870   0.00000  Uiso   1.00
O713   O     0.60187   0.65391   0.69435   0.00000  Uiso   1.00
O714   O     0.46138   0.86471   0.86387   0.00000  Uiso   1.00
O715   O     0.39266   0.91780   0.83715   0.00000  Uiso   1.00
O716   O     0.39322   0.84351   0.79010   0.00000  Uiso   1.00
O717   O     0.50000   0.81427   0.70928   0.00000  Uiso   1.00
O718   O     0.50000   0.68573   0.70928   0.00000  Uiso   1.00
O719   O     0.50000   0.81427   0.79072   0.00000  Uiso   1.00
O720   O     0.42495   0.74999   0.78132   0.00000  Uiso   1.00
O721   O     0.57505   0.75000   0.71868   0.00000  Uiso   1.00
O722   O     0.42495   0.75000   0.69988   0.00000  Uiso   1.00
O723   O     0.57505   0.75000   0.80011   0.00000  Uiso   1.00
O724   O     0.62071   0.64708   0.78821   0.00000  Uiso   1.00
S725   S     0.60700   0.62008   0.74263   0.00000  Uiso   1.00
S726   S     0.42849   0.88381   0.82026   0.00000  Uiso   1.00
C727   C     0.83446   0.66517   0.74995   0.00000  Uiso   1.00
C728   C     0.86083   0.78194   0.94979   0.00000  Uiso   1.00
C729   C     0.83336   0.74997   0.52731   0.00000  Uiso   1.00
C730   C     0.83336   0.74996   0.97261   0.00000  Uiso   1.00
C731   C     0.73456   0.74969   0.73754   0.00000  Uiso   1.00
C732   C     0.93210   0.75003   0.76244   0.00000  Uiso   1.00
C733   C     0.67929   0.74959   0.73065   0.00000  Uiso   1.00
C734   C     0.98736   0.74961   0.76928   0.00000  Uiso   1.00
C735   C     0.78765   0.54925   0.75138   0.00000  Uiso   1.00
C736   C     0.85786   0.95169   0.71632   0.00000  Uiso   1.00
C737   C     0.78905   0.59514   0.75259   0.00000  Uiso   1.00
C738   C     0.83152   0.83511   0.75000   0.00000  Uiso   1.00
C739   C     0.85709   0.90578   0.71740   0.00000  Uiso   1.00
C740   C     0.83520   0.61723   0.74944   0.00000  Uiso   1.00
C741   C     0.82985   0.88360   0.75006   0.00000  Uiso   1.00
C742   C     0.88075   0.59329   0.74520   0.00000  Uiso   1.00
C743   C     0.80202   0.90836   0.78151   0.00000  Uiso   1.00
C744   C     0.87902   0.54711   0.74447   0.00000  Uiso   1.00
C745   C     0.80408   0.95448   0.78061   0.00000  Uiso   1.00
C746   C     0.83268   0.52491   0.74758   0.00000  Uiso   1.00
C747   C     0.83158   0.97632   0.74809   0.00000  Uiso   1.00
C748   C     0.87453   0.76812   0.55945   0.00000  Uiso   1.00
C749   C     0.80594   0.71796   0.94216   0.00000  Uiso   1.00
C750   C     0.87353   0.76817   0.61002   0.00000  Uiso   1.00
C751   C     0.80611   0.71879   0.89147   0.00000  Uiso   1.00
C752   C     0.79317   0.73181   0.59930   0.00000  Uiso   1.00
C753   C     0.86072   0.78107   0.89906   0.00000  Uiso   1.00
C754   C     0.79218   0.73181   0.54845   0.00000  Uiso   1.00
Cu755  Cu    0.83333   0.74999   0.79821   0.00000  Uiso   1.00
Cu756  Cu    0.83333   0.75000   0.70178   0.00000  Uiso   1.00
H757   H     0.99264   0.74972   0.69360   0.00000  Uiso   1.00
H758   H     0.78491   0.69188   0.95712   0.00000  Uiso   1.00
H759   H     0.90530   0.78276   0.63378   0.00000  Uiso   1.00
H760   H     0.78453   0.69414   0.86879   0.00000  Uiso   1.00
H761   H     0.76139   0.71727   0.61459   0.00000  Uiso   1.00
H762   H     0.88236   0.80567   0.88236   0.00000  Uiso   1.00
H763   H     0.75883   0.71810   0.52610   0.00000  Uiso   1.00
H764   H     0.88187   0.80801   0.97062   0.00000  Uiso   1.00
H765   H     0.92274   0.63481   0.66605   0.00000  Uiso   1.00
H766   H     0.70470   0.83215   0.81368   0.00000  Uiso   1.00
H767   H     0.67401   0.74932   0.80634   0.00000  Uiso   1.00
H768   H     0.75131   0.53279   0.75314   0.00000  Uiso   1.00
H769   H     0.87881   0.96795   0.69046   0.00000  Uiso   1.00
H770   H     0.75400   0.61355   0.75559   0.00000  Uiso   1.00
H771   H     0.87833   0.88749   0.69287   0.00000  Uiso   1.00
H772   H     0.91397   0.52831   0.74246   0.00000  Uiso   1.00
H773   H     0.78421   0.97363   0.80547   0.00000  Uiso   1.00
H774   H     0.90789   0.78182   0.54599   0.00000  Uiso   1.00
N775   N     0.83333   0.75001   0.62934   0.00000  Uiso   1.00
N776   N     0.83333   0.74999   0.87065   0.00000  Uiso   1.00
O777   O     0.83334   0.68572   0.79071   0.00000  Uiso   1.00
O778   O     0.98258   0.58695   0.73870   0.00000  Uiso   1.00
O779   O     0.93520   0.65391   0.69435   0.00000  Uiso   1.00
O780   O     0.79472   0.86471   0.86387   0.00000  Uiso   1.00
O781   O     0.72599   0.91780   0.83715   0.00000  Uiso   1.00
O782   O     0.72655   0.84351   0.79010   0.00000  Uiso   1.00
O783   O     0.83333   0.81427   0.70928   0.00000  Uiso   1.00
O784   O     0.83334   0.68573   0.70928   0.00000  Uiso   1.00
O785   O     0.83333   0.81427   0.79072   0.00000  Uiso   1.00
O786   O     0.75828   0.74999   0.78132   0.00000  Uiso   1.00
O787   O     0.90839   0.75000   0.71868   0.00000  Uiso   1.00
O788   O     0.75828   0.75000   0.69988   0.00000  Uiso   1.00
O789   O     0.90839   0.75000   0.80011   0.00000  Uiso   1.00
O790   O     0.95404   0.64708   0.78821   0.00000  Uiso   1.00
S791   S     0.94034   0.62008   0.74263   0.00000  Uiso   1.00
S792   S     0.76183   0.88381   0.82026   0.00000  Uiso   1.00
loop_
_geom_bond_atom_site_label_1
_geom_bond_atom_site_label_2
_geom_bond_distance
_geom_bond_site_symmetry_2
_ccdc_geom_bond_type
C1     O58     1.289   .     A
C1     O51     1.290   .     A
C1     C14     1.449   .     S
C2     C4      1.412   .     A
C2     C27     1.407   .     A
C2     H38     1.081   .     S
C3     C28     1.411   .     A
C3     C22     1.411   .     A
C3     C400    1.517   1_554 S
C4     C23     1.412   .     A
C4     C399    1.517   .     S
C5     C7      1.433   .     S
C5     O62     1.287   .     A
C5     O60     1.285   .     A
C6     O63     1.287   .     A
C6     O61     1.285   .     A
C6     C8      1.433   .     S
C7     C140    1.335   1_455 S
C7     H163    1.087   1_455 S
C8     C73     1.335   .     S
C8     H107    1.087   .     S
C9     C20     1.403   .     A
C9     C11     1.388   .     A
C9     H42     1.083   .     S
C10    C21     1.399   .     A
C10    H43     1.083   .     S
C10    C13     1.389   .     A
C11    H44     1.084   .     S
C11    C14     1.397   .     A
C12    O57     1.296   .     A
C12    C15     1.466   .     S
C12    O59     1.292   .     A
C13    C15     1.404   .     A
C13    H45     1.084   .     S
C14    C16     1.410   .     A
C15    C17     1.419   .     A
C16    C18     1.397   .     A
C16    S65     1.771   .     S
C17    S66     1.773   .     S
C17    C19     1.396   .     A
C18    C20     1.403   .     A
C18    H46     1.083   .     S
C19    H47     1.083   .     S
C19    C21     1.400   .     A
C20    C219    1.470   1_545 S
C21    C218    1.470   .     S
C22    C24     1.407   .     A
C22    H48     1.081   .     S
C23    H32     1.081   .     S
C23    C25     1.407   .     A
C24    N49     1.364   .     A
C24    H33     1.081   .     S
C25    H34     1.082   .     S
C25    N50     1.363   .     A
C26    C28     1.407   .     A
C26    N49     1.364   .     A
C26    H35     1.081   .     S
C27    H36     1.082   .     S
C27    N50     1.363   .     A
C28    H37     1.081   .     S
Cu29   O63     1.958   .     S
Cu29   O60     1.956   .     S
Cu29   Cu30    2.675   .     S
Cu29   N50     2.010   .     S
Cu29   O51     1.953   .     S
Cu29   O59     1.956   .     S
Cu30   O58     1.956   .     S
Cu30   N49     2.010   .     S
Cu30   O62     1.958   .     S
Cu30   O61     1.956   .     S
Cu30   O57     1.953   .     S
H31    C73     1.087   .     S
H39    O53     0.990   .     S
H40    O56     0.990   .     S
H41    C140    1.087   1_455 S
O52    S65     1.503   .     D
O53    S65     1.681   .     S
O54    S66     1.502   .     D
O55    S66     1.504   .     D
O56    S66     1.680   .     S
O64    S65     1.502   .     D
C67    O124    1.289   .     A
C67    O117    1.290   .     A
C67    C80     1.449   .     S
C68    C70     1.412   .     A
C68    C93     1.407   .     A
C68    H104    1.081   .     S
C69    C94     1.411   .     A
C69    C88     1.411   .     A
C69    C466    1.517   1_554 S
C70    C89     1.412   .     A
C70    C465    1.517   .     S
C71    C73     1.433   .     S
C71    O128    1.287   .     A
C71    O126    1.285   .     A
C72    O129    1.287   .     A
C72    O127    1.285   .     A
C72    C74     1.433   .     S
C74    C139    1.335   .     S
C74    H173    1.087   .     S
C75    C86     1.403   .     A
C75    C77     1.388   .     A
C75    H108    1.083   .     S
C76    C87     1.399   .     A
C76    H109    1.083   .     S
C76    C79     1.389   .     A
C77    H110    1.084   .     S
C77    C80     1.397   .     A
C78    O123    1.296   .     A
C78    C81     1.466   .     S
C78    O125    1.292   .     A
C79    C81     1.404   .     A
C79    H111    1.084   .     S
C80    C82     1.410   .     A
C81    C83     1.419   .     A
C82    C84     1.397   .     A
C82    S131    1.771   .     S
C83    S132    1.773   .     S
C83    C85     1.396   .     A
C84    C86     1.403   .     A
C84    H112    1.083   .     S
C85    H113    1.083   .     S
C85    C87     1.400   .     A
C86    C285    1.470   1_545 S
C87    C284    1.470   .     S
C88    C90     1.407   .     A
C88    H114    1.081   .     S
C89    H98     1.081   .     S
C89    C91     1.407   .     A
C90    N115    1.364   .     A
C90    H99     1.081   .     S
C91    H100    1.082   .     S
C91    N116    1.363   .     A
C92    C94     1.407   .     A
C92    N115    1.364   .     A
C92    H101    1.081   .     S
C93    H102    1.082   .     S
C93    N116    1.363   .     A
C94    H103    1.081   .     S
Cu95   O129    1.958   .     S
Cu95   O126    1.956   .     S
Cu95   Cu96    2.675   .     S
Cu95   N116    2.010   .     S
Cu95   O117    1.953   .     S
Cu95   O125    1.956   .     S
Cu96   O124    1.956   .     S
Cu96   N115    2.010   .     S
Cu96   O128    1.958   .     S
Cu96   O127    1.956   .     S
Cu96   O123    1.953   .     S
H97    C139    1.087   .     S
H105   O119    0.990   .     S
H106   O122    0.990   .     S
O118   S131    1.503   .     D
O119   S131    1.681   .     S
O120   S132    1.502   .     D
O121   S132    1.504   .     D
O122   S132    1.680   .     S
O130   S131    1.502   .     D
C133   O190    1.289   .     A
C133   O183    1.290   .     A
C133   C146    1.449   .     S
C134   C136    1.412   .     A
C134   C159    1.407   .     A
C134   H170    1.081   .     S
C135   C160    1.411   .     A
C135   C154    1.411   .     A
C135   C532    1.517   1_554 S
C136   C155    1.412   .     A
C136   C531    1.517   .     S
C137   C139    1.433   .     S
C137   O194    1.287   .     A
C137   O192    1.285   .     A
C138   O195    1.287   .     A
C138   O193    1.285   .     A
C138   C140    1.433   .     S
C140   C7      1.335   1_655 S
C140   H41     1.087   1_655 S
C141   C152    1.403   .     A
C141   C143    1.388   .     A
C141   H174    1.083   .     S
C142   C153    1.399   .     A
C142   H175    1.083   .     S
C142   C145    1.389   .     A
C143   H176    1.084   .     S
C143   C146    1.397   .     A
C144   O189    1.296   .     A
C144   C147    1.466   .     S
C144   O191    1.292   .     A
C145   C147    1.404   .     A
C145   H177    1.084   .     S
C146   C148    1.410   .     A
C147   C149    1.419   .     A
C148   C150    1.397   .     A
C148   S197    1.771   .     S
C149   S198    1.773   .     S
C149   C151    1.396   .     A
C150   C152    1.403   .     A
C150   H178    1.083   .     S
C151   H179    1.083   .     S
C151   C153    1.400   .     A
C152   C351    1.470   1_545 S
C153   C350    1.470   .     S
C154   C156    1.407   .     A
C154   H180    1.081   .     S
C155   H164    1.081   .     S
C155   C157    1.407   .     A
C156   N181    1.364   .     A
C156   H165    1.081   .     S
C157   H166    1.082   .     S
C157   N182    1.363   .     A
C158   C160    1.407   .     A
C158   N181    1.364   .     A
C158   H167    1.081   .     S
C159   H168    1.082   .     S
C159   N182    1.363   .     A
C160   H169    1.081   .     S
Cu161  O195    1.958   .     S
Cu161  O192    1.956   .     S
Cu161  Cu162   2.675   .     S
Cu161  N182    2.010   .     S
Cu161  O183    1.953   .     S
Cu161  O191    1.956   .     S
Cu162  O190    1.956   .     S
Cu162  N181    2.010   .     S
Cu162  O194    1.958   .     S
Cu162  O193    1.956   .     S
Cu162  O189    1.953   .     S
H163   C7      1.087   1_655 S
H171   O185    0.990   .     S
H172   O188    0.990   .     S
O184   S197    1.503   .     D
O185   S197    1.681   .     S
O186   S198    1.502   .     D
O187   S198    1.504   .     D
O188   S198    1.680   .     S
O196   S197    1.502   .     D
C199   O256    1.289   .     A
C199   O249    1.290   .     A
C199   C212    1.449   .     S
C200   C202    1.412   .     A
C200   C225    1.407   .     A
C200   H236    1.081   .     S
C201   C226    1.411   .     A
C201   C220    1.411   .     A
C201   C598    1.517   1_554 S
C202   C221    1.412   .     A
C202   C597    1.517   .     S
C203   C205    1.433   .     S
C203   O260    1.287   .     A
C203   O258    1.285   .     A
C204   O261    1.287   .     A
C204   O259    1.285   .     A
C204   C206    1.433   .     S
C205   C338    1.335   1_455 S
C205   H361    1.087   1_455 S
C206   C271    1.335   .     S
C206   H305    1.087   .     S
C207   C218    1.403   .     A
C207   C209    1.388   .     A
C207   H240    1.083   .     S
C208   C219    1.399   .     A
C208   H241    1.083   .     S
C208   C211    1.389   .     A
C209   H242    1.084   .     S
C209   C212    1.397   .     A
C210   O255    1.296   .     A
C210   C213    1.466   .     S
C210   O257    1.292   .     A
C211   C213    1.404   .     A
C211   H243    1.084   .     S
C212   C214    1.410   .     A
C213   C215    1.419   .     A
C214   C216    1.397   .     A
C214   S263    1.771   .     S
C215   S264    1.773   .     S
C215   C217    1.396   .     A
C216   C218    1.403   .     A
C216   H244    1.083   .     S
C217   H245    1.083   .     S
C217   C219    1.400   .     A
C219   C20     1.470   1_565 S
C220   C222    1.407   .     A
C220   H246    1.081   .     S
C221   H230    1.081   .     S
C221   C223    1.407   .     A
C222   N247    1.364   .     A
C222   H231    1.081   .     S
C223   H232    1.082   .     S
C223   N248    1.363   .     A
C224   C226    1.407   .     A
C224   N247    1.364   .     A
C224   H233    1.081   .     S
C225   H234    1.082   .     S
C225   N248    1.363   .     A
C226   H235    1.081   .     S
Cu227  O261    1.958   .     S
Cu227  O258    1.956   .     S
Cu227  Cu228   2.675   .     S
Cu227  N248    2.010   .     S
Cu227  O249    1.953   .     S
Cu227  O257    1.956   .     S
Cu228  O256    1.956   .     S
Cu228  N247    2.010   .     S
Cu228  O260    1.958   .     S
Cu228  O259    1.956   .     S
Cu228  O255    1.953   .     S
H229   C271    1.087   .     S
H237   O251    0.990   .     S
H238   O254    0.990   .     S
H239   C338    1.087   1_455 S
O250   S263    1.503   .     D
O251   S263    1.681   .     S
O252   S264    1.502   .     D
O253   S264    1.504   .     D
O254   S264    1.680   .     S
O262   S263    1.502   .     D
C265   O322    1.289   .     A
C265   O315    1.290   .     A
C265   C278    1.449   .     S
C266   C268    1.412   .     A
C266   C291    1.407   .     A
C266   H302    1.081   .     S
C267   C292    1.411   .     A
C267   C286    1.411   .     A
C267   C664    1.517   1_554 S
C268   C287    1.412   .     A
C268   C663    1.517   .     S
C269   C271    1.433   .     S
C269   O326    1.287   .     A
C269   O324    1.285   .     A
C270   O327    1.287   .     A
C270   O325    1.285   .     A
C270   C272    1.433   .     S
C272   C337    1.335   .     S
C272   H371    1.087   .     S
C273   C284    1.403   .     A
C273   C275    1.388   .     A
C273   H306    1.083   .     S
C274   C285    1.399   .     A
C274   H307    1.083   .     S
C274   C277    1.389   .     A
C275   H308    1.084   .     S
C275   C278    1.397   .     A
C276   O321    1.296   .     A
C276   C279    1.466   .     S
C276   O323    1.292   .     A
C277   C279    1.404   .     A
C277   H309    1.084   .     S
C278   C280    1.410   .     A
C279   C281    1.419   .     A
C280   C282    1.397   .     A
C280   S329    1.771   .     S
C281   S330    1.773   .     S
C281   C283    1.396   .     A
C282   C284    1.403   .     A
C282   H310    1.083   .     S
C283   H311    1.083   .     S
C283   C285    1.400   .     A
C285   C86     1.470   1_565 S
C286   C288    1.407   .     A
C286   H312    1.081   .     S
C287   H296    1.081   .     S
C287   C289    1.407   .     A
C288   N313    1.364   .     A
C288   H297    1.081   .     S
C289   H298    1.082   .     S
C289   N314    1.363   .     A
C290   C292    1.407   .     A
C290   N313    1.364   .     A
C290   H299    1.081   .     S
C291   H300    1.082   .     S
C291   N314    1.363   .     A
C292   H301    1.081   .     S
Cu293  O327    1.958   .     S
Cu293  O324    1.956   .     S
Cu293  Cu294   2.675   .     S
Cu293  N314    2.010   .     S
Cu293  O315    1.953   .     S
Cu293  O323    1.956   .     S
Cu294  O322    1.956   .     S
Cu294  N313    2.010   .     S
Cu294  O326    1.958   .     S
Cu294  O325    1.956   .     S
Cu294  O321    1.953   .     S
H295   C337    1.087   .     S
H303   O317    0.990   .     S
H304   O320    0.990   .     S
O316   S329    1.503   .     D
O317   S329    1.681   .     S
O318   S330    1.502   .     D
O319   S330    1.504   .     D
O320   S330    1.680   .     S
O328   S329    1.502   .     D
C331   O388    1.289   .     A
C331   O381    1.290   .     A
C331   C344    1.449   .     S
C332   C334    1.412   .     A
C332   C357    1.407   .     A
C332   H368    1.081   .     S
C333   C358    1.411   .     A
C333   C352    1.411   .     A
C333   C730    1.517   1_554 S
C334   C353    1.412   .     A
C334   C729    1.517   .     S
C335   C337    1.433   .     S
C335   O392    1.287   .     A
C335   O390    1.285   .     A
C336   O393    1.287   .     A
C336   O391    1.285   .     A
C336   C338    1.433   .     S
C338   C205    1.335   1_655 S
C338   H239    1.087   1_655 S
C339   C350    1.403   .     A
C339   C341    1.388   .     A
C339   H372    1.083   .     S
C340   C351    1.399   .     A
C340   H373    1.083   .     S
C340   C343    1.389   .     A
C341   H374    1.084   .     S
C341   C344    1.397   .     A
C342   O387    1.296   .     A
C342   C345    1.466   .     S
C342   O389    1.292   .     A
C343   C345    1.404   .     A
C343   H375    1.084   .     S
C344   C346    1.410   .     A
C345   C347    1.419   .     A
C346   C348    1.397   .     A
C346   S395    1.771   .     S
C347   S396    1.773   .     S
C347   C349    1.396   .     A
C348   C350    1.403   .     A
C348   H376    1.083   .     S
C349   H377    1.083   .     S
C349   C351    1.400   .     A
C351   C152    1.470   1_565 S
C352   C354    1.407   .     A
C352   H378    1.081   .     S
C353   H362    1.081   .     S
C353   C355    1.407   .     A
C354   N379    1.364   .     A
C354   H363    1.081   .     S
C355   H364    1.082   .     S
C355   N380    1.363   .     A
C356   C358    1.407   .     A
C356   N379    1.364   .     A
C356   H365    1.081   .     S
C357   H366    1.082   .     S
C357   N380    1.363   .     A
C358   H367    1.081   .     S
Cu359  O393    1.958   .     S
Cu359  O390    1.956   .     S
Cu359  Cu360   2.675   .     S
Cu359  N380    2.010   .     S
Cu359  O381    1.953   .     S
Cu359  O389    1.956   .     S
Cu360  O388    1.956   .     S
Cu360  N379    2.010   .     S
Cu360  O392    1.958   .     S
Cu360  O391    1.956   .     S
Cu360  O387    1.953   .     S
H361   C205    1.087   1_655 S
H369   O383    0.990   .     S
H370   O386    0.990   .     S
O382   S395    1.503   .     D
O383   S395    1.681   .     S
O384   S396    1.502   .     D
O385   S396    1.504   .     D
O386   S396    1.680   .     S
O394   S395    1.502   .     D
C397   O454    1.289   .     A
C397   O447    1.290   .     A
C397   C410    1.449   .     S
C398   C400    1.412   .     A
C398   C423    1.407   .     A
C398   H434    1.081   .     S
C399   C424    1.411   .     A
C399   C418    1.411   .     A
C400   C419    1.412   .     A
C400   C3      1.517   1_556 S
C401   C403    1.433   .     S
C401   O458    1.287   .     A
C401   O456    1.285   .     A
C402   O459    1.287   .     A
C402   O457    1.285   .     A
C402   C404    1.433   .     S
C403   C536    1.335   1_455 S
C403   H559    1.087   1_455 S
C404   C469    1.335   .     S
C404   H503    1.087   .     S
C405   C416    1.403   .     A
C405   C407    1.388   .     A
C405   H438    1.083   .     S
C406   C417    1.399   .     A
C406   H439    1.083   .     S
C406   C409    1.389   .     A
C407   H440    1.084   .     S
C407   C410    1.397   .     A
C408   O453    1.296   .     A
C408   C411    1.466   .     S
C408   O455    1.292   .     A
C409   C411    1.404   .     A
C409   H441    1.084   .     S
C410   C412    1.410   .     A
C411   C413    1.419   .     A
C412   C414    1.397   .     A
C412   S461    1.771   .     S
C413   S462    1.773   .     S
C413   C415    1.396   .     A
C414   C416    1.403   .     A
C414   H442    1.083   .     S
C415   H443    1.083   .     S
C415   C417    1.400   .     A
C416   C615    1.470   1_545 S
C417   C614    1.470   .     S
C418   C420    1.407   .     A
C418   H444    1.081   .     S
C419   H428    1.081   .     S
C419   C421    1.407   .     A
C420   N445    1.364   .     A
C420   H429    1.081   .     S
C421   H430    1.082   .     S
C421   N446    1.363   .     A
C422   C424    1.407   .     A
C422   N445    1.364   .     A
C422   H431    1.081   .     S
C423   H432    1.082   .     S
C423   N446    1.363   .     A
C424   H433    1.081   .     S
Cu425  O459    1.958   .     S
Cu425  O456    1.956   .     S
Cu425  Cu426   2.675   .     S
Cu425  N446    2.010   .     S
Cu425  O447    1.953   .     S
Cu425  O455    1.956   .     S
Cu426  O454    1.956   .     S
Cu426  N445    2.010   .     S
Cu426  O458    1.958   .     S
Cu426  O457    1.956   .     S
Cu426  O453    1.953   .     S
H427   C469    1.087   .     S
H435   O449    0.990   .     S
H436   O452    0.990   .     S
H437   C536    1.087   1_455 S
O448   S461    1.503   .     D
O449   S461    1.681   .     S
O450   S462    1.502   .     D
O451   S462    1.504   .     D
O452   S462    1.680   .     S
O460   S461    1.502   .     D
C463   O520    1.289   .     A
C463   O513    1.290   .     A
C463   C476    1.449   .     S
C464   C466    1.412   .     A
C464   C489    1.407   .     A
C464   H500    1.081   .     S
C465   C490    1.411   .     A
C465   C484    1.411   .     A
C466   C485    1.412   .     A
C466   C69     1.517   1_556 S
C467   C469    1.433   .     S
C467   O524    1.287   .     A
C467   O522    1.285   .     A
C468   O525    1.287   .     A
C468   O523    1.285   .     A
C468   C470    1.433   .     S
C470   C535    1.335   .     S
C470   H569    1.087   .     S
C471   C482    1.403   .     A
C471   C473    1.388   .     A
C471   H504    1.083   .     S
C472   C483    1.399   .     A
C472   H505    1.083   .     S
C472   C475    1.389   .     A
C473   H506    1.084   .     S
C473   C476    1.397   .     A
C474   O519    1.296   .     A
C474   C477    1.466   .     S
C474   O521    1.292   .     A
C475   C477    1.404   .     A
C475   H507    1.084   .     S
C476   C478    1.410   .     A
C477   C479    1.419   .     A
C478   C480    1.397   .     A
C478   S527    1.771   .     S
C479   S528    1.773   .     S
C479   C481    1.396   .     A
C480   C482    1.403   .     A
C480   H508    1.083   .     S
C481   H509    1.083   .     S
C481   C483    1.400   .     A
C482   C681    1.470   1_545 S
C483   C680    1.470   .     S
C484   C486    1.407   .     A
C484   H510    1.081   .     S
C485   H494    1.081   .     S
C485   C487    1.407   .     A
C486   N511    1.364   .     A
C486   H495    1.081   .     S
C487   H496    1.082   .     S
C487   N512    1.363   .     A
C488   C490    1.407   .     A
C488   N511    1.364   .     A
C488   H497    1.081   .     S
C489   H498    1.082   .     S
C489   N512    1.363   .     A
C490   H499    1.081   .     S
Cu491  O525    1.958   .     S
Cu491  O522    1.956   .     S
Cu491  Cu492   2.675   .     S
Cu491  N512    2.010   .     S
Cu491  O513    1.953   .     S
Cu491  O521    1.956   .     S
Cu492  O520    1.956   .     S
Cu492  N511    2.010   .     S
Cu492  O524    1.958   .     S
Cu492  O523    1.956   .     S
Cu492  O519    1.953   .     S
H493   C535    1.087   .     S
H501   O515    0.990   .     S
H502   O518    0.990   .     S
O514   S527    1.503   .     D
O515   S527    1.681   .     S
O516   S528    1.502   .     D
O517   S528    1.504   .     D
O518   S528    1.680   .     S
O526   S527    1.502   .     D
C529   O586    1.289   .     A
C529   O579    1.290   .     A
C529   C542    1.449   .     S
C530   C532    1.412   .     A
C530   C555    1.407   .     A
C530   H566    1.081   .     S
C531   C556    1.411   .     A
C531   C550    1.411   .     A
C532   C551    1.412   .     A
C532   C135    1.517   1_556 S
C533   C535    1.433   .     S
C533   O590    1.287   .     A
C533   O588    1.285   .     A
C534   O591    1.287   .     A
C534   O589    1.285   .     A
C534   C536    1.433   .     S
C536   C403    1.335   1_655 S
C536   H437    1.087   1_655 S
C537   C548    1.403   .     A
C537   C539    1.388   .     A
C537   H570    1.083   .     S
C538   C549    1.399   .     A
C538   H571    1.083   .     S
C538   C541    1.389   .     A
C539   H572    1.084   .     S
C539   C542    1.397   .     A
C540   O585    1.296   .     A
C540   C543    1.466   .     S
C540   O587    1.292   .     A
C541   C543    1.404   .     A
C541   H573    1.084   .     S
C542   C544    1.410   .     A
C543   C545    1.419   .     A
C544   C546    1.397   .     A
C544   S593    1.771   .     S
C545   S594    1.773   .     S
C545   C547    1.396   .     A
C546   C548    1.403   .     A
C546   H574    1.083   .     S
C547   H575    1.083   .     S
C547   C549    1.400   .     A
C548   C747    1.470   1_545 S
C549   C746    1.470   .     S
C550   C552    1.407   .     A
C550   H576    1.081   .     S
C551   H560    1.081   .     S
C551   C553    1.407   .     A
C552   N577    1.364   .     A
C552   H561    1.081   .     S
C553   H562    1.082   .     S
C553   N578    1.363   .     A
C554   C556    1.407   .     A
C554   N577    1.364   .     A
C554   H563    1.081   .     S
C555   H564    1.082   .     S
C555   N578    1.363   .     A
C556   H565    1.081   .     S
Cu557  O591    1.958   .     S
Cu557  O588    1.956   .     S
Cu557  Cu558   2.675   .     S
Cu557  N578    2.010   .     S
Cu557  O579    1.953   .     S
Cu557  O587    1.956   .     S
Cu558  O586    1.956   .     S
Cu558  N577    2.010   .     S
Cu558  O590    1.958   .     S
Cu558  O589    1.956   .     S
Cu558  O585    1.953   .     S
H559   C403    1.087   1_655 S
H567   O581    0.990   .     S
H568   O584    0.990   .     S
O580   S593    1.503   .     D
O581   S593    1.681   .     S
O582   S594    1.502   .     D
O583   S594    1.504   .     D
O584   S594    1.680   .     S
O592   S593    1.502   .     D
C595   O652    1.289   .     A
C595   O645    1.290   .     A
C595   C608    1.449   .     S
C596   C598    1.412   .     A
C596   C621    1.407   .     A
C596   H632    1.081   .     S
C597   C622    1.411   .     A
C597   C616    1.411   .     A
C598   C617    1.412   .     A
C598   C201    1.517   1_556 S
C599   C601    1.433   .     S
C599   O656    1.287   .     A
C599   O654    1.285   .     A
C600   O657    1.287   .     A
C600   O655    1.285   .     A
C600   C602    1.433   .     S
C601   C734    1.335   1_455 S
C601   H757    1.087   1_455 S
C602   C667    1.335   .     S
C602   H701    1.087   .     S
C603   C614    1.403   .     A
C603   C605    1.388   .     A
C603   H636    1.083   .     S
C604   C615    1.399   .     A
C604   H637    1.083   .     S
C604   C607    1.389   .     A
C605   H638    1.084   .     S
C605   C608    1.397   .     A
C606   O651    1.296   .     A
C606   C609    1.466   .     S
C606   O653    1.292   .     A
C607   C609    1.404   .     A
C607   H639    1.084   .     S
C608   C610    1.410   .     A
C609   C611    1.419   .     A
C610   C612    1.397   .     A
C610   S659    1.771   .     S
C611   S660    1.773   .     S
C611   C613    1.396   .     A
C612   C614    1.403   .     A
C612   H640    1.083   .     S
C613   H641    1.083   .     S
C613   C615    1.400   .     A
C615   C416    1.470   1_565 S
C616   C618    1.407   .     A
C616   H642    1.081   .     S
C617   H626    1.081   .     S
C617   C619    1.407   .     A
C618   N643    1.364   .     A
C618   H627    1.081   .     S
C619   H628    1.082   .     S
C619   N644    1.363   .     A
C620   C622    1.407   .     A
C620   N643    1.364   .     A
C620   H629    1.081   .     S
C621   H630    1.082   .     S
C621   N644    1.363   .     A
C622   H631    1.081   .     S
Cu623  O657    1.958   .     S
Cu623  O654    1.956   .     S
Cu623  Cu624   2.675   .     S
Cu623  N644    2.010   .     S
Cu623  O645    1.953   .     S
Cu623  O653    1.956   .     S
Cu624  O652    1.956   .     S
Cu624  N643    2.010   .     S
Cu624  O656    1.958   .     S
Cu624  O655    1.956   .     S
Cu624  O651    1.953   .     S
H625   C667    1.087   .     S
H633   O647    0.990   .     S
H634   O650    0.990   .     S
H635   C734    1.087   1_455 S
O646   S659    1.503   .     D
O647   S659    1.681   .     S
O648   S660    1.502   .     D
O649   S660    1.504   .     D
O650   S660    1.680   .     S
O658   S659    1.502   .     D
C661   O718    1.289   .     A
C661   O711    1.290   .     A
C661   C674    1.449   .     S
C662   C664    1.412   .     A
C662   C687    1.407   .     A
C662   H698    1.081   .     S
C663   C688    1.411   .     A
C663   C682    1.411   .     A
C664   C683    1.412   .     A
C664   C267    1.517   1_556 S
C665   C667    1.433   .     S
C665   O722    1.287   .     A
C665   O720    1.285   .     A
C666   O723    1.287   .     A
C666   O721    1.285   .     A
C666   C668    1.433   .     S
C668   C733    1.335   .     S
C668   H767    1.087   .     S
C669   C680    1.403   .     A
C669   C671    1.388   .     A
C669   H702    1.083   .     S
C670   C681    1.399   .     A
C670   H703    1.083   .     S
C670   C673    1.389   .     A
C671   H704    1.084   .     S
C671   C674    1.397   .     A
C672   O717    1.296   .     A
C672   C675    1.466   .     S
C672   O719    1.292   .     A
C673   C675    1.404   .     A
C673   H705    1.084   .     S
C674   C676    1.410   .     A
C675   C677    1.419   .     A
C676   C678    1.397   .     A
C676   S725    1.771   .     S
C677   S726    1.773   .     S
C677   C679    1.396   .     A
C678   C680    1.403   .     A
C678   H706    1.083   .     S
C679   H707    1.083   .     S
C679   C681    1.400   .     A
C681   C482    1.470   1_565 S
C682   C684    1.407   .     A
C682   H708    1.081   .     S
C683   H692    1.081   .     S
C683   C685    1.407   .     A
C684   N709    1.364   .     A
C684   H693    1.081   .     S
C685   H694    1.082   .     S
C685   N710    1.363   .     A
C686   C688    1.407   .     A
C686   N709    1.364   .     A
C686   H695    1.081   .     S
C687   H696    1.082   .     S
C687   N710    1.363   .     A
C688   H697    1.081   .     S
Cu689  O723    1.958   .     S
Cu689  O720    1.956   .     S
Cu689  Cu690   2.675   .     S
Cu689  N710    2.010   .     S
Cu689  O711    1.953   .     S
Cu689  O719    1.956   .     S
Cu690  O718    1.956   .     S
Cu690  N709    2.010   .     S
Cu690  O722    1.958   .     S
Cu690  O721    1.956   .     S
Cu690  O717    1.953   .     S
H691   C733    1.087   .     S
H699   O713    0.990   .     S
H700   O716    0.990   .     S
O712   S725    1.503   .     D
O713   S725    1.681   .     S
O714   S726    1.502   .     D
O715   S726    1.504   .     D
O716   S726    1.680   .     S
O724   S725    1.502   .     D
C727   O784    1.289   .     A
C727   O777    1.290   .     A
C727   C740    1.449   .     S
C728   C730    1.412   .     A
C728   C753    1.407   .     A
C728   H764    1.081   .     S
C729   C754    1.411   .     A
C729   C748    1.411   .     A
C730   C749    1.412   .     A
C730   C333    1.517   1_556 S
C731   C733    1.433   .     S
C731   O788    1.287   .     A
C731   O786    1.285   .     A
C732   O789    1.287   .     A
C732   O787    1.285   .     A
C732   C734    1.433   .     S
C734   C601    1.335   1_655 S
C734   H635    1.087   1_655 S
C735   C746    1.403   .     A
C735   C737    1.388   .     A
C735   H768    1.083   .     S
C736   C747    1.399   .     A
C736   H769    1.083   .     S
C736   C739    1.389   .     A
C737   H770    1.084   .     S
C737   C740    1.397   .     A
C738   O783    1.296   .     A
C738   C741    1.466   .     S
C738   O785    1.292   .     A
C739   C741    1.404   .     A
C739   H771    1.084   .     S
C740   C742    1.410   .     A
C741   C743    1.419   .     A
C742   C744    1.397   .     A
C742   S791    1.771   .     S
C743   S792    1.773   .     S
C743   C745    1.396   .     A
C744   C746    1.403   .     A
C744   H772    1.083   .     S
C745   H773    1.083   .     S
C745   C747    1.400   .     A
C747   C548    1.470   1_565 S
C748   C750    1.407   .     A
C748   H774    1.081   .     S
C749   H758    1.081   .     S
C749   C751    1.407   .     A
C750   N775    1.364   .     A
C750   H759    1.081   .     S
C751   H760    1.082   .     S
C751   N776    1.363   .     A
C752   C754    1.407   .     A
C752   N775    1.364   .     A
C752   H761    1.081   .     S
C753   H762    1.082   .     S
C753   N776    1.363   .     A
C754   H763    1.081   .     S
Cu755  O789    1.958   .     S
Cu755  O786    1.956   .     S
Cu755  Cu756   2.675   .     S
Cu755  N776    2.010   .     S
Cu755  O777    1.953   .     S
Cu755  O785    1.956   .     S
Cu756  O784    1.956   .     S
Cu756  N775    2.010   .     S
Cu756  O788    1.958   .     S
Cu756  O787    1.956   .     S
Cu756  O783    1.953   .     S
H757   C601    1.087   1_655 S
H765   O779    0.990   .     S
H766   O782    0.990   .     S
O778   S791    1.503   .     D
O779   S791    1.681   .     S
O780   S792    1.502   .     D
O781   S792    1.504   .     D
O782   S792    1.680   .     S
O790   S791    1.502   .     D
