data_str_m2_o10_o18_pcu_sym.125
_audit_creation_date              2020-01-03
_audit_creation_method            'Materials Studio'
_symmetry_space_group_name_H-M    'P1'
_symmetry_Int_Tables_number       1
_symmetry_cell_setting            triclinic
loop_
_symmetry_equiv_pos_as_xyz
  x,y,z
_cell_length_a                    22.3095
_cell_length_b                    26.5847
_cell_length_c                    31.9983
_cell_angle_alpha                 92.1937
_cell_angle_beta                  75.0993
_cell_angle_gamma                 103.1982
loop_
_atom_site_label
_atom_site_type_symbol
_atom_site_fract_x
_atom_site_fract_y
_atom_site_fract_z
_atom_site_U_iso_or_equiv
_atom_site_adp_type
_atom_site_occupancy
C1     C     0.18246   0.26660   0.24917   0.00000  Uiso   1.00
C2     C     0.15177   0.06675   0.24887   0.00000  Uiso   1.00
C3     C     0.08908   0.14060   0.03971   0.00000  Uiso   1.00
C4     C     0.24112   0.19780   0.46051   0.00000  Uiso   1.00
C5     C     0.04795   0.12568   0.01376   0.00000  Uiso   1.00
C6     C     0.28307   0.21110   0.48631   0.00000  Uiso   1.00
C7     C     0.19196   0.32222   0.24617   0.00000  Uiso   1.00
C8     C     0.14246   0.01113   0.25042   0.00000  Uiso   1.00
C9     C     0.12797   0.16265   0.33302   0.00000  Uiso   1.00
C10    C     0.20521   0.17014   0.16695   0.00000  Uiso   1.00
C11    C     0.10480   0.15730   0.38052   0.00000  Uiso   1.00
C12    C     0.22784   0.17503   0.11929   0.00000  Uiso   1.00
C13    C     0.02375   0.11958   0.44444   0.00000  Uiso   1.00
C14    C     0.30925   0.21421   0.05550   0.00000  Uiso   1.00
C15    C     0.04329   0.13002   0.39964   0.00000  Uiso   1.00
C16    C     0.28979   0.20129   0.10010   0.00000  Uiso   1.00
C17    C     0.14660   0.17776   0.40645   0.00000  Uiso   1.00
C18    C     0.18417   0.15795   0.09391   0.00000  Uiso   1.00
C19    C     0.13103   0.16397   0.45106   0.00000  Uiso   1.00
C20    C     0.19995   0.17267   0.04938   0.00000  Uiso   1.00
C21    C     0.06764   0.13637   0.46966   0.00000  Uiso   1.00
C22    C     0.26411   0.19925   0.03050   0.00000  Uiso   1.00
C23    C     0.17577   0.17564   0.47770   0.00000  Uiso   1.00
C24    C     0.15479   0.16251   0.02290   0.00000  Uiso   1.00
Cu25   Cu    0.10737   0.16108   0.24517   0.00000  Uiso   1.00
Cu26   Cu    0.22596   0.17225   0.25483   0.00000  Uiso   1.00
H27    H     0.33236   0.10712   0.02931   0.00000  Uiso   1.00
H28    H     0.33202   0.22930   0.47058   0.00000  Uiso   1.00
H29    H     0.32158   0.21258   0.12091   0.00000  Uiso   1.00
H30    H     0.01097   0.11697   0.37942   0.00000  Uiso   1.00
H31    H     0.06454   0.13660   0.07312   0.00000  Uiso   1.00
H32    H     0.26337   0.20356   0.42659   0.00000  Uiso   1.00
N33    N     0.31506   0.18068   0.26212   0.00000  Uiso   1.00
N34    N     0.01827   0.15265   0.23788   0.00000  Uiso   1.00
O35    O     0.12815   0.23809   0.24686   0.00000  Uiso   1.00
O36    O     0.20518   0.09524   0.25314   0.00000  Uiso   1.00
O37    O     0.22829   0.24753   0.25503   0.00000  Uiso   1.00
O38    O     0.10504   0.08580   0.24498   0.00000  Uiso   1.00
O39    O     0.08851   0.15930   0.30855   0.00000  Uiso   1.00
O40    O     0.24482   0.17403   0.19145   0.00000  Uiso   1.00
O41    O     0.18866   0.16874   0.31671   0.00000  Uiso   1.00
O42    O     0.14468   0.16460   0.18329   0.00000  Uiso   1.00
O43    O     0.12404   0.13077   0.11463   0.00000  Uiso   1.00
C44    C     0.12269   0.07765   0.11592   0.00000  Uiso   1.00
H45    H     0.15011   0.07015   0.13870   0.00000  Uiso   1.00
H46    H     0.14387   0.06446   0.08316   0.00000  Uiso   1.00
C47    C     0.05288   0.04770   0.13054   0.00000  Uiso   1.00
H48    H     0.02172   0.07387   0.14593   0.00000  Uiso   1.00
H49    H     0.03614   0.03237   0.10176   0.00000  Uiso   1.00
C50    C     0.04314   0.00384   0.16285   0.00000  Uiso   1.00
H51    H     0.07827   0.31290   0.15148   0.00000  Uiso   1.00
H52    H     0.32783   0.31235   0.16743   0.00000  Uiso   1.00
H53    H     0.04823   0.02013   0.19448   0.00000  Uiso   1.00
O54    O     0.19910   0.21593   0.38818   0.00000  Uiso   1.00
C55    C     0.18328   0.26455   0.39594   0.00000  Uiso   1.00
H56    H     0.21224   0.28642   0.41693   0.00000  Uiso   1.00
H57    H     0.13210   0.26277   0.41255   0.00000  Uiso   1.00
C58    C     0.19805   0.29338   0.35301   0.00000  Uiso   1.00
H59    H     0.17362   0.26822   0.33143   0.00000  Uiso   1.00
H60    H     0.17712   0.32778   0.35745   0.00000  Uiso   1.00
C61    C     0.26977   0.30866   0.33234   0.00000  Uiso   1.00
H62    H     0.29607   0.32777   0.35580   0.00000  Uiso   1.00
H63    H     0.27986   0.00264   0.30486   0.00000  Uiso   1.00
H64    H     0.28795   0.27398   0.32042   0.00000  Uiso   1.00
O65    O     0.29459   0.09583   0.46547   0.00000  Uiso   1.00
C66    C     0.26869   0.05326   0.44290   0.00000  Uiso   1.00
H67    H     0.24241   0.02175   0.46691   0.00000  Uiso   1.00
H68    H     0.30553   0.03631   0.42022   0.00000  Uiso   1.00
C69    C     0.22368   0.06879   0.41927   0.00000  Uiso   1.00
H70    H     0.23312   0.11124   0.41584   0.00000  Uiso   1.00
H71    H     0.23412   0.05537   0.38581   0.00000  Uiso   1.00
C72    C     0.15366   0.04821   0.44223   0.00000  Uiso   1.00
H73    H     0.14215   0.00596   0.44730   0.00000  Uiso   1.00
H74    H     0.12320   0.05749   0.42251   0.00000  Uiso   1.00
H75    H     0.14257   0.06571   0.47445   0.00000  Uiso   1.00
O76    O     0.03768   0.24098   0.03420   0.00000  Uiso   1.00
C77    C     0.07695   0.26186   0.06187   0.00000  Uiso   1.00
H78    H     0.08808   0.23061   0.07848   0.00000  Uiso   1.00
H79    H     0.05302   0.28635   0.08610   0.00000  Uiso   1.00
C80    C     0.13929   0.29566   0.03561   0.00000  Uiso   1.00
H81    H     0.15806   0.27583   0.00556   0.00000  Uiso   1.00
H82    H     0.12973   0.33230   0.02644   0.00000  Uiso   1.00
C83    C     0.18974   0.30799   0.06135   0.00000  Uiso   1.00
H84    H     0.20529   0.27285   0.06680   0.00000  Uiso   1.00
H85    H     0.17083   0.32305   0.09354   0.00000  Uiso   1.00
H86    H     0.23179   0.00370   0.04342   0.00000  Uiso   1.00
F87    F     0.25285   0.01756   0.23756   0.00000  Uiso   1.00
F88    F     0.08153   0.31591   0.25794   0.00000  Uiso   1.00
F89    F     0.32892   0.19483   0.29959   0.00000  Uiso   1.00
F90    F     0.00424   0.13832   0.20055   0.00000  Uiso   1.00
C91    C     0.51579   0.26660   0.24917   0.00000  Uiso   1.00
C92    C     0.48510   0.06675   0.24887   0.00000  Uiso   1.00
C93    C     0.42241   0.14060   0.03971   0.00000  Uiso   1.00
C94    C     0.57445   0.19780   0.46051   0.00000  Uiso   1.00
C95    C     0.38129   0.12568   0.01376   0.00000  Uiso   1.00
C96    C     0.61641   0.21110   0.48631   0.00000  Uiso   1.00
C97    C     0.52529   0.32222   0.24617   0.00000  Uiso   1.00
C98    C     0.47579   0.01113   0.25042   0.00000  Uiso   1.00
C99    C     0.46131   0.16265   0.33302   0.00000  Uiso   1.00
C100   C     0.53854   0.17014   0.16695   0.00000  Uiso   1.00
C101   C     0.43814   0.15730   0.38052   0.00000  Uiso   1.00
C102   C     0.56117   0.17503   0.11929   0.00000  Uiso   1.00
C103   C     0.35708   0.11958   0.44444   0.00000  Uiso   1.00
C104   C     0.64258   0.21421   0.05550   0.00000  Uiso   1.00
C105   C     0.37662   0.13002   0.39964   0.00000  Uiso   1.00
C106   C     0.62312   0.20129   0.10010   0.00000  Uiso   1.00
C107   C     0.47993   0.17776   0.40645   0.00000  Uiso   1.00
C108   C     0.51751   0.15795   0.09391   0.00000  Uiso   1.00
C109   C     0.46437   0.16397   0.45106   0.00000  Uiso   1.00
C110   C     0.53328   0.17267   0.04938   0.00000  Uiso   1.00
C111   C     0.40098   0.13637   0.46966   0.00000  Uiso   1.00
C112   C     0.59744   0.19925   0.03050   0.00000  Uiso   1.00
C113   C     0.50910   0.17564   0.47770   0.00000  Uiso   1.00
C114   C     0.48812   0.16251   0.02290   0.00000  Uiso   1.00
Cu115  Cu    0.44071   0.16108   0.24517   0.00000  Uiso   1.00
Cu116  Cu    0.55929   0.17225   0.25483   0.00000  Uiso   1.00
H117   H     0.66569   0.10712   0.02931   0.00000  Uiso   1.00
H118   H     0.66535   0.22930   0.47058   0.00000  Uiso   1.00
H119   H     0.65492   0.21258   0.12091   0.00000  Uiso   1.00
H120   H     0.34430   0.11697   0.37942   0.00000  Uiso   1.00
H121   H     0.39787   0.13660   0.07312   0.00000  Uiso   1.00
H122   H     0.59671   0.20356   0.42659   0.00000  Uiso   1.00
N123   N     0.64839   0.18068   0.26212   0.00000  Uiso   1.00
N124   N     0.35161   0.15265   0.23788   0.00000  Uiso   1.00
O125   O     0.46148   0.23809   0.24686   0.00000  Uiso   1.00
O126   O     0.53852   0.09524   0.25314   0.00000  Uiso   1.00
O127   O     0.56163   0.24753   0.25503   0.00000  Uiso   1.00
O128   O     0.43837   0.08580   0.24498   0.00000  Uiso   1.00
O129   O     0.42185   0.15930   0.30855   0.00000  Uiso   1.00
O130   O     0.57815   0.17403   0.19145   0.00000  Uiso   1.00
O131   O     0.52199   0.16874   0.31671   0.00000  Uiso   1.00
O132   O     0.47801   0.16460   0.18329   0.00000  Uiso   1.00
O133   O     0.45738   0.13077   0.11463   0.00000  Uiso   1.00
C134   C     0.45602   0.07765   0.11592   0.00000  Uiso   1.00
H135   H     0.48344   0.07015   0.13870   0.00000  Uiso   1.00
H136   H     0.47721   0.06446   0.08316   0.00000  Uiso   1.00
C137   C     0.38621   0.04770   0.13054   0.00000  Uiso   1.00
H138   H     0.35506   0.07387   0.14593   0.00000  Uiso   1.00
H139   H     0.36948   0.03237   0.10176   0.00000  Uiso   1.00
C140   C     0.37648   0.00384   0.16285   0.00000  Uiso   1.00
H141   H     0.41160   0.31290   0.15148   0.00000  Uiso   1.00
H142   H     0.66116   0.31235   0.16743   0.00000  Uiso   1.00
H143   H     0.38156   0.02013   0.19448   0.00000  Uiso   1.00
O144   O     0.53243   0.21593   0.38818   0.00000  Uiso   1.00
C145   C     0.51661   0.26455   0.39594   0.00000  Uiso   1.00
H146   H     0.54557   0.28642   0.41693   0.00000  Uiso   1.00
H147   H     0.46543   0.26277   0.41255   0.00000  Uiso   1.00
C148   C     0.53138   0.29338   0.35301   0.00000  Uiso   1.00
H149   H     0.50695   0.26822   0.33143   0.00000  Uiso   1.00
H150   H     0.51045   0.32778   0.35745   0.00000  Uiso   1.00
C151   C     0.60310   0.30866   0.33234   0.00000  Uiso   1.00
H152   H     0.62940   0.32777   0.35580   0.00000  Uiso   1.00
H153   H     0.61319   0.00264   0.30486   0.00000  Uiso   1.00
H154   H     0.62128   0.27398   0.32042   0.00000  Uiso   1.00
O155   O     0.62793   0.09583   0.46547   0.00000  Uiso   1.00
C156   C     0.60202   0.05326   0.44290   0.00000  Uiso   1.00
H157   H     0.57574   0.02175   0.46691   0.00000  Uiso   1.00
H158   H     0.63886   0.03631   0.42022   0.00000  Uiso   1.00
C159   C     0.55701   0.06879   0.41927   0.00000  Uiso   1.00
H160   H     0.56645   0.11124   0.41584   0.00000  Uiso   1.00
H161   H     0.56745   0.05537   0.38581   0.00000  Uiso   1.00
C162   C     0.48699   0.04821   0.44223   0.00000  Uiso   1.00
H163   H     0.47548   0.00596   0.44730   0.00000  Uiso   1.00
H164   H     0.45653   0.05749   0.42251   0.00000  Uiso   1.00
H165   H     0.47590   0.06571   0.47445   0.00000  Uiso   1.00
O166   O     0.37101   0.24098   0.03420   0.00000  Uiso   1.00
C167   C     0.41028   0.26186   0.06187   0.00000  Uiso   1.00
H168   H     0.42141   0.23061   0.07848   0.00000  Uiso   1.00
H169   H     0.38636   0.28635   0.08610   0.00000  Uiso   1.00
C170   C     0.47262   0.29566   0.03561   0.00000  Uiso   1.00
H171   H     0.49140   0.27583   0.00556   0.00000  Uiso   1.00
H172   H     0.46307   0.33230   0.02644   0.00000  Uiso   1.00
C173   C     0.52307   0.30799   0.06135   0.00000  Uiso   1.00
H174   H     0.53863   0.27285   0.06680   0.00000  Uiso   1.00
H175   H     0.50416   0.32305   0.09354   0.00000  Uiso   1.00
H176   H     0.56512   0.00370   0.04342   0.00000  Uiso   1.00
F177   F     0.58618   0.01756   0.23756   0.00000  Uiso   1.00
F178   F     0.41486   0.31591   0.25794   0.00000  Uiso   1.00
F179   F     0.66225   0.19483   0.29959   0.00000  Uiso   1.00
F180   F     0.33757   0.13832   0.20055   0.00000  Uiso   1.00
C181   C     0.84913   0.26660   0.24917   0.00000  Uiso   1.00
C182   C     0.81844   0.06675   0.24887   0.00000  Uiso   1.00
C183   C     0.75574   0.14060   0.03971   0.00000  Uiso   1.00
C184   C     0.90779   0.19780   0.46051   0.00000  Uiso   1.00
C185   C     0.71462   0.12568   0.01376   0.00000  Uiso   1.00
C186   C     0.94974   0.21110   0.48631   0.00000  Uiso   1.00
C187   C     0.85863   0.32222   0.24617   0.00000  Uiso   1.00
C188   C     0.80913   0.01113   0.25042   0.00000  Uiso   1.00
C189   C     0.79464   0.16265   0.33302   0.00000  Uiso   1.00
C190   C     0.87187   0.17014   0.16695   0.00000  Uiso   1.00
C191   C     0.77147   0.15730   0.38052   0.00000  Uiso   1.00
C192   C     0.89451   0.17503   0.11929   0.00000  Uiso   1.00
C193   C     0.69041   0.11958   0.44444   0.00000  Uiso   1.00
C194   C     0.97592   0.21421   0.05550   0.00000  Uiso   1.00
C195   C     0.70995   0.13002   0.39964   0.00000  Uiso   1.00
C196   C     0.95646   0.20129   0.10010   0.00000  Uiso   1.00
C197   C     0.81326   0.17776   0.40645   0.00000  Uiso   1.00
C198   C     0.85084   0.15795   0.09391   0.00000  Uiso   1.00
C199   C     0.79770   0.16397   0.45106   0.00000  Uiso   1.00
C200   C     0.86662   0.17267   0.04938   0.00000  Uiso   1.00
C201   C     0.73431   0.13637   0.46966   0.00000  Uiso   1.00
C202   C     0.93077   0.19925   0.03050   0.00000  Uiso   1.00
C203   C     0.84243   0.17564   0.47770   0.00000  Uiso   1.00
C204   C     0.82146   0.16251   0.02290   0.00000  Uiso   1.00
Cu205  Cu    0.77404   0.16108   0.24517   0.00000  Uiso   1.00
Cu206  Cu    0.89263   0.17225   0.25483   0.00000  Uiso   1.00
H207   H     0.99902   0.10712   0.02931   0.00000  Uiso   1.00
H208   H     0.99868   0.22930   0.47058   0.00000  Uiso   1.00
H209   H     0.98825   0.21258   0.12091   0.00000  Uiso   1.00
H210   H     0.67764   0.11697   0.37942   0.00000  Uiso   1.00
H211   H     0.73121   0.13660   0.07312   0.00000  Uiso   1.00
H212   H     0.93004   0.20356   0.42659   0.00000  Uiso   1.00
N213   N     0.98173   0.18068   0.26212   0.00000  Uiso   1.00
N214   N     0.68494   0.15265   0.23788   0.00000  Uiso   1.00
O215   O     0.79482   0.23809   0.24686   0.00000  Uiso   1.00
O216   O     0.87185   0.09524   0.25314   0.00000  Uiso   1.00
O217   O     0.89496   0.24753   0.25503   0.00000  Uiso   1.00
O218   O     0.77171   0.08580   0.24498   0.00000  Uiso   1.00
O219   O     0.75518   0.15930   0.30855   0.00000  Uiso   1.00
O220   O     0.91149   0.17403   0.19145   0.00000  Uiso   1.00
O221   O     0.85532   0.16874   0.31671   0.00000  Uiso   1.00
O222   O     0.81134   0.16460   0.18329   0.00000  Uiso   1.00
O223   O     0.79071   0.13077   0.11463   0.00000  Uiso   1.00
C224   C     0.78935   0.07765   0.11592   0.00000  Uiso   1.00
H225   H     0.81677   0.07015   0.13870   0.00000  Uiso   1.00
H226   H     0.81054   0.06446   0.08316   0.00000  Uiso   1.00
C227   C     0.71954   0.04770   0.13054   0.00000  Uiso   1.00
H228   H     0.68839   0.07387   0.14593   0.00000  Uiso   1.00
H229   H     0.70281   0.03237   0.10176   0.00000  Uiso   1.00
C230   C     0.70981   0.00384   0.16285   0.00000  Uiso   1.00
H231   H     0.74493   0.31290   0.15148   0.00000  Uiso   1.00
H232   H     0.99449   0.31235   0.16743   0.00000  Uiso   1.00
H233   H     0.71490   0.02013   0.19448   0.00000  Uiso   1.00
O234   O     0.86576   0.21593   0.38818   0.00000  Uiso   1.00
C235   C     0.84994   0.26455   0.39594   0.00000  Uiso   1.00
H236   H     0.87890   0.28642   0.41693   0.00000  Uiso   1.00
H237   H     0.79877   0.26277   0.41255   0.00000  Uiso   1.00
C238   C     0.86471   0.29338   0.35301   0.00000  Uiso   1.00
H239   H     0.84028   0.26822   0.33143   0.00000  Uiso   1.00
H240   H     0.84378   0.32778   0.35745   0.00000  Uiso   1.00
C241   C     0.93643   0.30866   0.33234   0.00000  Uiso   1.00
H242   H     0.96274   0.32777   0.35580   0.00000  Uiso   1.00
H243   H     0.94653   0.00264   0.30486   0.00000  Uiso   1.00
H244   H     0.95461   0.27398   0.32042   0.00000  Uiso   1.00
O245   O     0.96126   0.09583   0.46547   0.00000  Uiso   1.00
C246   C     0.93535   0.05326   0.44290   0.00000  Uiso   1.00
H247   H     0.90908   0.02175   0.46691   0.00000  Uiso   1.00
H248   H     0.97219   0.03631   0.42022   0.00000  Uiso   1.00
C249   C     0.89034   0.06879   0.41927   0.00000  Uiso   1.00
H250   H     0.89979   0.11124   0.41584   0.00000  Uiso   1.00
H251   H     0.90079   0.05537   0.38581   0.00000  Uiso   1.00
C252   C     0.82032   0.04821   0.44223   0.00000  Uiso   1.00
H253   H     0.80881   0.00596   0.44730   0.00000  Uiso   1.00
H254   H     0.78987   0.05749   0.42251   0.00000  Uiso   1.00
H255   H     0.80923   0.06571   0.47445   0.00000  Uiso   1.00
O256   O     0.70434   0.24098   0.03420   0.00000  Uiso   1.00
C257   C     0.74361   0.26186   0.06187   0.00000  Uiso   1.00
H258   H     0.75474   0.23061   0.07848   0.00000  Uiso   1.00
H259   H     0.71969   0.28635   0.08610   0.00000  Uiso   1.00
C260   C     0.80596   0.29566   0.03561   0.00000  Uiso   1.00
H261   H     0.82473   0.27583   0.00556   0.00000  Uiso   1.00
H262   H     0.79640   0.33230   0.02644   0.00000  Uiso   1.00
C263   C     0.85641   0.30799   0.06135   0.00000  Uiso   1.00
H264   H     0.87196   0.27285   0.06680   0.00000  Uiso   1.00
H265   H     0.83749   0.32305   0.09354   0.00000  Uiso   1.00
H266   H     0.89845   0.00370   0.04342   0.00000  Uiso   1.00
F267   F     0.91952   0.01756   0.23756   0.00000  Uiso   1.00
F268   F     0.74820   0.31591   0.25794   0.00000  Uiso   1.00
F269   F     0.99559   0.19483   0.29959   0.00000  Uiso   1.00
F270   F     0.67090   0.13832   0.20055   0.00000  Uiso   1.00
C271   C     0.18246   0.59993   0.24917   0.00000  Uiso   1.00
C272   C     0.15177   0.40008   0.24887   0.00000  Uiso   1.00
C273   C     0.08908   0.47393   0.03971   0.00000  Uiso   1.00
C274   C     0.24112   0.53113   0.46051   0.00000  Uiso   1.00
C275   C     0.04795   0.45901   0.01376   0.00000  Uiso   1.00
C276   C     0.28307   0.54443   0.48631   0.00000  Uiso   1.00
C277   C     0.19196   0.65555   0.24617   0.00000  Uiso   1.00
C278   C     0.14246   0.34446   0.25042   0.00000  Uiso   1.00
C279   C     0.12797   0.49598   0.33302   0.00000  Uiso   1.00
C280   C     0.20521   0.50347   0.16695   0.00000  Uiso   1.00
C281   C     0.10480   0.49063   0.38052   0.00000  Uiso   1.00
C282   C     0.22784   0.50836   0.11929   0.00000  Uiso   1.00
C283   C     0.02375   0.45291   0.44444   0.00000  Uiso   1.00
C284   C     0.30925   0.54754   0.05550   0.00000  Uiso   1.00
C285   C     0.04329   0.46336   0.39964   0.00000  Uiso   1.00
C286   C     0.28979   0.53462   0.10010   0.00000  Uiso   1.00
C287   C     0.14660   0.51109   0.40645   0.00000  Uiso   1.00
C288   C     0.18417   0.49128   0.09391   0.00000  Uiso   1.00
C289   C     0.13103   0.49730   0.45106   0.00000  Uiso   1.00
C290   C     0.19995   0.50600   0.04938   0.00000  Uiso   1.00
C291   C     0.06764   0.46970   0.46966   0.00000  Uiso   1.00
C292   C     0.26411   0.53258   0.03050   0.00000  Uiso   1.00
C293   C     0.17577   0.50898   0.47770   0.00000  Uiso   1.00
C294   C     0.15479   0.49584   0.02290   0.00000  Uiso   1.00
Cu295  Cu    0.10737   0.49441   0.24517   0.00000  Uiso   1.00
Cu296  Cu    0.22596   0.50559   0.25483   0.00000  Uiso   1.00
H297   H     0.33236   0.44045   0.02931   0.00000  Uiso   1.00
H298   H     0.33202   0.56264   0.47058   0.00000  Uiso   1.00
H299   H     0.32158   0.54591   0.12091   0.00000  Uiso   1.00
H300   H     0.01097   0.45030   0.37942   0.00000  Uiso   1.00
H301   H     0.06454   0.46994   0.07312   0.00000  Uiso   1.00
H302   H     0.26337   0.53689   0.42659   0.00000  Uiso   1.00
N303   N     0.31506   0.51401   0.26212   0.00000  Uiso   1.00
N304   N     0.01827   0.48599   0.23788   0.00000  Uiso   1.00
O305   O     0.12815   0.57142   0.24686   0.00000  Uiso   1.00
O306   O     0.20518   0.42858   0.25314   0.00000  Uiso   1.00
O307   O     0.22829   0.58086   0.25503   0.00000  Uiso   1.00
O308   O     0.10504   0.41914   0.24498   0.00000  Uiso   1.00
O309   O     0.08851   0.49263   0.30855   0.00000  Uiso   1.00
O310   O     0.24482   0.50737   0.19145   0.00000  Uiso   1.00
O311   O     0.18866   0.50207   0.31671   0.00000  Uiso   1.00
O312   O     0.14468   0.49793   0.18329   0.00000  Uiso   1.00
O313   O     0.12404   0.46410   0.11463   0.00000  Uiso   1.00
C314   C     0.12269   0.41098   0.11592   0.00000  Uiso   1.00
H315   H     0.15011   0.40348   0.13870   0.00000  Uiso   1.00
H316   H     0.14387   0.39780   0.08316   0.00000  Uiso   1.00
C317   C     0.05288   0.38103   0.13054   0.00000  Uiso   1.00
H318   H     0.02172   0.40720   0.14593   0.00000  Uiso   1.00
H319   H     0.03614   0.36570   0.10176   0.00000  Uiso   1.00
C320   C     0.04314   0.33718   0.16285   0.00000  Uiso   1.00
H321   H     0.07827   0.64623   0.15148   0.00000  Uiso   1.00
H322   H     0.32783   0.64569   0.16743   0.00000  Uiso   1.00
H323   H     0.04823   0.35347   0.19448   0.00000  Uiso   1.00
O324   O     0.19910   0.54927   0.38818   0.00000  Uiso   1.00
C325   C     0.18328   0.59789   0.39594   0.00000  Uiso   1.00
H326   H     0.21224   0.61975   0.41693   0.00000  Uiso   1.00
H327   H     0.13210   0.59611   0.41255   0.00000  Uiso   1.00
C328   C     0.19805   0.62671   0.35301   0.00000  Uiso   1.00
H329   H     0.17362   0.60155   0.33143   0.00000  Uiso   1.00
H330   H     0.17712   0.66111   0.35745   0.00000  Uiso   1.00
C331   C     0.26977   0.64200   0.33234   0.00000  Uiso   1.00
H332   H     0.29607   0.66111   0.35580   0.00000  Uiso   1.00
H333   H     0.27986   0.33598   0.30486   0.00000  Uiso   1.00
H334   H     0.28795   0.60731   0.32042   0.00000  Uiso   1.00
O335   O     0.29459   0.42916   0.46547   0.00000  Uiso   1.00
C336   C     0.26869   0.38659   0.44290   0.00000  Uiso   1.00
H337   H     0.24241   0.35509   0.46691   0.00000  Uiso   1.00
H338   H     0.30553   0.36965   0.42022   0.00000  Uiso   1.00
C339   C     0.22368   0.40212   0.41927   0.00000  Uiso   1.00
H340   H     0.23312   0.44458   0.41584   0.00000  Uiso   1.00
H341   H     0.23412   0.38870   0.38581   0.00000  Uiso   1.00
C342   C     0.15366   0.38155   0.44223   0.00000  Uiso   1.00
H343   H     0.14215   0.33929   0.44730   0.00000  Uiso   1.00
H344   H     0.12320   0.39082   0.42251   0.00000  Uiso   1.00
H345   H     0.14257   0.39905   0.47445   0.00000  Uiso   1.00
O346   O     0.03768   0.57431   0.03420   0.00000  Uiso   1.00
C347   C     0.07695   0.59519   0.06187   0.00000  Uiso   1.00
H348   H     0.08808   0.56394   0.07848   0.00000  Uiso   1.00
H349   H     0.05302   0.61969   0.08610   0.00000  Uiso   1.00
C350   C     0.13929   0.62899   0.03561   0.00000  Uiso   1.00
H351   H     0.15806   0.60916   0.00556   0.00000  Uiso   1.00
H352   H     0.12973   0.66563   0.02644   0.00000  Uiso   1.00
C353   C     0.18974   0.64132   0.06135   0.00000  Uiso   1.00
H354   H     0.20529   0.60619   0.06680   0.00000  Uiso   1.00
H355   H     0.17083   0.65639   0.09354   0.00000  Uiso   1.00
H356   H     0.23179   0.33704   0.04342   0.00000  Uiso   1.00
F357   F     0.25285   0.35089   0.23756   0.00000  Uiso   1.00
F358   F     0.08153   0.64924   0.25794   0.00000  Uiso   1.00
F359   F     0.32892   0.52816   0.29959   0.00000  Uiso   1.00
F360   F     0.00424   0.47165   0.20055   0.00000  Uiso   1.00
C361   C     0.51579   0.59993   0.24917   0.00000  Uiso   1.00
C362   C     0.48510   0.40008   0.24887   0.00000  Uiso   1.00
C363   C     0.42241   0.47393   0.03971   0.00000  Uiso   1.00
C364   C     0.57445   0.53113   0.46051   0.00000  Uiso   1.00
C365   C     0.38129   0.45901   0.01376   0.00000  Uiso   1.00
C366   C     0.61641   0.54443   0.48631   0.00000  Uiso   1.00
C367   C     0.52529   0.65555   0.24617   0.00000  Uiso   1.00
C368   C     0.47579   0.34446   0.25042   0.00000  Uiso   1.00
C369   C     0.46131   0.49598   0.33302   0.00000  Uiso   1.00
C370   C     0.53854   0.50347   0.16695   0.00000  Uiso   1.00
C371   C     0.43814   0.49063   0.38052   0.00000  Uiso   1.00
C372   C     0.56117   0.50836   0.11929   0.00000  Uiso   1.00
C373   C     0.35708   0.45291   0.44444   0.00000  Uiso   1.00
C374   C     0.64258   0.54754   0.05550   0.00000  Uiso   1.00
C375   C     0.37662   0.46336   0.39964   0.00000  Uiso   1.00
C376   C     0.62312   0.53462   0.10010   0.00000  Uiso   1.00
C377   C     0.47993   0.51109   0.40645   0.00000  Uiso   1.00
C378   C     0.51751   0.49128   0.09391   0.00000  Uiso   1.00
C379   C     0.46437   0.49730   0.45106   0.00000  Uiso   1.00
C380   C     0.53328   0.50600   0.04938   0.00000  Uiso   1.00
C381   C     0.40098   0.46970   0.46966   0.00000  Uiso   1.00
C382   C     0.59744   0.53258   0.03050   0.00000  Uiso   1.00
C383   C     0.50910   0.50898   0.47770   0.00000  Uiso   1.00
C384   C     0.48812   0.49584   0.02290   0.00000  Uiso   1.00
Cu385  Cu    0.44071   0.49441   0.24517   0.00000  Uiso   1.00
Cu386  Cu    0.55929   0.50559   0.25483   0.00000  Uiso   1.00
H387   H     0.66569   0.44045   0.02931   0.00000  Uiso   1.00
H388   H     0.66535   0.56264   0.47058   0.00000  Uiso   1.00
H389   H     0.65492   0.54591   0.12091   0.00000  Uiso   1.00
H390   H     0.34430   0.45030   0.37942   0.00000  Uiso   1.00
H391   H     0.39787   0.46994   0.07312   0.00000  Uiso   1.00
H392   H     0.59671   0.53689   0.42659   0.00000  Uiso   1.00
N393   N     0.64839   0.51401   0.26212   0.00000  Uiso   1.00
N394   N     0.35161   0.48599   0.23788   0.00000  Uiso   1.00
O395   O     0.46148   0.57142   0.24686   0.00000  Uiso   1.00
O396   O     0.53852   0.42858   0.25314   0.00000  Uiso   1.00
O397   O     0.56163   0.58086   0.25503   0.00000  Uiso   1.00
O398   O     0.43837   0.41914   0.24498   0.00000  Uiso   1.00
O399   O     0.42185   0.49263   0.30855   0.00000  Uiso   1.00
O400   O     0.57815   0.50737   0.19145   0.00000  Uiso   1.00
O401   O     0.52199   0.50207   0.31671   0.00000  Uiso   1.00
O402   O     0.47801   0.49793   0.18329   0.00000  Uiso   1.00
O403   O     0.45738   0.46410   0.11463   0.00000  Uiso   1.00
C404   C     0.45602   0.41098   0.11592   0.00000  Uiso   1.00
H405   H     0.48344   0.40348   0.13870   0.00000  Uiso   1.00
H406   H     0.47721   0.39780   0.08316   0.00000  Uiso   1.00
C407   C     0.38621   0.38103   0.13054   0.00000  Uiso   1.00
H408   H     0.35506   0.40720   0.14593   0.00000  Uiso   1.00
H409   H     0.36948   0.36570   0.10176   0.00000  Uiso   1.00
C410   C     0.37648   0.33718   0.16285   0.00000  Uiso   1.00
H411   H     0.41160   0.64623   0.15148   0.00000  Uiso   1.00
H412   H     0.66116   0.64569   0.16743   0.00000  Uiso   1.00
H413   H     0.38156   0.35347   0.19448   0.00000  Uiso   1.00
O414   O     0.53243   0.54927   0.38818   0.00000  Uiso   1.00
C415   C     0.51661   0.59789   0.39594   0.00000  Uiso   1.00
H416   H     0.54557   0.61975   0.41693   0.00000  Uiso   1.00
H417   H     0.46543   0.59611   0.41255   0.00000  Uiso   1.00
C418   C     0.53138   0.62671   0.35301   0.00000  Uiso   1.00
H419   H     0.50695   0.60155   0.33143   0.00000  Uiso   1.00
H420   H     0.51045   0.66111   0.35745   0.00000  Uiso   1.00
C421   C     0.60310   0.64200   0.33234   0.00000  Uiso   1.00
H422   H     0.62940   0.66111   0.35580   0.00000  Uiso   1.00
H423   H     0.61319   0.33598   0.30486   0.00000  Uiso   1.00
H424   H     0.62128   0.60731   0.32042   0.00000  Uiso   1.00
O425   O     0.62793   0.42916   0.46547   0.00000  Uiso   1.00
C426   C     0.60202   0.38659   0.44290   0.00000  Uiso   1.00
H427   H     0.57574   0.35509   0.46691   0.00000  Uiso   1.00
H428   H     0.63886   0.36965   0.42022   0.00000  Uiso   1.00
C429   C     0.55701   0.40212   0.41927   0.00000  Uiso   1.00
H430   H     0.56645   0.44458   0.41584   0.00000  Uiso   1.00
H431   H     0.56745   0.38870   0.38581   0.00000  Uiso   1.00
C432   C     0.48699   0.38155   0.44223   0.00000  Uiso   1.00
H433   H     0.47548   0.33929   0.44730   0.00000  Uiso   1.00
H434   H     0.45653   0.39082   0.42251   0.00000  Uiso   1.00
H435   H     0.47590   0.39905   0.47445   0.00000  Uiso   1.00
O436   O     0.37101   0.57431   0.03420   0.00000  Uiso   1.00
C437   C     0.41028   0.59519   0.06187   0.00000  Uiso   1.00
H438   H     0.42141   0.56394   0.07848   0.00000  Uiso   1.00
H439   H     0.38636   0.61969   0.08610   0.00000  Uiso   1.00
C440   C     0.47262   0.62899   0.03561   0.00000  Uiso   1.00
H441   H     0.49140   0.60916   0.00556   0.00000  Uiso   1.00
H442   H     0.46307   0.66563   0.02644   0.00000  Uiso   1.00
C443   C     0.52307   0.64132   0.06135   0.00000  Uiso   1.00
H444   H     0.53863   0.60619   0.06680   0.00000  Uiso   1.00
H445   H     0.50416   0.65639   0.09354   0.00000  Uiso   1.00
H446   H     0.56512   0.33704   0.04342   0.00000  Uiso   1.00
F447   F     0.58618   0.35089   0.23756   0.00000  Uiso   1.00
F448   F     0.41486   0.64924   0.25794   0.00000  Uiso   1.00
F449   F     0.66225   0.52816   0.29959   0.00000  Uiso   1.00
F450   F     0.33757   0.47165   0.20055   0.00000  Uiso   1.00
C451   C     0.84913   0.59993   0.24917   0.00000  Uiso   1.00
C452   C     0.81844   0.40008   0.24887   0.00000  Uiso   1.00
C453   C     0.75574   0.47393   0.03971   0.00000  Uiso   1.00
C454   C     0.90779   0.53113   0.46051   0.00000  Uiso   1.00
C455   C     0.71462   0.45901   0.01376   0.00000  Uiso   1.00
C456   C     0.94974   0.54443   0.48631   0.00000  Uiso   1.00
C457   C     0.85863   0.65555   0.24617   0.00000  Uiso   1.00
C458   C     0.80913   0.34446   0.25042   0.00000  Uiso   1.00
C459   C     0.79464   0.49598   0.33302   0.00000  Uiso   1.00
C460   C     0.87187   0.50347   0.16695   0.00000  Uiso   1.00
C461   C     0.77147   0.49063   0.38052   0.00000  Uiso   1.00
C462   C     0.89451   0.50836   0.11929   0.00000  Uiso   1.00
C463   C     0.69041   0.45291   0.44444   0.00000  Uiso   1.00
C464   C     0.97592   0.54754   0.05550   0.00000  Uiso   1.00
C465   C     0.70995   0.46336   0.39964   0.00000  Uiso   1.00
C466   C     0.95646   0.53462   0.10010   0.00000  Uiso   1.00
C467   C     0.81326   0.51109   0.40645   0.00000  Uiso   1.00
C468   C     0.85084   0.49128   0.09391   0.00000  Uiso   1.00
C469   C     0.79770   0.49730   0.45106   0.00000  Uiso   1.00
C470   C     0.86662   0.50600   0.04938   0.00000  Uiso   1.00
C471   C     0.73431   0.46970   0.46966   0.00000  Uiso   1.00
C472   C     0.93077   0.53258   0.03050   0.00000  Uiso   1.00
C473   C     0.84243   0.50898   0.47770   0.00000  Uiso   1.00
C474   C     0.82146   0.49584   0.02290   0.00000  Uiso   1.00
Cu475  Cu    0.77404   0.49441   0.24517   0.00000  Uiso   1.00
Cu476  Cu    0.89263   0.50559   0.25483   0.00000  Uiso   1.00
H477   H     0.99902   0.44045   0.02931   0.00000  Uiso   1.00
H478   H     0.99868   0.56264   0.47058   0.00000  Uiso   1.00
H479   H     0.98825   0.54591   0.12091   0.00000  Uiso   1.00
H480   H     0.67764   0.45030   0.37942   0.00000  Uiso   1.00
H481   H     0.73121   0.46994   0.07312   0.00000  Uiso   1.00
H482   H     0.93004   0.53689   0.42659   0.00000  Uiso   1.00
N483   N     0.98173   0.51401   0.26212   0.00000  Uiso   1.00
N484   N     0.68494   0.48599   0.23788   0.00000  Uiso   1.00
O485   O     0.79482   0.57142   0.24686   0.00000  Uiso   1.00
O486   O     0.87185   0.42858   0.25314   0.00000  Uiso   1.00
O487   O     0.89496   0.58086   0.25503   0.00000  Uiso   1.00
O488   O     0.77171   0.41914   0.24498   0.00000  Uiso   1.00
O489   O     0.75518   0.49263   0.30855   0.00000  Uiso   1.00
O490   O     0.91149   0.50737   0.19145   0.00000  Uiso   1.00
O491   O     0.85532   0.50207   0.31671   0.00000  Uiso   1.00
O492   O     0.81134   0.49793   0.18329   0.00000  Uiso   1.00
O493   O     0.79071   0.46410   0.11463   0.00000  Uiso   1.00
C494   C     0.78935   0.41098   0.11592   0.00000  Uiso   1.00
H495   H     0.81677   0.40348   0.13870   0.00000  Uiso   1.00
H496   H     0.81054   0.39780   0.08316   0.00000  Uiso   1.00
C497   C     0.71954   0.38103   0.13054   0.00000  Uiso   1.00
H498   H     0.68839   0.40720   0.14593   0.00000  Uiso   1.00
H499   H     0.70281   0.36570   0.10176   0.00000  Uiso   1.00
C500   C     0.70981   0.33718   0.16285   0.00000  Uiso   1.00
H501   H     0.74493   0.64623   0.15148   0.00000  Uiso   1.00
H502   H     0.99449   0.64569   0.16743   0.00000  Uiso   1.00
H503   H     0.71490   0.35347   0.19448   0.00000  Uiso   1.00
O504   O     0.86576   0.54927   0.38818   0.00000  Uiso   1.00
C505   C     0.84994   0.59789   0.39594   0.00000  Uiso   1.00
H506   H     0.87890   0.61975   0.41693   0.00000  Uiso   1.00
H507   H     0.79877   0.59611   0.41255   0.00000  Uiso   1.00
C508   C     0.86471   0.62671   0.35301   0.00000  Uiso   1.00
H509   H     0.84028   0.60155   0.33143   0.00000  Uiso   1.00
H510   H     0.84378   0.66111   0.35745   0.00000  Uiso   1.00
C511   C     0.93643   0.64200   0.33234   0.00000  Uiso   1.00
H512   H     0.96274   0.66111   0.35580   0.00000  Uiso   1.00
H513   H     0.94653   0.33598   0.30486   0.00000  Uiso   1.00
H514   H     0.95461   0.60731   0.32042   0.00000  Uiso   1.00
O515   O     0.96126   0.42916   0.46547   0.00000  Uiso   1.00
C516   C     0.93535   0.38659   0.44290   0.00000  Uiso   1.00
H517   H     0.90908   0.35509   0.46691   0.00000  Uiso   1.00
H518   H     0.97219   0.36965   0.42022   0.00000  Uiso   1.00
C519   C     0.89034   0.40212   0.41927   0.00000  Uiso   1.00
H520   H     0.89979   0.44458   0.41584   0.00000  Uiso   1.00
H521   H     0.90079   0.38870   0.38581   0.00000  Uiso   1.00
C522   C     0.82032   0.38155   0.44223   0.00000  Uiso   1.00
H523   H     0.80881   0.33929   0.44730   0.00000  Uiso   1.00
H524   H     0.78987   0.39082   0.42251   0.00000  Uiso   1.00
H525   H     0.80923   0.39905   0.47445   0.00000  Uiso   1.00
O526   O     0.70434   0.57431   0.03420   0.00000  Uiso   1.00
C527   C     0.74361   0.59519   0.06187   0.00000  Uiso   1.00
H528   H     0.75474   0.56394   0.07848   0.00000  Uiso   1.00
H529   H     0.71969   0.61969   0.08610   0.00000  Uiso   1.00
C530   C     0.80596   0.62899   0.03561   0.00000  Uiso   1.00
H531   H     0.82473   0.60916   0.00556   0.00000  Uiso   1.00
H532   H     0.79640   0.66563   0.02644   0.00000  Uiso   1.00
C533   C     0.85641   0.64132   0.06135   0.00000  Uiso   1.00
H534   H     0.87196   0.60619   0.06680   0.00000  Uiso   1.00
H535   H     0.83749   0.65639   0.09354   0.00000  Uiso   1.00
H536   H     0.89845   0.33704   0.04342   0.00000  Uiso   1.00
F537   F     0.91952   0.35089   0.23756   0.00000  Uiso   1.00
F538   F     0.74820   0.64924   0.25794   0.00000  Uiso   1.00
F539   F     0.99559   0.52816   0.29959   0.00000  Uiso   1.00
F540   F     0.67090   0.47165   0.20055   0.00000  Uiso   1.00
C541   C     0.18246   0.93327   0.24917   0.00000  Uiso   1.00
C542   C     0.15177   0.73342   0.24887   0.00000  Uiso   1.00
C543   C     0.08908   0.80726   0.03971   0.00000  Uiso   1.00
C544   C     0.24112   0.86447   0.46051   0.00000  Uiso   1.00
C545   C     0.04795   0.79234   0.01376   0.00000  Uiso   1.00
C546   C     0.28307   0.87777   0.48631   0.00000  Uiso   1.00
C547   C     0.19196   0.98889   0.24617   0.00000  Uiso   1.00
C548   C     0.14246   0.67779   0.25042   0.00000  Uiso   1.00
C549   C     0.12797   0.82932   0.33302   0.00000  Uiso   1.00
C550   C     0.20521   0.83681   0.16695   0.00000  Uiso   1.00
C551   C     0.10480   0.82396   0.38052   0.00000  Uiso   1.00
C552   C     0.22784   0.84169   0.11929   0.00000  Uiso   1.00
C553   C     0.02375   0.78624   0.44444   0.00000  Uiso   1.00
C554   C     0.30925   0.88088   0.05550   0.00000  Uiso   1.00
C555   C     0.04329   0.79669   0.39964   0.00000  Uiso   1.00
C556   C     0.28979   0.86795   0.10010   0.00000  Uiso   1.00
C557   C     0.14660   0.84443   0.40645   0.00000  Uiso   1.00
C558   C     0.18417   0.82462   0.09391   0.00000  Uiso   1.00
C559   C     0.13103   0.83063   0.45106   0.00000  Uiso   1.00
C560   C     0.19995   0.83933   0.04938   0.00000  Uiso   1.00
C561   C     0.06764   0.80304   0.46966   0.00000  Uiso   1.00
C562   C     0.26411   0.86592   0.03050   0.00000  Uiso   1.00
C563   C     0.17577   0.84231   0.47770   0.00000  Uiso   1.00
C564   C     0.15479   0.82917   0.02290   0.00000  Uiso   1.00
Cu565  Cu    0.10737   0.82775   0.24517   0.00000  Uiso   1.00
Cu566  Cu    0.22596   0.83892   0.25483   0.00000  Uiso   1.00
H567   H     0.33236   0.77379   0.02931   0.00000  Uiso   1.00
H568   H     0.33202   0.89597   0.47058   0.00000  Uiso   1.00
H569   H     0.32158   0.87924   0.12091   0.00000  Uiso   1.00
H570   H     0.01097   0.78363   0.37942   0.00000  Uiso   1.00
H571   H     0.06454   0.80327   0.07312   0.00000  Uiso   1.00
H572   H     0.26337   0.87022   0.42659   0.00000  Uiso   1.00
N573   N     0.31506   0.84735   0.26212   0.00000  Uiso   1.00
N574   N     0.01827   0.81932   0.23788   0.00000  Uiso   1.00
O575   O     0.12815   0.90476   0.24686   0.00000  Uiso   1.00
O576   O     0.20518   0.76191   0.25314   0.00000  Uiso   1.00
O577   O     0.22829   0.91420   0.25503   0.00000  Uiso   1.00
O578   O     0.10504   0.75247   0.24498   0.00000  Uiso   1.00
O579   O     0.08851   0.82597   0.30855   0.00000  Uiso   1.00
O580   O     0.24482   0.84070   0.19145   0.00000  Uiso   1.00
O581   O     0.18866   0.83540   0.31671   0.00000  Uiso   1.00
O582   O     0.14468   0.83126   0.18329   0.00000  Uiso   1.00
O583   O     0.12404   0.79743   0.11463   0.00000  Uiso   1.00
C584   C     0.12269   0.74432   0.11592   0.00000  Uiso   1.00
H585   H     0.15011   0.73681   0.13870   0.00000  Uiso   1.00
H586   H     0.14387   0.73113   0.08316   0.00000  Uiso   1.00
C587   C     0.05288   0.71437   0.13054   0.00000  Uiso   1.00
H588   H     0.02172   0.74054   0.14593   0.00000  Uiso   1.00
H589   H     0.03614   0.69904   0.10176   0.00000  Uiso   1.00
C590   C     0.04314   0.67051   0.16285   0.00000  Uiso   1.00
H591   H     0.07827   0.97957   0.15148   0.00000  Uiso   1.00
H592   H     0.32783   0.97902   0.16743   0.00000  Uiso   1.00
H593   H     0.04823   0.68680   0.19448   0.00000  Uiso   1.00
O594   O     0.19910   0.88260   0.38818   0.00000  Uiso   1.00
C595   C     0.18328   0.93122   0.39594   0.00000  Uiso   1.00
H596   H     0.21224   0.95308   0.41693   0.00000  Uiso   1.00
H597   H     0.13210   0.92944   0.41255   0.00000  Uiso   1.00
C598   C     0.19805   0.96005   0.35301   0.00000  Uiso   1.00
H599   H     0.17362   0.93489   0.33143   0.00000  Uiso   1.00
H600   H     0.17712   0.99445   0.35745   0.00000  Uiso   1.00
C601   C     0.26977   0.97533   0.33234   0.00000  Uiso   1.00
H602   H     0.29607   0.99444   0.35580   0.00000  Uiso   1.00
H603   H     0.27986   0.66931   0.30486   0.00000  Uiso   1.00
H604   H     0.28795   0.94065   0.32042   0.00000  Uiso   1.00
O605   O     0.29459   0.76250   0.46547   0.00000  Uiso   1.00
C606   C     0.26869   0.71992   0.44290   0.00000  Uiso   1.00
H607   H     0.24241   0.68842   0.46691   0.00000  Uiso   1.00
H608   H     0.30553   0.70298   0.42022   0.00000  Uiso   1.00
C609   C     0.22368   0.73546   0.41927   0.00000  Uiso   1.00
H610   H     0.23312   0.77791   0.41584   0.00000  Uiso   1.00
H611   H     0.23412   0.72203   0.38581   0.00000  Uiso   1.00
C612   C     0.15366   0.71488   0.44223   0.00000  Uiso   1.00
H613   H     0.14215   0.67262   0.44730   0.00000  Uiso   1.00
H614   H     0.12320   0.72416   0.42251   0.00000  Uiso   1.00
H615   H     0.14257   0.73238   0.47445   0.00000  Uiso   1.00
O616   O     0.03768   0.90764   0.03420   0.00000  Uiso   1.00
C617   C     0.07695   0.92852   0.06187   0.00000  Uiso   1.00
H618   H     0.08808   0.89727   0.07848   0.00000  Uiso   1.00
H619   H     0.05302   0.95302   0.08610   0.00000  Uiso   1.00
C620   C     0.13929   0.96233   0.03561   0.00000  Uiso   1.00
H621   H     0.15806   0.94250   0.00556   0.00000  Uiso   1.00
H622   H     0.12973   0.99897   0.02644   0.00000  Uiso   1.00
C623   C     0.18974   0.97465   0.06135   0.00000  Uiso   1.00
H624   H     0.20529   0.93952   0.06680   0.00000  Uiso   1.00
H625   H     0.17083   0.98972   0.09354   0.00000  Uiso   1.00
H626   H     0.23179   0.67037   0.04342   0.00000  Uiso   1.00
F627   F     0.25285   0.68422   0.23756   0.00000  Uiso   1.00
F628   F     0.08153   0.98258   0.25794   0.00000  Uiso   1.00
F629   F     0.32892   0.86150   0.29959   0.00000  Uiso   1.00
F630   F     0.00424   0.80498   0.20055   0.00000  Uiso   1.00
C631   C     0.51579   0.93327   0.24917   0.00000  Uiso   1.00
C632   C     0.48510   0.73342   0.24887   0.00000  Uiso   1.00
C633   C     0.42241   0.80726   0.03971   0.00000  Uiso   1.00
C634   C     0.57445   0.86447   0.46051   0.00000  Uiso   1.00
C635   C     0.38129   0.79234   0.01376   0.00000  Uiso   1.00
C636   C     0.61641   0.87777   0.48631   0.00000  Uiso   1.00
C637   C     0.52529   0.98889   0.24617   0.00000  Uiso   1.00
C638   C     0.47579   0.67779   0.25042   0.00000  Uiso   1.00
C639   C     0.46131   0.82932   0.33302   0.00000  Uiso   1.00
C640   C     0.53854   0.83681   0.16695   0.00000  Uiso   1.00
C641   C     0.43814   0.82396   0.38052   0.00000  Uiso   1.00
C642   C     0.56117   0.84169   0.11929   0.00000  Uiso   1.00
C643   C     0.35708   0.78624   0.44444   0.00000  Uiso   1.00
C644   C     0.64258   0.88088   0.05550   0.00000  Uiso   1.00
C645   C     0.37662   0.79669   0.39964   0.00000  Uiso   1.00
C646   C     0.62312   0.86795   0.10010   0.00000  Uiso   1.00
C647   C     0.47993   0.84443   0.40645   0.00000  Uiso   1.00
C648   C     0.51751   0.82462   0.09391   0.00000  Uiso   1.00
C649   C     0.46437   0.83063   0.45106   0.00000  Uiso   1.00
C650   C     0.53328   0.83933   0.04938   0.00000  Uiso   1.00
C651   C     0.40098   0.80304   0.46966   0.00000  Uiso   1.00
C652   C     0.59744   0.86592   0.03050   0.00000  Uiso   1.00
C653   C     0.50910   0.84231   0.47770   0.00000  Uiso   1.00
C654   C     0.48812   0.82917   0.02290   0.00000  Uiso   1.00
Cu655  Cu    0.44071   0.82775   0.24517   0.00000  Uiso   1.00
Cu656  Cu    0.55929   0.83892   0.25483   0.00000  Uiso   1.00
H657   H     0.66569   0.77379   0.02931   0.00000  Uiso   1.00
H658   H     0.66535   0.89597   0.47058   0.00000  Uiso   1.00
H659   H     0.65492   0.87924   0.12091   0.00000  Uiso   1.00
H660   H     0.34430   0.78363   0.37942   0.00000  Uiso   1.00
H661   H     0.39787   0.80327   0.07312   0.00000  Uiso   1.00
H662   H     0.59671   0.87022   0.42659   0.00000  Uiso   1.00
N663   N     0.64839   0.84735   0.26212   0.00000  Uiso   1.00
N664   N     0.35161   0.81932   0.23788   0.00000  Uiso   1.00
O665   O     0.46148   0.90476   0.24686   0.00000  Uiso   1.00
O666   O     0.53852   0.76191   0.25314   0.00000  Uiso   1.00
O667   O     0.56163   0.91420   0.25503   0.00000  Uiso   1.00
O668   O     0.43837   0.75247   0.24498   0.00000  Uiso   1.00
O669   O     0.42185   0.82597   0.30855   0.00000  Uiso   1.00
O670   O     0.57815   0.84070   0.19145   0.00000  Uiso   1.00
O671   O     0.52199   0.83540   0.31671   0.00000  Uiso   1.00
O672   O     0.47801   0.83126   0.18329   0.00000  Uiso   1.00
O673   O     0.45738   0.79743   0.11463   0.00000  Uiso   1.00
C674   C     0.45602   0.74432   0.11592   0.00000  Uiso   1.00
H675   H     0.48344   0.73681   0.13870   0.00000  Uiso   1.00
H676   H     0.47721   0.73113   0.08316   0.00000  Uiso   1.00
C677   C     0.38621   0.71437   0.13054   0.00000  Uiso   1.00
H678   H     0.35506   0.74054   0.14593   0.00000  Uiso   1.00
H679   H     0.36948   0.69904   0.10176   0.00000  Uiso   1.00
C680   C     0.37648   0.67051   0.16285   0.00000  Uiso   1.00
H681   H     0.41160   0.97957   0.15148   0.00000  Uiso   1.00
H682   H     0.66116   0.97902   0.16743   0.00000  Uiso   1.00
H683   H     0.38156   0.68680   0.19448   0.00000  Uiso   1.00
O684   O     0.53243   0.88260   0.38818   0.00000  Uiso   1.00
C685   C     0.51661   0.93122   0.39594   0.00000  Uiso   1.00
H686   H     0.54557   0.95308   0.41693   0.00000  Uiso   1.00
H687   H     0.46543   0.92944   0.41255   0.00000  Uiso   1.00
C688   C     0.53138   0.96005   0.35301   0.00000  Uiso   1.00
H689   H     0.50695   0.93489   0.33143   0.00000  Uiso   1.00
H690   H     0.51045   0.99445   0.35745   0.00000  Uiso   1.00
C691   C     0.60310   0.97533   0.33234   0.00000  Uiso   1.00
H692   H     0.62940   0.99444   0.35580   0.00000  Uiso   1.00
H693   H     0.61319   0.66931   0.30486   0.00000  Uiso   1.00
H694   H     0.62128   0.94065   0.32042   0.00000  Uiso   1.00
O695   O     0.62793   0.76250   0.46547   0.00000  Uiso   1.00
C696   C     0.60202   0.71992   0.44290   0.00000  Uiso   1.00
H697   H     0.57574   0.68842   0.46691   0.00000  Uiso   1.00
H698   H     0.63886   0.70298   0.42022   0.00000  Uiso   1.00
C699   C     0.55701   0.73546   0.41927   0.00000  Uiso   1.00
H700   H     0.56645   0.77791   0.41584   0.00000  Uiso   1.00
H701   H     0.56745   0.72203   0.38581   0.00000  Uiso   1.00
C702   C     0.48699   0.71488   0.44223   0.00000  Uiso   1.00
H703   H     0.47548   0.67262   0.44730   0.00000  Uiso   1.00
H704   H     0.45653   0.72416   0.42251   0.00000  Uiso   1.00
H705   H     0.47590   0.73238   0.47445   0.00000  Uiso   1.00
O706   O     0.37101   0.90764   0.03420   0.00000  Uiso   1.00
C707   C     0.41028   0.92852   0.06187   0.00000  Uiso   1.00
H708   H     0.42141   0.89727   0.07848   0.00000  Uiso   1.00
H709   H     0.38636   0.95302   0.08610   0.00000  Uiso   1.00
C710   C     0.47262   0.96233   0.03561   0.00000  Uiso   1.00
H711   H     0.49140   0.94250   0.00556   0.00000  Uiso   1.00
H712   H     0.46307   0.99897   0.02644   0.00000  Uiso   1.00
C713   C     0.52307   0.97465   0.06135   0.00000  Uiso   1.00
H714   H     0.53863   0.93952   0.06680   0.00000  Uiso   1.00
H715   H     0.50416   0.98972   0.09354   0.00000  Uiso   1.00
H716   H     0.56512   0.67037   0.04342   0.00000  Uiso   1.00
F717   F     0.58618   0.68422   0.23756   0.00000  Uiso   1.00
F718   F     0.41486   0.98258   0.25794   0.00000  Uiso   1.00
F719   F     0.66225   0.86150   0.29959   0.00000  Uiso   1.00
F720   F     0.33757   0.80498   0.20055   0.00000  Uiso   1.00
C721   C     0.84913   0.93327   0.24917   0.00000  Uiso   1.00
C722   C     0.81844   0.73342   0.24887   0.00000  Uiso   1.00
C723   C     0.75574   0.80726   0.03971   0.00000  Uiso   1.00
C724   C     0.90779   0.86447   0.46051   0.00000  Uiso   1.00
C725   C     0.71462   0.79234   0.01376   0.00000  Uiso   1.00
C726   C     0.94974   0.87777   0.48631   0.00000  Uiso   1.00
C727   C     0.85863   0.98889   0.24617   0.00000  Uiso   1.00
C728   C     0.80913   0.67779   0.25042   0.00000  Uiso   1.00
C729   C     0.79464   0.82932   0.33302   0.00000  Uiso   1.00
C730   C     0.87187   0.83681   0.16695   0.00000  Uiso   1.00
C731   C     0.77147   0.82396   0.38052   0.00000  Uiso   1.00
C732   C     0.89451   0.84169   0.11929   0.00000  Uiso   1.00
C733   C     0.69041   0.78624   0.44444   0.00000  Uiso   1.00
C734   C     0.97592   0.88088   0.05550   0.00000  Uiso   1.00
C735   C     0.70995   0.79669   0.39964   0.00000  Uiso   1.00
C736   C     0.95646   0.86795   0.10010   0.00000  Uiso   1.00
C737   C     0.81326   0.84443   0.40645   0.00000  Uiso   1.00
C738   C     0.85084   0.82462   0.09391   0.00000  Uiso   1.00
C739   C     0.79770   0.83063   0.45106   0.00000  Uiso   1.00
C740   C     0.86662   0.83933   0.04938   0.00000  Uiso   1.00
C741   C     0.73431   0.80304   0.46966   0.00000  Uiso   1.00
C742   C     0.93077   0.86592   0.03050   0.00000  Uiso   1.00
C743   C     0.84243   0.84231   0.47770   0.00000  Uiso   1.00
C744   C     0.82146   0.82917   0.02290   0.00000  Uiso   1.00
Cu745  Cu    0.77404   0.82775   0.24517   0.00000  Uiso   1.00
Cu746  Cu    0.89263   0.83892   0.25483   0.00000  Uiso   1.00
H747   H     0.99902   0.77379   0.02931   0.00000  Uiso   1.00
H748   H     0.99868   0.89597   0.47058   0.00000  Uiso   1.00
H749   H     0.98825   0.87924   0.12091   0.00000  Uiso   1.00
H750   H     0.67764   0.78363   0.37942   0.00000  Uiso   1.00
H751   H     0.73121   0.80327   0.07312   0.00000  Uiso   1.00
H752   H     0.93004   0.87022   0.42659   0.00000  Uiso   1.00
N753   N     0.98173   0.84735   0.26212   0.00000  Uiso   1.00
N754   N     0.68494   0.81932   0.23788   0.00000  Uiso   1.00
O755   O     0.79482   0.90476   0.24686   0.00000  Uiso   1.00
O756   O     0.87185   0.76191   0.25314   0.00000  Uiso   1.00
O757   O     0.89496   0.91420   0.25503   0.00000  Uiso   1.00
O758   O     0.77171   0.75247   0.24498   0.00000  Uiso   1.00
O759   O     0.75518   0.82597   0.30855   0.00000  Uiso   1.00
O760   O     0.91149   0.84070   0.19145   0.00000  Uiso   1.00
O761   O     0.85532   0.83540   0.31671   0.00000  Uiso   1.00
O762   O     0.81134   0.83126   0.18329   0.00000  Uiso   1.00
O763   O     0.79071   0.79743   0.11463   0.00000  Uiso   1.00
C764   C     0.78935   0.74432   0.11592   0.00000  Uiso   1.00
H765   H     0.81677   0.73681   0.13870   0.00000  Uiso   1.00
H766   H     0.81054   0.73113   0.08316   0.00000  Uiso   1.00
C767   C     0.71954   0.71437   0.13054   0.00000  Uiso   1.00
H768   H     0.68839   0.74054   0.14593   0.00000  Uiso   1.00
H769   H     0.70281   0.69904   0.10176   0.00000  Uiso   1.00
C770   C     0.70981   0.67051   0.16285   0.00000  Uiso   1.00
H771   H     0.74493   0.97957   0.15148   0.00000  Uiso   1.00
H772   H     0.99449   0.97902   0.16743   0.00000  Uiso   1.00
H773   H     0.71490   0.68680   0.19448   0.00000  Uiso   1.00
O774   O     0.86576   0.88260   0.38818   0.00000  Uiso   1.00
C775   C     0.84994   0.93122   0.39594   0.00000  Uiso   1.00
H776   H     0.87890   0.95308   0.41693   0.00000  Uiso   1.00
H777   H     0.79877   0.92944   0.41255   0.00000  Uiso   1.00
C778   C     0.86471   0.96005   0.35301   0.00000  Uiso   1.00
H779   H     0.84028   0.93489   0.33143   0.00000  Uiso   1.00
H780   H     0.84378   0.99445   0.35745   0.00000  Uiso   1.00
C781   C     0.93643   0.97533   0.33234   0.00000  Uiso   1.00
H782   H     0.96274   0.99444   0.35580   0.00000  Uiso   1.00
H783   H     0.94653   0.66931   0.30486   0.00000  Uiso   1.00
H784   H     0.95461   0.94065   0.32042   0.00000  Uiso   1.00
O785   O     0.96126   0.76250   0.46547   0.00000  Uiso   1.00
C786   C     0.93535   0.71992   0.44290   0.00000  Uiso   1.00
H787   H     0.90908   0.68842   0.46691   0.00000  Uiso   1.00
H788   H     0.97219   0.70298   0.42022   0.00000  Uiso   1.00
C789   C     0.89034   0.73546   0.41927   0.00000  Uiso   1.00
H790   H     0.89979   0.77791   0.41584   0.00000  Uiso   1.00
H791   H     0.90079   0.72203   0.38581   0.00000  Uiso   1.00
C792   C     0.82032   0.71488   0.44223   0.00000  Uiso   1.00
H793   H     0.80881   0.67262   0.44730   0.00000  Uiso   1.00
H794   H     0.78987   0.72416   0.42251   0.00000  Uiso   1.00
H795   H     0.80923   0.73238   0.47445   0.00000  Uiso   1.00
O796   O     0.70434   0.90764   0.03420   0.00000  Uiso   1.00
C797   C     0.74361   0.92852   0.06187   0.00000  Uiso   1.00
H798   H     0.75474   0.89727   0.07848   0.00000  Uiso   1.00
H799   H     0.71969   0.95302   0.08610   0.00000  Uiso   1.00
C800   C     0.80596   0.96233   0.03561   0.00000  Uiso   1.00
H801   H     0.82473   0.94250   0.00556   0.00000  Uiso   1.00
H802   H     0.79640   0.99897   0.02644   0.00000  Uiso   1.00
C803   C     0.85641   0.97465   0.06135   0.00000  Uiso   1.00
H804   H     0.87196   0.93952   0.06680   0.00000  Uiso   1.00
H805   H     0.83749   0.98972   0.09354   0.00000  Uiso   1.00
H806   H     0.89845   0.67037   0.04342   0.00000  Uiso   1.00
F807   F     0.91952   0.68422   0.23756   0.00000  Uiso   1.00
F808   F     0.74820   0.98258   0.25794   0.00000  Uiso   1.00
F809   F     0.99559   0.86150   0.29959   0.00000  Uiso   1.00
F810   F     0.67090   0.80498   0.20055   0.00000  Uiso   1.00
C811   C     0.18246   0.26660   0.74917   0.00000  Uiso   1.00
C812   C     0.15177   0.06675   0.74887   0.00000  Uiso   1.00
C813   C     0.08908   0.14060   0.53971   0.00000  Uiso   1.00
C814   C     0.24112   0.19780   0.96051   0.00000  Uiso   1.00
C815   C     0.04795   0.12568   0.51376   0.00000  Uiso   1.00
C816   C     0.28307   0.21110   0.98631   0.00000  Uiso   1.00
C817   C     0.19196   0.32222   0.74617   0.00000  Uiso   1.00
C818   C     0.14246   0.01113   0.75042   0.00000  Uiso   1.00
C819   C     0.12797   0.16265   0.83302   0.00000  Uiso   1.00
C820   C     0.20521   0.17014   0.66695   0.00000  Uiso   1.00
C821   C     0.10480   0.15730   0.88052   0.00000  Uiso   1.00
C822   C     0.22784   0.17503   0.61929   0.00000  Uiso   1.00
C823   C     0.02375   0.11958   0.94444   0.00000  Uiso   1.00
C824   C     0.30925   0.21421   0.55550   0.00000  Uiso   1.00
C825   C     0.04329   0.13002   0.89964   0.00000  Uiso   1.00
C826   C     0.28979   0.20129   0.60010   0.00000  Uiso   1.00
C827   C     0.14660   0.17776   0.90645   0.00000  Uiso   1.00
C828   C     0.18417   0.15795   0.59391   0.00000  Uiso   1.00
C829   C     0.13103   0.16397   0.95106   0.00000  Uiso   1.00
C830   C     0.19995   0.17267   0.54938   0.00000  Uiso   1.00
C831   C     0.06764   0.13637   0.96966   0.00000  Uiso   1.00
C832   C     0.26411   0.19925   0.53050   0.00000  Uiso   1.00
C833   C     0.17577   0.17564   0.97770   0.00000  Uiso   1.00
C834   C     0.15479   0.16251   0.52290   0.00000  Uiso   1.00
Cu835  Cu    0.10737   0.16108   0.74517   0.00000  Uiso   1.00
Cu836  Cu    0.22596   0.17225   0.75483   0.00000  Uiso   1.00
H837   H     0.33236   0.10712   0.52931   0.00000  Uiso   1.00
H838   H     0.33202   0.22930   0.97058   0.00000  Uiso   1.00
H839   H     0.32158   0.21258   0.62091   0.00000  Uiso   1.00
H840   H     0.01097   0.11697   0.87942   0.00000  Uiso   1.00
H841   H     0.06454   0.13660   0.57312   0.00000  Uiso   1.00
H842   H     0.26337   0.20356   0.92659   0.00000  Uiso   1.00
N843   N     0.31506   0.18068   0.76212   0.00000  Uiso   1.00
N844   N     0.01827   0.15265   0.73788   0.00000  Uiso   1.00
O845   O     0.12815   0.23809   0.74686   0.00000  Uiso   1.00
O846   O     0.20518   0.09524   0.75314   0.00000  Uiso   1.00
O847   O     0.22829   0.24753   0.75503   0.00000  Uiso   1.00
O848   O     0.10504   0.08580   0.74498   0.00000  Uiso   1.00
O849   O     0.08851   0.15930   0.80855   0.00000  Uiso   1.00
O850   O     0.24482   0.17403   0.69145   0.00000  Uiso   1.00
O851   O     0.18866   0.16874   0.81671   0.00000  Uiso   1.00
O852   O     0.14468   0.16460   0.68329   0.00000  Uiso   1.00
O853   O     0.12404   0.13077   0.61463   0.00000  Uiso   1.00
C854   C     0.12269   0.07765   0.61592   0.00000  Uiso   1.00
H855   H     0.15011   0.07015   0.63870   0.00000  Uiso   1.00
H856   H     0.14387   0.06446   0.58316   0.00000  Uiso   1.00
C857   C     0.05288   0.04770   0.63054   0.00000  Uiso   1.00
H858   H     0.02172   0.07387   0.64593   0.00000  Uiso   1.00
H859   H     0.03614   0.03237   0.60176   0.00000  Uiso   1.00
C860   C     0.04314   0.00384   0.66285   0.00000  Uiso   1.00
H861   H     0.07827   0.31290   0.65148   0.00000  Uiso   1.00
H862   H     0.32783   0.31235   0.66743   0.00000  Uiso   1.00
H863   H     0.04823   0.02013   0.69448   0.00000  Uiso   1.00
O864   O     0.19910   0.21593   0.88818   0.00000  Uiso   1.00
C865   C     0.18328   0.26455   0.89594   0.00000  Uiso   1.00
H866   H     0.21224   0.28642   0.91693   0.00000  Uiso   1.00
H867   H     0.13210   0.26277   0.91255   0.00000  Uiso   1.00
C868   C     0.19805   0.29338   0.85301   0.00000  Uiso   1.00
H869   H     0.17362   0.26822   0.83143   0.00000  Uiso   1.00
H870   H     0.17712   0.32778   0.85745   0.00000  Uiso   1.00
C871   C     0.26977   0.30866   0.83234   0.00000  Uiso   1.00
H872   H     0.29607   0.32777   0.85580   0.00000  Uiso   1.00
H873   H     0.27986   0.00264   0.80486   0.00000  Uiso   1.00
H874   H     0.28795   0.27398   0.82042   0.00000  Uiso   1.00
O875   O     0.29459   0.09583   0.96547   0.00000  Uiso   1.00
C876   C     0.26869   0.05326   0.94290   0.00000  Uiso   1.00
H877   H     0.24241   0.02175   0.96691   0.00000  Uiso   1.00
H878   H     0.30553   0.03631   0.92022   0.00000  Uiso   1.00
C879   C     0.22368   0.06879   0.91927   0.00000  Uiso   1.00
H880   H     0.23312   0.11124   0.91584   0.00000  Uiso   1.00
H881   H     0.23412   0.05537   0.88581   0.00000  Uiso   1.00
C882   C     0.15366   0.04821   0.94223   0.00000  Uiso   1.00
H883   H     0.14215   0.00596   0.94730   0.00000  Uiso   1.00
H884   H     0.12320   0.05749   0.92251   0.00000  Uiso   1.00
H885   H     0.14257   0.06571   0.97445   0.00000  Uiso   1.00
O886   O     0.03768   0.24098   0.53420   0.00000  Uiso   1.00
C887   C     0.07695   0.26186   0.56187   0.00000  Uiso   1.00
H888   H     0.08808   0.23061   0.57848   0.00000  Uiso   1.00
H889   H     0.05302   0.28635   0.58610   0.00000  Uiso   1.00
C890   C     0.13929   0.29566   0.53561   0.00000  Uiso   1.00
H891   H     0.15806   0.27583   0.50556   0.00000  Uiso   1.00
H892   H     0.12973   0.33230   0.52644   0.00000  Uiso   1.00
C893   C     0.18974   0.30799   0.56135   0.00000  Uiso   1.00
H894   H     0.20529   0.27285   0.56680   0.00000  Uiso   1.00
H895   H     0.17083   0.32305   0.59354   0.00000  Uiso   1.00
H896   H     0.23179   0.00370   0.54342   0.00000  Uiso   1.00
F897   F     0.25285   0.01756   0.73756   0.00000  Uiso   1.00
F898   F     0.08153   0.31591   0.75794   0.00000  Uiso   1.00
F899   F     0.32892   0.19483   0.79959   0.00000  Uiso   1.00
F900   F     0.00424   0.13832   0.70055   0.00000  Uiso   1.00
C901   C     0.51579   0.26660   0.74917   0.00000  Uiso   1.00
C902   C     0.48510   0.06675   0.74887   0.00000  Uiso   1.00
C903   C     0.42241   0.14060   0.53971   0.00000  Uiso   1.00
C904   C     0.57445   0.19780   0.96051   0.00000  Uiso   1.00
C905   C     0.38129   0.12568   0.51376   0.00000  Uiso   1.00
C906   C     0.61641   0.21110   0.98631   0.00000  Uiso   1.00
C907   C     0.52529   0.32222   0.74617   0.00000  Uiso   1.00
C908   C     0.47579   0.01113   0.75042   0.00000  Uiso   1.00
C909   C     0.46131   0.16265   0.83302   0.00000  Uiso   1.00
C910   C     0.53854   0.17014   0.66695   0.00000  Uiso   1.00
C911   C     0.43814   0.15730   0.88052   0.00000  Uiso   1.00
C912   C     0.56117   0.17503   0.61929   0.00000  Uiso   1.00
C913   C     0.35708   0.11958   0.94444   0.00000  Uiso   1.00
C914   C     0.64258   0.21421   0.55550   0.00000  Uiso   1.00
C915   C     0.37662   0.13002   0.89964   0.00000  Uiso   1.00
C916   C     0.62312   0.20129   0.60010   0.00000  Uiso   1.00
C917   C     0.47993   0.17776   0.90645   0.00000  Uiso   1.00
C918   C     0.51751   0.15795   0.59391   0.00000  Uiso   1.00
C919   C     0.46437   0.16397   0.95106   0.00000  Uiso   1.00
C920   C     0.53328   0.17267   0.54938   0.00000  Uiso   1.00
C921   C     0.40098   0.13637   0.96966   0.00000  Uiso   1.00
C922   C     0.59744   0.19925   0.53050   0.00000  Uiso   1.00
C923   C     0.50910   0.17564   0.97770   0.00000  Uiso   1.00
C924   C     0.48812   0.16251   0.52290   0.00000  Uiso   1.00
Cu925  Cu    0.44071   0.16108   0.74517   0.00000  Uiso   1.00
Cu926  Cu    0.55929   0.17225   0.75483   0.00000  Uiso   1.00
H927   H     0.66569   0.10712   0.52931   0.00000  Uiso   1.00
H928   H     0.66535   0.22930   0.97058   0.00000  Uiso   1.00
H929   H     0.65492   0.21258   0.62091   0.00000  Uiso   1.00
H930   H     0.34430   0.11697   0.87942   0.00000  Uiso   1.00
H931   H     0.39787   0.13660   0.57312   0.00000  Uiso   1.00
H932   H     0.59671   0.20356   0.92659   0.00000  Uiso   1.00
N933   N     0.64839   0.18068   0.76212   0.00000  Uiso   1.00
N934   N     0.35161   0.15265   0.73788   0.00000  Uiso   1.00
O935   O     0.46148   0.23809   0.74686   0.00000  Uiso   1.00
O936   O     0.53852   0.09524   0.75314   0.00000  Uiso   1.00
O937   O     0.56163   0.24753   0.75503   0.00000  Uiso   1.00
O938   O     0.43837   0.08580   0.74498   0.00000  Uiso   1.00
O939   O     0.42185   0.15930   0.80855   0.00000  Uiso   1.00
O940   O     0.57815   0.17403   0.69145   0.00000  Uiso   1.00
O941   O     0.52199   0.16874   0.81671   0.00000  Uiso   1.00
O942   O     0.47801   0.16460   0.68329   0.00000  Uiso   1.00
O943   O     0.45738   0.13077   0.61463   0.00000  Uiso   1.00
C944   C     0.45602   0.07765   0.61592   0.00000  Uiso   1.00
H945   H     0.48344   0.07015   0.63870   0.00000  Uiso   1.00
H946   H     0.47721   0.06446   0.58316   0.00000  Uiso   1.00
C947   C     0.38621   0.04770   0.63054   0.00000  Uiso   1.00
H948   H     0.35506   0.07387   0.64593   0.00000  Uiso   1.00
H949   H     0.36948   0.03237   0.60176   0.00000  Uiso   1.00
C950   C     0.37648   0.00384   0.66285   0.00000  Uiso   1.00
H951   H     0.41160   0.31290   0.65148   0.00000  Uiso   1.00
H952   H     0.66116   0.31235   0.66743   0.00000  Uiso   1.00
H953   H     0.38156   0.02013   0.69448   0.00000  Uiso   1.00
O954   O     0.53243   0.21593   0.88818   0.00000  Uiso   1.00
C955   C     0.51661   0.26455   0.89594   0.00000  Uiso   1.00
H956   H     0.54557   0.28642   0.91693   0.00000  Uiso   1.00
H957   H     0.46543   0.26277   0.91255   0.00000  Uiso   1.00
C958   C     0.53138   0.29338   0.85301   0.00000  Uiso   1.00
H959   H     0.50695   0.26822   0.83143   0.00000  Uiso   1.00
H960   H     0.51045   0.32778   0.85745   0.00000  Uiso   1.00
C961   C     0.60310   0.30866   0.83234   0.00000  Uiso   1.00
H962   H     0.62940   0.32777   0.85580   0.00000  Uiso   1.00
H963   H     0.61319   0.00264   0.80486   0.00000  Uiso   1.00
H964   H     0.62128   0.27398   0.82042   0.00000  Uiso   1.00
O965   O     0.62793   0.09583   0.96547   0.00000  Uiso   1.00
C966   C     0.60202   0.05326   0.94290   0.00000  Uiso   1.00
H967   H     0.57574   0.02175   0.96691   0.00000  Uiso   1.00
H968   H     0.63886   0.03631   0.92022   0.00000  Uiso   1.00
C969   C     0.55701   0.06879   0.91927   0.00000  Uiso   1.00
H970   H     0.56645   0.11124   0.91584   0.00000  Uiso   1.00
H971   H     0.56745   0.05537   0.88581   0.00000  Uiso   1.00
C972   C     0.48699   0.04821   0.94223   0.00000  Uiso   1.00
H973   H     0.47548   0.00596   0.94730   0.00000  Uiso   1.00
H974   H     0.45653   0.05749   0.92251   0.00000  Uiso   1.00
H975   H     0.47590   0.06571   0.97445   0.00000  Uiso   1.00
O976   O     0.37101   0.24098   0.53420   0.00000  Uiso   1.00
C977   C     0.41028   0.26186   0.56187   0.00000  Uiso   1.00
H978   H     0.42141   0.23061   0.57848   0.00000  Uiso   1.00
H979   H     0.38636   0.28635   0.58610   0.00000  Uiso   1.00
C980   C     0.47262   0.29566   0.53561   0.00000  Uiso   1.00
H981   H     0.49140   0.27583   0.50556   0.00000  Uiso   1.00
H982   H     0.46307   0.33230   0.52644   0.00000  Uiso   1.00
C983   C     0.52307   0.30799   0.56135   0.00000  Uiso   1.00
H984   H     0.53863   0.27285   0.56680   0.00000  Uiso   1.00
H985   H     0.50416   0.32305   0.59354   0.00000  Uiso   1.00
H986   H     0.56512   0.00370   0.54342   0.00000  Uiso   1.00
F987   F     0.58618   0.01756   0.73756   0.00000  Uiso   1.00
F988   F     0.41486   0.31591   0.75794   0.00000  Uiso   1.00
F989   F     0.66225   0.19483   0.79959   0.00000  Uiso   1.00
F990   F     0.33757   0.13832   0.70055   0.00000  Uiso   1.00
C991   C     0.84913   0.26660   0.74917   0.00000  Uiso   1.00
C992   C     0.81844   0.06675   0.74887   0.00000  Uiso   1.00
C993   C     0.75574   0.14060   0.53971   0.00000  Uiso   1.00
C994   C     0.90779   0.19780   0.96051   0.00000  Uiso   1.00
C995   C     0.71462   0.12568   0.51376   0.00000  Uiso   1.00
C996   C     0.94974   0.21110   0.98631   0.00000  Uiso   1.00
C997   C     0.85863   0.32222   0.74617   0.00000  Uiso   1.00
C998   C     0.80913   0.01113   0.75042   0.00000  Uiso   1.00
C999   C     0.79464   0.16265   0.83302   0.00000  Uiso   1.00
C1000  C     0.87187   0.17014   0.66695   0.00000  Uiso   1.00
C1001  C     0.77147   0.15730   0.88052   0.00000  Uiso   1.00
C1002  C     0.89451   0.17503   0.61929   0.00000  Uiso   1.00
C1003  C     0.69041   0.11958   0.94444   0.00000  Uiso   1.00
C1004  C     0.97592   0.21421   0.55550   0.00000  Uiso   1.00
C1005  C     0.70995   0.13002   0.89964   0.00000  Uiso   1.00
C1006  C     0.95646   0.20129   0.60010   0.00000  Uiso   1.00
C1007  C     0.81326   0.17776   0.90645   0.00000  Uiso   1.00
C1008  C     0.85084   0.15795   0.59391   0.00000  Uiso   1.00
C1009  C     0.79770   0.16397   0.95106   0.00000  Uiso   1.00
C1010  C     0.86662   0.17267   0.54938   0.00000  Uiso   1.00
C1011  C     0.73431   0.13637   0.96966   0.00000  Uiso   1.00
C1012  C     0.93077   0.19925   0.53050   0.00000  Uiso   1.00
C1013  C     0.84243   0.17564   0.97770   0.00000  Uiso   1.00
C1014  C     0.82146   0.16251   0.52290   0.00000  Uiso   1.00
Cu1015 Cu    0.77404   0.16108   0.74517   0.00000  Uiso   1.00
Cu1016 Cu    0.89263   0.17225   0.75483   0.00000  Uiso   1.00
H1017  H     0.99902   0.10712   0.52931   0.00000  Uiso   1.00
H1018  H     0.99868   0.22930   0.97058   0.00000  Uiso   1.00
H1019  H     0.98825   0.21258   0.62091   0.00000  Uiso   1.00
H1020  H     0.67764   0.11697   0.87942   0.00000  Uiso   1.00
H1021  H     0.73121   0.13660   0.57312   0.00000  Uiso   1.00
H1022  H     0.93004   0.20356   0.92659   0.00000  Uiso   1.00
N1023  N     0.98173   0.18068   0.76212   0.00000  Uiso   1.00
N1024  N     0.68494   0.15265   0.73788   0.00000  Uiso   1.00
O1025  O     0.79482   0.23809   0.74686   0.00000  Uiso   1.00
O1026  O     0.87185   0.09524   0.75314   0.00000  Uiso   1.00
O1027  O     0.89496   0.24753   0.75503   0.00000  Uiso   1.00
O1028  O     0.77171   0.08580   0.74498   0.00000  Uiso   1.00
O1029  O     0.75518   0.15930   0.80855   0.00000  Uiso   1.00
O1030  O     0.91149   0.17403   0.69145   0.00000  Uiso   1.00
O1031  O     0.85532   0.16874   0.81671   0.00000  Uiso   1.00
O1032  O     0.81134   0.16460   0.68329   0.00000  Uiso   1.00
O1033  O     0.79071   0.13077   0.61463   0.00000  Uiso   1.00
C1034  C     0.78935   0.07765   0.61592   0.00000  Uiso   1.00
H1035  H     0.81677   0.07015   0.63870   0.00000  Uiso   1.00
H1036  H     0.81054   0.06446   0.58316   0.00000  Uiso   1.00
C1037  C     0.71954   0.04770   0.63054   0.00000  Uiso   1.00
H1038  H     0.68839   0.07387   0.64593   0.00000  Uiso   1.00
H1039  H     0.70281   0.03237   0.60176   0.00000  Uiso   1.00
C1040  C     0.70981   0.00384   0.66285   0.00000  Uiso   1.00
H1041  H     0.74493   0.31290   0.65148   0.00000  Uiso   1.00
H1042  H     0.99449   0.31235   0.66743   0.00000  Uiso   1.00
H1043  H     0.71490   0.02013   0.69448   0.00000  Uiso   1.00
O1044  O     0.86576   0.21593   0.88818   0.00000  Uiso   1.00
C1045  C     0.84994   0.26455   0.89594   0.00000  Uiso   1.00
H1046  H     0.87890   0.28642   0.91693   0.00000  Uiso   1.00
H1047  H     0.79877   0.26277   0.91255   0.00000  Uiso   1.00
C1048  C     0.86471   0.29338   0.85301   0.00000  Uiso   1.00
H1049  H     0.84028   0.26822   0.83143   0.00000  Uiso   1.00
H1050  H     0.84378   0.32778   0.85745   0.00000  Uiso   1.00
C1051  C     0.93643   0.30866   0.83234   0.00000  Uiso   1.00
H1052  H     0.96274   0.32777   0.85580   0.00000  Uiso   1.00
H1053  H     0.94653   0.00264   0.80486   0.00000  Uiso   1.00
H1054  H     0.95461   0.27398   0.82042   0.00000  Uiso   1.00
O1055  O     0.96126   0.09583   0.96547   0.00000  Uiso   1.00
C1056  C     0.93535   0.05326   0.94290   0.00000  Uiso   1.00
H1057  H     0.90908   0.02175   0.96691   0.00000  Uiso   1.00
H1058  H     0.97219   0.03631   0.92022   0.00000  Uiso   1.00
C1059  C     0.89034   0.06879   0.91927   0.00000  Uiso   1.00
H1060  H     0.89979   0.11124   0.91584   0.00000  Uiso   1.00
H1061  H     0.90079   0.05537   0.88581   0.00000  Uiso   1.00
C1062  C     0.82032   0.04821   0.94223   0.00000  Uiso   1.00
H1063  H     0.80881   0.00596   0.94730   0.00000  Uiso   1.00
H1064  H     0.78987   0.05749   0.92251   0.00000  Uiso   1.00
H1065  H     0.80923   0.06571   0.97445   0.00000  Uiso   1.00
O1066  O     0.70434   0.24098   0.53420   0.00000  Uiso   1.00
C1067  C     0.74361   0.26186   0.56187   0.00000  Uiso   1.00
H1068  H     0.75474   0.23061   0.57848   0.00000  Uiso   1.00
H1069  H     0.71969   0.28635   0.58610   0.00000  Uiso   1.00
C1070  C     0.80596   0.29566   0.53561   0.00000  Uiso   1.00
H1071  H     0.82473   0.27583   0.50556   0.00000  Uiso   1.00
H1072  H     0.79640   0.33230   0.52644   0.00000  Uiso   1.00
C1073  C     0.85641   0.30799   0.56135   0.00000  Uiso   1.00
H1074  H     0.87196   0.27285   0.56680   0.00000  Uiso   1.00
H1075  H     0.83749   0.32305   0.59354   0.00000  Uiso   1.00
H1076  H     0.89845   0.00370   0.54342   0.00000  Uiso   1.00
F1077  F     0.91952   0.01756   0.73756   0.00000  Uiso   1.00
F1078  F     0.74820   0.31591   0.75794   0.00000  Uiso   1.00
F1079  F     0.99559   0.19483   0.79959   0.00000  Uiso   1.00
F1080  F     0.67090   0.13832   0.70055   0.00000  Uiso   1.00
C1081  C     0.18246   0.59993   0.74917   0.00000  Uiso   1.00
C1082  C     0.15177   0.40008   0.74887   0.00000  Uiso   1.00
C1083  C     0.08908   0.47393   0.53971   0.00000  Uiso   1.00
C1084  C     0.24112   0.53113   0.96051   0.00000  Uiso   1.00
C1085  C     0.04795   0.45901   0.51376   0.00000  Uiso   1.00
C1086  C     0.28307   0.54443   0.98631   0.00000  Uiso   1.00
C1087  C     0.19196   0.65555   0.74617   0.00000  Uiso   1.00
C1088  C     0.14246   0.34446   0.75042   0.00000  Uiso   1.00
C1089  C     0.12797   0.49598   0.83302   0.00000  Uiso   1.00
C1090  C     0.20521   0.50347   0.66695   0.00000  Uiso   1.00
C1091  C     0.10480   0.49063   0.88052   0.00000  Uiso   1.00
C1092  C     0.22784   0.50836   0.61929   0.00000  Uiso   1.00
C1093  C     0.02375   0.45291   0.94444   0.00000  Uiso   1.00
C1094  C     0.30925   0.54754   0.55550   0.00000  Uiso   1.00
C1095  C     0.04329   0.46336   0.89964   0.00000  Uiso   1.00
C1096  C     0.28979   0.53462   0.60010   0.00000  Uiso   1.00
C1097  C     0.14660   0.51109   0.90645   0.00000  Uiso   1.00
C1098  C     0.18417   0.49128   0.59391   0.00000  Uiso   1.00
C1099  C     0.13103   0.49730   0.95106   0.00000  Uiso   1.00
C1100  C     0.19995   0.50600   0.54938   0.00000  Uiso   1.00
C1101  C     0.06764   0.46970   0.96966   0.00000  Uiso   1.00
C1102  C     0.26411   0.53258   0.53050   0.00000  Uiso   1.00
C1103  C     0.17577   0.50898   0.97770   0.00000  Uiso   1.00
C1104  C     0.15479   0.49584   0.52290   0.00000  Uiso   1.00
Cu1105 Cu    0.10737   0.49441   0.74517   0.00000  Uiso   1.00
Cu1106 Cu    0.22596   0.50559   0.75483   0.00000  Uiso   1.00
H1107  H     0.33236   0.44045   0.52931   0.00000  Uiso   1.00
H1108  H     0.33202   0.56264   0.97058   0.00000  Uiso   1.00
H1109  H     0.32158   0.54591   0.62091   0.00000  Uiso   1.00
H1110  H     0.01097   0.45030   0.87942   0.00000  Uiso   1.00
H1111  H     0.06454   0.46994   0.57312   0.00000  Uiso   1.00
H1112  H     0.26337   0.53689   0.92659   0.00000  Uiso   1.00
N1113  N     0.31506   0.51401   0.76212   0.00000  Uiso   1.00
N1114  N     0.01827   0.48599   0.73788   0.00000  Uiso   1.00
O1115  O     0.12815   0.57142   0.74686   0.00000  Uiso   1.00
O1116  O     0.20518   0.42858   0.75314   0.00000  Uiso   1.00
O1117  O     0.22829   0.58086   0.75503   0.00000  Uiso   1.00
O1118  O     0.10504   0.41914   0.74498   0.00000  Uiso   1.00
O1119  O     0.08851   0.49263   0.80855   0.00000  Uiso   1.00
O1120  O     0.24482   0.50737   0.69145   0.00000  Uiso   1.00
O1121  O     0.18866   0.50207   0.81671   0.00000  Uiso   1.00
O1122  O     0.14468   0.49793   0.68329   0.00000  Uiso   1.00
O1123  O     0.12404   0.46410   0.61463   0.00000  Uiso   1.00
C1124  C     0.12269   0.41098   0.61592   0.00000  Uiso   1.00
H1125  H     0.15011   0.40348   0.63870   0.00000  Uiso   1.00
H1126  H     0.14387   0.39780   0.58316   0.00000  Uiso   1.00
C1127  C     0.05288   0.38103   0.63054   0.00000  Uiso   1.00
H1128  H     0.02172   0.40720   0.64593   0.00000  Uiso   1.00
H1129  H     0.03614   0.36570   0.60176   0.00000  Uiso   1.00
C1130  C     0.04314   0.33718   0.66285   0.00000  Uiso   1.00
H1131  H     0.07827   0.64623   0.65148   0.00000  Uiso   1.00
H1132  H     0.32783   0.64569   0.66743   0.00000  Uiso   1.00
H1133  H     0.04823   0.35347   0.69448   0.00000  Uiso   1.00
O1134  O     0.19910   0.54927   0.88818   0.00000  Uiso   1.00
C1135  C     0.18328   0.59789   0.89594   0.00000  Uiso   1.00
H1136  H     0.21224   0.61975   0.91693   0.00000  Uiso   1.00
H1137  H     0.13210   0.59611   0.91255   0.00000  Uiso   1.00
C1138  C     0.19805   0.62671   0.85301   0.00000  Uiso   1.00
H1139  H     0.17362   0.60155   0.83143   0.00000  Uiso   1.00
H1140  H     0.17712   0.66111   0.85745   0.00000  Uiso   1.00
C1141  C     0.26977   0.64200   0.83234   0.00000  Uiso   1.00
H1142  H     0.29607   0.66111   0.85580   0.00000  Uiso   1.00
H1143  H     0.27986   0.33598   0.80486   0.00000  Uiso   1.00
H1144  H     0.28795   0.60731   0.82042   0.00000  Uiso   1.00
O1145  O     0.29459   0.42916   0.96547   0.00000  Uiso   1.00
C1146  C     0.26869   0.38659   0.94290   0.00000  Uiso   1.00
H1147  H     0.24241   0.35509   0.96691   0.00000  Uiso   1.00
H1148  H     0.30553   0.36965   0.92022   0.00000  Uiso   1.00
C1149  C     0.22368   0.40212   0.91927   0.00000  Uiso   1.00
H1150  H     0.23312   0.44458   0.91584   0.00000  Uiso   1.00
H1151  H     0.23412   0.38870   0.88581   0.00000  Uiso   1.00
C1152  C     0.15366   0.38155   0.94223   0.00000  Uiso   1.00
H1153  H     0.14215   0.33929   0.94730   0.00000  Uiso   1.00
H1154  H     0.12320   0.39082   0.92251   0.00000  Uiso   1.00
H1155  H     0.14257   0.39905   0.97445   0.00000  Uiso   1.00
O1156  O     0.03768   0.57431   0.53420   0.00000  Uiso   1.00
C1157  C     0.07695   0.59519   0.56187   0.00000  Uiso   1.00
H1158  H     0.08808   0.56394   0.57848   0.00000  Uiso   1.00
H1159  H     0.05302   0.61969   0.58610   0.00000  Uiso   1.00
C1160  C     0.13929   0.62899   0.53561   0.00000  Uiso   1.00
H1161  H     0.15806   0.60916   0.50556   0.00000  Uiso   1.00
H1162  H     0.12973   0.66563   0.52644   0.00000  Uiso   1.00
C1163  C     0.18974   0.64132   0.56135   0.00000  Uiso   1.00
H1164  H     0.20529   0.60619   0.56680   0.00000  Uiso   1.00
H1165  H     0.17083   0.65639   0.59354   0.00000  Uiso   1.00
H1166  H     0.23179   0.33704   0.54342   0.00000  Uiso   1.00
F1167  F     0.25285   0.35089   0.73756   0.00000  Uiso   1.00
F1168  F     0.08153   0.64924   0.75794   0.00000  Uiso   1.00
F1169  F     0.32892   0.52816   0.79959   0.00000  Uiso   1.00
F1170  F     0.00424   0.47165   0.70055   0.00000  Uiso   1.00
C1171  C     0.51579   0.59993   0.74917   0.00000  Uiso   1.00
C1172  C     0.48510   0.40008   0.74887   0.00000  Uiso   1.00
C1173  C     0.42241   0.47393   0.53971   0.00000  Uiso   1.00
C1174  C     0.57445   0.53113   0.96051   0.00000  Uiso   1.00
C1175  C     0.38129   0.45901   0.51376   0.00000  Uiso   1.00
C1176  C     0.61641   0.54443   0.98631   0.00000  Uiso   1.00
C1177  C     0.52529   0.65555   0.74617   0.00000  Uiso   1.00
C1178  C     0.47579   0.34446   0.75042   0.00000  Uiso   1.00
C1179  C     0.46131   0.49598   0.83302   0.00000  Uiso   1.00
C1180  C     0.53854   0.50347   0.66695   0.00000  Uiso   1.00
C1181  C     0.43814   0.49063   0.88052   0.00000  Uiso   1.00
C1182  C     0.56117   0.50836   0.61929   0.00000  Uiso   1.00
C1183  C     0.35708   0.45291   0.94444   0.00000  Uiso   1.00
C1184  C     0.64258   0.54754   0.55550   0.00000  Uiso   1.00
C1185  C     0.37662   0.46336   0.89964   0.00000  Uiso   1.00
C1186  C     0.62312   0.53462   0.60010   0.00000  Uiso   1.00
C1187  C     0.47993   0.51109   0.90645   0.00000  Uiso   1.00
C1188  C     0.51751   0.49128   0.59391   0.00000  Uiso   1.00
C1189  C     0.46437   0.49730   0.95106   0.00000  Uiso   1.00
C1190  C     0.53328   0.50600   0.54938   0.00000  Uiso   1.00
C1191  C     0.40098   0.46970   0.96966   0.00000  Uiso   1.00
C1192  C     0.59744   0.53258   0.53050   0.00000  Uiso   1.00
C1193  C     0.50910   0.50898   0.97770   0.00000  Uiso   1.00
C1194  C     0.48812   0.49584   0.52290   0.00000  Uiso   1.00
Cu1195 Cu    0.44071   0.49441   0.74517   0.00000  Uiso   1.00
Cu1196 Cu    0.55929   0.50559   0.75483   0.00000  Uiso   1.00
H1197  H     0.66569   0.44045   0.52931   0.00000  Uiso   1.00
H1198  H     0.66535   0.56264   0.97058   0.00000  Uiso   1.00
H1199  H     0.65492   0.54591   0.62091   0.00000  Uiso   1.00
H1200  H     0.34430   0.45030   0.87942   0.00000  Uiso   1.00
H1201  H     0.39787   0.46994   0.57312   0.00000  Uiso   1.00
H1202  H     0.59671   0.53689   0.92659   0.00000  Uiso   1.00
N1203  N     0.64839   0.51401   0.76212   0.00000  Uiso   1.00
N1204  N     0.35161   0.48599   0.73788   0.00000  Uiso   1.00
O1205  O     0.46148   0.57142   0.74686   0.00000  Uiso   1.00
O1206  O     0.53852   0.42858   0.75314   0.00000  Uiso   1.00
O1207  O     0.56163   0.58086   0.75503   0.00000  Uiso   1.00
O1208  O     0.43837   0.41914   0.74498   0.00000  Uiso   1.00
O1209  O     0.42185   0.49263   0.80855   0.00000  Uiso   1.00
O1210  O     0.57815   0.50737   0.69145   0.00000  Uiso   1.00
O1211  O     0.52199   0.50207   0.81671   0.00000  Uiso   1.00
O1212  O     0.47801   0.49793   0.68329   0.00000  Uiso   1.00
O1213  O     0.45738   0.46410   0.61463   0.00000  Uiso   1.00
C1214  C     0.45602   0.41098   0.61592   0.00000  Uiso   1.00
H1215  H     0.48344   0.40348   0.63870   0.00000  Uiso   1.00
H1216  H     0.47721   0.39780   0.58316   0.00000  Uiso   1.00
C1217  C     0.38621   0.38103   0.63054   0.00000  Uiso   1.00
H1218  H     0.35506   0.40720   0.64593   0.00000  Uiso   1.00
H1219  H     0.36948   0.36570   0.60176   0.00000  Uiso   1.00
C1220  C     0.37648   0.33718   0.66285   0.00000  Uiso   1.00
H1221  H     0.41160   0.64623   0.65148   0.00000  Uiso   1.00
H1222  H     0.66116   0.64569   0.66743   0.00000  Uiso   1.00
H1223  H     0.38156   0.35347   0.69448   0.00000  Uiso   1.00
O1224  O     0.53243   0.54927   0.88818   0.00000  Uiso   1.00
C1225  C     0.51661   0.59789   0.89594   0.00000  Uiso   1.00
H1226  H     0.54557   0.61975   0.91693   0.00000  Uiso   1.00
H1227  H     0.46543   0.59611   0.91255   0.00000  Uiso   1.00
C1228  C     0.53138   0.62671   0.85301   0.00000  Uiso   1.00
H1229  H     0.50695   0.60155   0.83143   0.00000  Uiso   1.00
H1230  H     0.51045   0.66111   0.85745   0.00000  Uiso   1.00
C1231  C     0.60310   0.64200   0.83234   0.00000  Uiso   1.00
H1232  H     0.62940   0.66111   0.85580   0.00000  Uiso   1.00
H1233  H     0.61319   0.33598   0.80486   0.00000  Uiso   1.00
H1234  H     0.62128   0.60731   0.82042   0.00000  Uiso   1.00
O1235  O     0.62793   0.42916   0.96547   0.00000  Uiso   1.00
C1236  C     0.60202   0.38659   0.94290   0.00000  Uiso   1.00
H1237  H     0.57574   0.35509   0.96691   0.00000  Uiso   1.00
H1238  H     0.63886   0.36965   0.92022   0.00000  Uiso   1.00
C1239  C     0.55701   0.40212   0.91927   0.00000  Uiso   1.00
H1240  H     0.56645   0.44458   0.91584   0.00000  Uiso   1.00
H1241  H     0.56745   0.38870   0.88581   0.00000  Uiso   1.00
C1242  C     0.48699   0.38155   0.94223   0.00000  Uiso   1.00
H1243  H     0.47548   0.33929   0.94730   0.00000  Uiso   1.00
H1244  H     0.45653   0.39082   0.92251   0.00000  Uiso   1.00
H1245  H     0.47590   0.39905   0.97445   0.00000  Uiso   1.00
O1246  O     0.37101   0.57431   0.53420   0.00000  Uiso   1.00
C1247  C     0.41028   0.59519   0.56187   0.00000  Uiso   1.00
H1248  H     0.42141   0.56394   0.57848   0.00000  Uiso   1.00
H1249  H     0.38636   0.61969   0.58610   0.00000  Uiso   1.00
C1250  C     0.47262   0.62899   0.53561   0.00000  Uiso   1.00
H1251  H     0.49140   0.60916   0.50556   0.00000  Uiso   1.00
H1252  H     0.46307   0.66563   0.52644   0.00000  Uiso   1.00
C1253  C     0.52307   0.64132   0.56135   0.00000  Uiso   1.00
H1254  H     0.53863   0.60619   0.56680   0.00000  Uiso   1.00
H1255  H     0.50416   0.65639   0.59354   0.00000  Uiso   1.00
H1256  H     0.56512   0.33704   0.54342   0.00000  Uiso   1.00
F1257  F     0.58618   0.35089   0.73756   0.00000  Uiso   1.00
F1258  F     0.41486   0.64924   0.75794   0.00000  Uiso   1.00
F1259  F     0.66225   0.52816   0.79959   0.00000  Uiso   1.00
F1260  F     0.33757   0.47165   0.70055   0.00000  Uiso   1.00
C1261  C     0.84913   0.59993   0.74917   0.00000  Uiso   1.00
C1262  C     0.81844   0.40008   0.74887   0.00000  Uiso   1.00
C1263  C     0.75574   0.47393   0.53971   0.00000  Uiso   1.00
C1264  C     0.90779   0.53113   0.96051   0.00000  Uiso   1.00
C1265  C     0.71462   0.45901   0.51376   0.00000  Uiso   1.00
C1266  C     0.94974   0.54443   0.98631   0.00000  Uiso   1.00
C1267  C     0.85863   0.65555   0.74617   0.00000  Uiso   1.00
C1268  C     0.80913   0.34446   0.75042   0.00000  Uiso   1.00
C1269  C     0.79464   0.49598   0.83302   0.00000  Uiso   1.00
C1270  C     0.87187   0.50347   0.66695   0.00000  Uiso   1.00
C1271  C     0.77147   0.49063   0.88052   0.00000  Uiso   1.00
C1272  C     0.89451   0.50836   0.61929   0.00000  Uiso   1.00
C1273  C     0.69041   0.45291   0.94444   0.00000  Uiso   1.00
C1274  C     0.97592   0.54754   0.55550   0.00000  Uiso   1.00
C1275  C     0.70995   0.46336   0.89964   0.00000  Uiso   1.00
C1276  C     0.95646   0.53462   0.60010   0.00000  Uiso   1.00
C1277  C     0.81326   0.51109   0.90645   0.00000  Uiso   1.00
C1278  C     0.85084   0.49128   0.59391   0.00000  Uiso   1.00
C1279  C     0.79770   0.49730   0.95106   0.00000  Uiso   1.00
C1280  C     0.86662   0.50600   0.54938   0.00000  Uiso   1.00
C1281  C     0.73431   0.46970   0.96966   0.00000  Uiso   1.00
C1282  C     0.93077   0.53258   0.53050   0.00000  Uiso   1.00
C1283  C     0.84243   0.50898   0.97770   0.00000  Uiso   1.00
C1284  C     0.82146   0.49584   0.52290   0.00000  Uiso   1.00
Cu1285 Cu    0.77404   0.49441   0.74517   0.00000  Uiso   1.00
Cu1286 Cu    0.89263   0.50559   0.75483   0.00000  Uiso   1.00
H1287  H     0.99902   0.44045   0.52931   0.00000  Uiso   1.00
H1288  H     0.99868   0.56264   0.97058   0.00000  Uiso   1.00
H1289  H     0.98825   0.54591   0.62091   0.00000  Uiso   1.00
H1290  H     0.67764   0.45030   0.87942   0.00000  Uiso   1.00
H1291  H     0.73121   0.46994   0.57312   0.00000  Uiso   1.00
H1292  H     0.93004   0.53689   0.92659   0.00000  Uiso   1.00
N1293  N     0.98173   0.51401   0.76212   0.00000  Uiso   1.00
N1294  N     0.68494   0.48599   0.73788   0.00000  Uiso   1.00
O1295  O     0.79482   0.57142   0.74686   0.00000  Uiso   1.00
O1296  O     0.87185   0.42858   0.75314   0.00000  Uiso   1.00
O1297  O     0.89496   0.58086   0.75503   0.00000  Uiso   1.00
O1298  O     0.77171   0.41914   0.74498   0.00000  Uiso   1.00
O1299  O     0.75518   0.49263   0.80855   0.00000  Uiso   1.00
O1300  O     0.91149   0.50737   0.69145   0.00000  Uiso   1.00
O1301  O     0.85532   0.50207   0.81671   0.00000  Uiso   1.00
O1302  O     0.81134   0.49793   0.68329   0.00000  Uiso   1.00
O1303  O     0.79071   0.46410   0.61463   0.00000  Uiso   1.00
C1304  C     0.78935   0.41098   0.61592   0.00000  Uiso   1.00
H1305  H     0.81677   0.40348   0.63870   0.00000  Uiso   1.00
H1306  H     0.81054   0.39780   0.58316   0.00000  Uiso   1.00
C1307  C     0.71954   0.38103   0.63054   0.00000  Uiso   1.00
H1308  H     0.68839   0.40720   0.64593   0.00000  Uiso   1.00
H1309  H     0.70281   0.36570   0.60176   0.00000  Uiso   1.00
C1310  C     0.70981   0.33718   0.66285   0.00000  Uiso   1.00
H1311  H     0.74493   0.64623   0.65148   0.00000  Uiso   1.00
H1312  H     0.99449   0.64569   0.66743   0.00000  Uiso   1.00
H1313  H     0.71490   0.35347   0.69448   0.00000  Uiso   1.00
O1314  O     0.86576   0.54927   0.88818   0.00000  Uiso   1.00
C1315  C     0.84994   0.59789   0.89594   0.00000  Uiso   1.00
H1316  H     0.87890   0.61975   0.91693   0.00000  Uiso   1.00
H1317  H     0.79877   0.59611   0.91255   0.00000  Uiso   1.00
C1318  C     0.86471   0.62671   0.85301   0.00000  Uiso   1.00
H1319  H     0.84028   0.60155   0.83143   0.00000  Uiso   1.00
H1320  H     0.84378   0.66111   0.85745   0.00000  Uiso   1.00
C1321  C     0.93643   0.64200   0.83234   0.00000  Uiso   1.00
H1322  H     0.96274   0.66111   0.85580   0.00000  Uiso   1.00
H1323  H     0.94653   0.33598   0.80486   0.00000  Uiso   1.00
H1324  H     0.95461   0.60731   0.82042   0.00000  Uiso   1.00
O1325  O     0.96126   0.42916   0.96547   0.00000  Uiso   1.00
C1326  C     0.93535   0.38659   0.94290   0.00000  Uiso   1.00
H1327  H     0.90908   0.35509   0.96691   0.00000  Uiso   1.00
H1328  H     0.97219   0.36965   0.92022   0.00000  Uiso   1.00
C1329  C     0.89034   0.40212   0.91927   0.00000  Uiso   1.00
H1330  H     0.89979   0.44458   0.91584   0.00000  Uiso   1.00
H1331  H     0.90079   0.38870   0.88581   0.00000  Uiso   1.00
C1332  C     0.82032   0.38155   0.94223   0.00000  Uiso   1.00
H1333  H     0.80881   0.33929   0.94730   0.00000  Uiso   1.00
H1334  H     0.78987   0.39082   0.92251   0.00000  Uiso   1.00
H1335  H     0.80923   0.39905   0.97445   0.00000  Uiso   1.00
O1336  O     0.70434   0.57431   0.53420   0.00000  Uiso   1.00
C1337  C     0.74361   0.59519   0.56187   0.00000  Uiso   1.00
H1338  H     0.75474   0.56394   0.57848   0.00000  Uiso   1.00
H1339  H     0.71969   0.61969   0.58610   0.00000  Uiso   1.00
C1340  C     0.80596   0.62899   0.53561   0.00000  Uiso   1.00
H1341  H     0.82473   0.60916   0.50556   0.00000  Uiso   1.00
H1342  H     0.79640   0.66563   0.52644   0.00000  Uiso   1.00
C1343  C     0.85641   0.64132   0.56135   0.00000  Uiso   1.00
H1344  H     0.87196   0.60619   0.56680   0.00000  Uiso   1.00
H1345  H     0.83749   0.65639   0.59354   0.00000  Uiso   1.00
H1346  H     0.89845   0.33704   0.54342   0.00000  Uiso   1.00
F1347  F     0.91952   0.35089   0.73756   0.00000  Uiso   1.00
F1348  F     0.74820   0.64924   0.75794   0.00000  Uiso   1.00
F1349  F     0.99559   0.52816   0.79959   0.00000  Uiso   1.00
F1350  F     0.67090   0.47165   0.70055   0.00000  Uiso   1.00
C1351  C     0.18246   0.93327   0.74917   0.00000  Uiso   1.00
C1352  C     0.15177   0.73342   0.74887   0.00000  Uiso   1.00
C1353  C     0.08908   0.80726   0.53971   0.00000  Uiso   1.00
C1354  C     0.24112   0.86447   0.96051   0.00000  Uiso   1.00
C1355  C     0.04795   0.79234   0.51376   0.00000  Uiso   1.00
C1356  C     0.28307   0.87777   0.98631   0.00000  Uiso   1.00
C1357  C     0.19196   0.98889   0.74617   0.00000  Uiso   1.00
C1358  C     0.14246   0.67779   0.75042   0.00000  Uiso   1.00
C1359  C     0.12797   0.82932   0.83302   0.00000  Uiso   1.00
C1360  C     0.20521   0.83681   0.66695   0.00000  Uiso   1.00
C1361  C     0.10480   0.82396   0.88052   0.00000  Uiso   1.00
C1362  C     0.22784   0.84169   0.61929   0.00000  Uiso   1.00
C1363  C     0.02375   0.78624   0.94444   0.00000  Uiso   1.00
C1364  C     0.30925   0.88088   0.55550   0.00000  Uiso   1.00
C1365  C     0.04329   0.79669   0.89964   0.00000  Uiso   1.00
C1366  C     0.28979   0.86795   0.60010   0.00000  Uiso   1.00
C1367  C     0.14660   0.84443   0.90645   0.00000  Uiso   1.00
C1368  C     0.18417   0.82462   0.59391   0.00000  Uiso   1.00
C1369  C     0.13103   0.83063   0.95106   0.00000  Uiso   1.00
C1370  C     0.19995   0.83933   0.54938   0.00000  Uiso   1.00
C1371  C     0.06764   0.80304   0.96966   0.00000  Uiso   1.00
C1372  C     0.26411   0.86592   0.53050   0.00000  Uiso   1.00
C1373  C     0.17577   0.84231   0.97770   0.00000  Uiso   1.00
C1374  C     0.15479   0.82917   0.52290   0.00000  Uiso   1.00
Cu1375 Cu    0.10737   0.82775   0.74517   0.00000  Uiso   1.00
Cu1376 Cu    0.22596   0.83892   0.75483   0.00000  Uiso   1.00
H1377  H     0.33236   0.77379   0.52931   0.00000  Uiso   1.00
H1378  H     0.33202   0.89597   0.97058   0.00000  Uiso   1.00
H1379  H     0.32158   0.87924   0.62091   0.00000  Uiso   1.00
H1380  H     0.01097   0.78363   0.87942   0.00000  Uiso   1.00
H1381  H     0.06454   0.80327   0.57312   0.00000  Uiso   1.00
H1382  H     0.26337   0.87022   0.92659   0.00000  Uiso   1.00
N1383  N     0.31506   0.84735   0.76212   0.00000  Uiso   1.00
N1384  N     0.01827   0.81932   0.73788   0.00000  Uiso   1.00
O1385  O     0.12815   0.90476   0.74686   0.00000  Uiso   1.00
O1386  O     0.20518   0.76191   0.75314   0.00000  Uiso   1.00
O1387  O     0.22829   0.91420   0.75503   0.00000  Uiso   1.00
O1388  O     0.10504   0.75247   0.74498   0.00000  Uiso   1.00
O1389  O     0.08851   0.82597   0.80855   0.00000  Uiso   1.00
O1390  O     0.24482   0.84070   0.69145   0.00000  Uiso   1.00
O1391  O     0.18866   0.83540   0.81671   0.00000  Uiso   1.00
O1392  O     0.14468   0.83126   0.68329   0.00000  Uiso   1.00
O1393  O     0.12404   0.79743   0.61463   0.00000  Uiso   1.00
C1394  C     0.12269   0.74432   0.61592   0.00000  Uiso   1.00
H1395  H     0.15011   0.73681   0.63870   0.00000  Uiso   1.00
H1396  H     0.14387   0.73113   0.58316   0.00000  Uiso   1.00
C1397  C     0.05288   0.71437   0.63054   0.00000  Uiso   1.00
H1398  H     0.02172   0.74054   0.64593   0.00000  Uiso   1.00
H1399  H     0.03614   0.69904   0.60176   0.00000  Uiso   1.00
C1400  C     0.04314   0.67051   0.66285   0.00000  Uiso   1.00
H1401  H     0.07827   0.97957   0.65148   0.00000  Uiso   1.00
H1402  H     0.32783   0.97902   0.66743   0.00000  Uiso   1.00
H1403  H     0.04823   0.68680   0.69448   0.00000  Uiso   1.00
O1404  O     0.19910   0.88260   0.88818   0.00000  Uiso   1.00
C1405  C     0.18328   0.93122   0.89594   0.00000  Uiso   1.00
H1406  H     0.21224   0.95308   0.91693   0.00000  Uiso   1.00
H1407  H     0.13210   0.92944   0.91255   0.00000  Uiso   1.00
C1408  C     0.19805   0.96005   0.85301   0.00000  Uiso   1.00
H1409  H     0.17362   0.93489   0.83143   0.00000  Uiso   1.00
H1410  H     0.17712   0.99445   0.85745   0.00000  Uiso   1.00
C1411  C     0.26977   0.97533   0.83234   0.00000  Uiso   1.00
H1412  H     0.29607   0.99444   0.85580   0.00000  Uiso   1.00
H1413  H     0.27986   0.66931   0.80486   0.00000  Uiso   1.00
H1414  H     0.28795   0.94065   0.82042   0.00000  Uiso   1.00
O1415  O     0.29459   0.76250   0.96547   0.00000  Uiso   1.00
C1416  C     0.26869   0.71992   0.94290   0.00000  Uiso   1.00
H1417  H     0.24241   0.68842   0.96691   0.00000  Uiso   1.00
H1418  H     0.30553   0.70298   0.92022   0.00000  Uiso   1.00
C1419  C     0.22368   0.73546   0.91927   0.00000  Uiso   1.00
H1420  H     0.23312   0.77791   0.91584   0.00000  Uiso   1.00
H1421  H     0.23412   0.72203   0.88581   0.00000  Uiso   1.00
C1422  C     0.15366   0.71488   0.94223   0.00000  Uiso   1.00
H1423  H     0.14215   0.67262   0.94730   0.00000  Uiso   1.00
H1424  H     0.12320   0.72416   0.92251   0.00000  Uiso   1.00
H1425  H     0.14257   0.73238   0.97445   0.00000  Uiso   1.00
O1426  O     0.03768   0.90764   0.53420   0.00000  Uiso   1.00
C1427  C     0.07695   0.92852   0.56187   0.00000  Uiso   1.00
H1428  H     0.08808   0.89727   0.57848   0.00000  Uiso   1.00
H1429  H     0.05302   0.95302   0.58610   0.00000  Uiso   1.00
C1430  C     0.13929   0.96233   0.53561   0.00000  Uiso   1.00
H1431  H     0.15806   0.94250   0.50556   0.00000  Uiso   1.00
H1432  H     0.12973   0.99897   0.52644   0.00000  Uiso   1.00
C1433  C     0.18974   0.97465   0.56135   0.00000  Uiso   1.00
H1434  H     0.20529   0.93952   0.56680   0.00000  Uiso   1.00
H1435  H     0.17083   0.98972   0.59354   0.00000  Uiso   1.00
H1436  H     0.23179   0.67037   0.54342   0.00000  Uiso   1.00
F1437  F     0.25285   0.68422   0.73756   0.00000  Uiso   1.00
F1438  F     0.08153   0.98258   0.75794   0.00000  Uiso   1.00
F1439  F     0.32892   0.86150   0.79959   0.00000  Uiso   1.00
F1440  F     0.00424   0.80498   0.70055   0.00000  Uiso   1.00
C1441  C     0.51579   0.93327   0.74917   0.00000  Uiso   1.00
C1442  C     0.48510   0.73342   0.74887   0.00000  Uiso   1.00
C1443  C     0.42241   0.80726   0.53971   0.00000  Uiso   1.00
C1444  C     0.57445   0.86447   0.96051   0.00000  Uiso   1.00
C1445  C     0.38129   0.79234   0.51376   0.00000  Uiso   1.00
C1446  C     0.61641   0.87777   0.98631   0.00000  Uiso   1.00
C1447  C     0.52529   0.98889   0.74617   0.00000  Uiso   1.00
C1448  C     0.47579   0.67779   0.75042   0.00000  Uiso   1.00
C1449  C     0.46131   0.82932   0.83302   0.00000  Uiso   1.00
C1450  C     0.53854   0.83681   0.66695   0.00000  Uiso   1.00
C1451  C     0.43814   0.82396   0.88052   0.00000  Uiso   1.00
C1452  C     0.56117   0.84169   0.61929   0.00000  Uiso   1.00
C1453  C     0.35708   0.78624   0.94444   0.00000  Uiso   1.00
C1454  C     0.64258   0.88088   0.55550   0.00000  Uiso   1.00
C1455  C     0.37662   0.79669   0.89964   0.00000  Uiso   1.00
C1456  C     0.62312   0.86795   0.60010   0.00000  Uiso   1.00
C1457  C     0.47993   0.84443   0.90645   0.00000  Uiso   1.00
C1458  C     0.51751   0.82462   0.59391   0.00000  Uiso   1.00
C1459  C     0.46437   0.83063   0.95106   0.00000  Uiso   1.00
C1460  C     0.53328   0.83933   0.54938   0.00000  Uiso   1.00
C1461  C     0.40098   0.80304   0.96966   0.00000  Uiso   1.00
C1462  C     0.59744   0.86592   0.53050   0.00000  Uiso   1.00
C1463  C     0.50910   0.84231   0.97770   0.00000  Uiso   1.00
C1464  C     0.48812   0.82917   0.52290   0.00000  Uiso   1.00
Cu1465 Cu    0.44071   0.82775   0.74517   0.00000  Uiso   1.00
Cu1466 Cu    0.55929   0.83892   0.75483   0.00000  Uiso   1.00
H1467  H     0.66569   0.77379   0.52931   0.00000  Uiso   1.00
H1468  H     0.66535   0.89597   0.97058   0.00000  Uiso   1.00
H1469  H     0.65492   0.87924   0.62091   0.00000  Uiso   1.00
H1470  H     0.34430   0.78363   0.87942   0.00000  Uiso   1.00
H1471  H     0.39787   0.80327   0.57312   0.00000  Uiso   1.00
H1472  H     0.59671   0.87022   0.92659   0.00000  Uiso   1.00
N1473  N     0.64839   0.84735   0.76212   0.00000  Uiso   1.00
N1474  N     0.35161   0.81932   0.73788   0.00000  Uiso   1.00
O1475  O     0.46148   0.90476   0.74686   0.00000  Uiso   1.00
O1476  O     0.53852   0.76191   0.75314   0.00000  Uiso   1.00
O1477  O     0.56163   0.91420   0.75503   0.00000  Uiso   1.00
O1478  O     0.43837   0.75247   0.74498   0.00000  Uiso   1.00
O1479  O     0.42185   0.82597   0.80855   0.00000  Uiso   1.00
O1480  O     0.57815   0.84070   0.69145   0.00000  Uiso   1.00
O1481  O     0.52199   0.83540   0.81671   0.00000  Uiso   1.00
O1482  O     0.47801   0.83126   0.68329   0.00000  Uiso   1.00
O1483  O     0.45738   0.79743   0.61463   0.00000  Uiso   1.00
C1484  C     0.45602   0.74432   0.61592   0.00000  Uiso   1.00
H1485  H     0.48344   0.73681   0.63870   0.00000  Uiso   1.00
H1486  H     0.47721   0.73113   0.58316   0.00000  Uiso   1.00
C1487  C     0.38621   0.71437   0.63054   0.00000  Uiso   1.00
H1488  H     0.35506   0.74054   0.64593   0.00000  Uiso   1.00
H1489  H     0.36948   0.69904   0.60176   0.00000  Uiso   1.00
C1490  C     0.37648   0.67051   0.66285   0.00000  Uiso   1.00
H1491  H     0.41160   0.97957   0.65148   0.00000  Uiso   1.00
H1492  H     0.66116   0.97902   0.66743   0.00000  Uiso   1.00
H1493  H     0.38156   0.68680   0.69448   0.00000  Uiso   1.00
O1494  O     0.53243   0.88260   0.88818   0.00000  Uiso   1.00
C1495  C     0.51661   0.93122   0.89594   0.00000  Uiso   1.00
H1496  H     0.54557   0.95308   0.91693   0.00000  Uiso   1.00
H1497  H     0.46543   0.92944   0.91255   0.00000  Uiso   1.00
C1498  C     0.53138   0.96005   0.85301   0.00000  Uiso   1.00
H1499  H     0.50695   0.93489   0.83143   0.00000  Uiso   1.00
H1500  H     0.51045   0.99445   0.85745   0.00000  Uiso   1.00
C1501  C     0.60310   0.97533   0.83234   0.00000  Uiso   1.00
H1502  H     0.62940   0.99444   0.85580   0.00000  Uiso   1.00
H1503  H     0.61319   0.66931   0.80486   0.00000  Uiso   1.00
H1504  H     0.62128   0.94065   0.82042   0.00000  Uiso   1.00
O1505  O     0.62793   0.76250   0.96547   0.00000  Uiso   1.00
C1506  C     0.60202   0.71992   0.94290   0.00000  Uiso   1.00
H1507  H     0.57574   0.68842   0.96691   0.00000  Uiso   1.00
H1508  H     0.63886   0.70298   0.92022   0.00000  Uiso   1.00
C1509  C     0.55701   0.73546   0.91927   0.00000  Uiso   1.00
H1510  H     0.56645   0.77791   0.91584   0.00000  Uiso   1.00
H1511  H     0.56745   0.72203   0.88581   0.00000  Uiso   1.00
C1512  C     0.48699   0.71488   0.94223   0.00000  Uiso   1.00
H1513  H     0.47548   0.67262   0.94730   0.00000  Uiso   1.00
H1514  H     0.45653   0.72416   0.92251   0.00000  Uiso   1.00
H1515  H     0.47590   0.73238   0.97445   0.00000  Uiso   1.00
O1516  O     0.37101   0.90764   0.53420   0.00000  Uiso   1.00
C1517  C     0.41028   0.92852   0.56187   0.00000  Uiso   1.00
H1518  H     0.42141   0.89727   0.57848   0.00000  Uiso   1.00
H1519  H     0.38636   0.95302   0.58610   0.00000  Uiso   1.00
C1520  C     0.47262   0.96233   0.53561   0.00000  Uiso   1.00
H1521  H     0.49140   0.94250   0.50556   0.00000  Uiso   1.00
H1522  H     0.46307   0.99897   0.52644   0.00000  Uiso   1.00
C1523  C     0.52307   0.97465   0.56135   0.00000  Uiso   1.00
H1524  H     0.53863   0.93952   0.56680   0.00000  Uiso   1.00
H1525  H     0.50416   0.98972   0.59354   0.00000  Uiso   1.00
H1526  H     0.56512   0.67037   0.54342   0.00000  Uiso   1.00
F1527  F     0.58618   0.68422   0.73756   0.00000  Uiso   1.00
F1528  F     0.41486   0.98258   0.75794   0.00000  Uiso   1.00
F1529  F     0.66225   0.86150   0.79959   0.00000  Uiso   1.00
F1530  F     0.33757   0.80498   0.70055   0.00000  Uiso   1.00
C1531  C     0.84913   0.93327   0.74917   0.00000  Uiso   1.00
C1532  C     0.81844   0.73342   0.74887   0.00000  Uiso   1.00
C1533  C     0.75574   0.80726   0.53971   0.00000  Uiso   1.00
C1534  C     0.90779   0.86447   0.96051   0.00000  Uiso   1.00
C1535  C     0.71462   0.79234   0.51376   0.00000  Uiso   1.00
C1536  C     0.94974   0.87777   0.98631   0.00000  Uiso   1.00
C1537  C     0.85863   0.98889   0.74617   0.00000  Uiso   1.00
C1538  C     0.80913   0.67779   0.75042   0.00000  Uiso   1.00
C1539  C     0.79464   0.82932   0.83302   0.00000  Uiso   1.00
C1540  C     0.87187   0.83681   0.66695   0.00000  Uiso   1.00
C1541  C     0.77147   0.82396   0.88052   0.00000  Uiso   1.00
C1542  C     0.89451   0.84169   0.61929   0.00000  Uiso   1.00
C1543  C     0.69041   0.78624   0.94444   0.00000  Uiso   1.00
C1544  C     0.97592   0.88088   0.55550   0.00000  Uiso   1.00
C1545  C     0.70995   0.79669   0.89964   0.00000  Uiso   1.00
C1546  C     0.95646   0.86795   0.60010   0.00000  Uiso   1.00
C1547  C     0.81326   0.84443   0.90645   0.00000  Uiso   1.00
C1548  C     0.85084   0.82462   0.59391   0.00000  Uiso   1.00
C1549  C     0.79770   0.83063   0.95106   0.00000  Uiso   1.00
C1550  C     0.86662   0.83933   0.54938   0.00000  Uiso   1.00
C1551  C     0.73431   0.80304   0.96966   0.00000  Uiso   1.00
C1552  C     0.93077   0.86592   0.53050   0.00000  Uiso   1.00
C1553  C     0.84243   0.84231   0.97770   0.00000  Uiso   1.00
C1554  C     0.82146   0.82917   0.52290   0.00000  Uiso   1.00
Cu1555 Cu    0.77404   0.82775   0.74517   0.00000  Uiso   1.00
Cu1556 Cu    0.89263   0.83892   0.75483   0.00000  Uiso   1.00
H1557  H     0.99902   0.77379   0.52931   0.00000  Uiso   1.00
H1558  H     0.99868   0.89597   0.97058   0.00000  Uiso   1.00
H1559  H     0.98825   0.87924   0.62091   0.00000  Uiso   1.00
H1560  H     0.67764   0.78363   0.87942   0.00000  Uiso   1.00
H1561  H     0.73121   0.80327   0.57312   0.00000  Uiso   1.00
H1562  H     0.93004   0.87022   0.92659   0.00000  Uiso   1.00
N1563  N     0.98173   0.84735   0.76212   0.00000  Uiso   1.00
N1564  N     0.68494   0.81932   0.73788   0.00000  Uiso   1.00
O1565  O     0.79482   0.90476   0.74686   0.00000  Uiso   1.00
O1566  O     0.87185   0.76191   0.75314   0.00000  Uiso   1.00
O1567  O     0.89496   0.91420   0.75503   0.00000  Uiso   1.00
O1568  O     0.77171   0.75247   0.74498   0.00000  Uiso   1.00
O1569  O     0.75518   0.82597   0.80855   0.00000  Uiso   1.00
O1570  O     0.91149   0.84070   0.69145   0.00000  Uiso   1.00
O1571  O     0.85532   0.83540   0.81671   0.00000  Uiso   1.00
O1572  O     0.81134   0.83126   0.68329   0.00000  Uiso   1.00
O1573  O     0.79071   0.79743   0.61463   0.00000  Uiso   1.00
C1574  C     0.78935   0.74432   0.61592   0.00000  Uiso   1.00
H1575  H     0.81677   0.73681   0.63870   0.00000  Uiso   1.00
H1576  H     0.81054   0.73113   0.58316   0.00000  Uiso   1.00
C1577  C     0.71954   0.71437   0.63054   0.00000  Uiso   1.00
H1578  H     0.68839   0.74054   0.64593   0.00000  Uiso   1.00
H1579  H     0.70281   0.69904   0.60176   0.00000  Uiso   1.00
C1580  C     0.70981   0.67051   0.66285   0.00000  Uiso   1.00
H1581  H     0.74493   0.97957   0.65148   0.00000  Uiso   1.00
H1582  H     0.99449   0.97902   0.66743   0.00000  Uiso   1.00
H1583  H     0.71490   0.68680   0.69448   0.00000  Uiso   1.00
O1584  O     0.86576   0.88260   0.88818   0.00000  Uiso   1.00
C1585  C     0.84994   0.93122   0.89594   0.00000  Uiso   1.00
H1586  H     0.87890   0.95308   0.91693   0.00000  Uiso   1.00
H1587  H     0.79877   0.92944   0.91255   0.00000  Uiso   1.00
C1588  C     0.86471   0.96005   0.85301   0.00000  Uiso   1.00
H1589  H     0.84028   0.93489   0.83143   0.00000  Uiso   1.00
H1590  H     0.84378   0.99445   0.85745   0.00000  Uiso   1.00
C1591  C     0.93643   0.97533   0.83234   0.00000  Uiso   1.00
H1592  H     0.96274   0.99444   0.85580   0.00000  Uiso   1.00
H1593  H     0.94653   0.66931   0.80486   0.00000  Uiso   1.00
H1594  H     0.95461   0.94065   0.82042   0.00000  Uiso   1.00
O1595  O     0.96126   0.76250   0.96547   0.00000  Uiso   1.00
C1596  C     0.93535   0.71992   0.94290   0.00000  Uiso   1.00
H1597  H     0.90908   0.68842   0.96691   0.00000  Uiso   1.00
H1598  H     0.97219   0.70298   0.92022   0.00000  Uiso   1.00
C1599  C     0.89034   0.73546   0.91927   0.00000  Uiso   1.00
H1600  H     0.89979   0.77791   0.91584   0.00000  Uiso   1.00
H1601  H     0.90079   0.72203   0.88581   0.00000  Uiso   1.00
C1602  C     0.82032   0.71488   0.94223   0.00000  Uiso   1.00
H1603  H     0.80881   0.67262   0.94730   0.00000  Uiso   1.00
H1604  H     0.78987   0.72416   0.92251   0.00000  Uiso   1.00
H1605  H     0.80923   0.73238   0.97445   0.00000  Uiso   1.00
O1606  O     0.70434   0.90764   0.53420   0.00000  Uiso   1.00
C1607  C     0.74361   0.92852   0.56187   0.00000  Uiso   1.00
H1608  H     0.75474   0.89727   0.57848   0.00000  Uiso   1.00
H1609  H     0.71969   0.95302   0.58610   0.00000  Uiso   1.00
C1610  C     0.80596   0.96233   0.53561   0.00000  Uiso   1.00
H1611  H     0.82473   0.94250   0.50556   0.00000  Uiso   1.00
H1612  H     0.79640   0.99897   0.52644   0.00000  Uiso   1.00
C1613  C     0.85641   0.97465   0.56135   0.00000  Uiso   1.00
H1614  H     0.87196   0.93952   0.56680   0.00000  Uiso   1.00
H1615  H     0.83749   0.98972   0.59354   0.00000  Uiso   1.00
H1616  H     0.89845   0.67037   0.54342   0.00000  Uiso   1.00
F1617  F     0.91952   0.68422   0.73756   0.00000  Uiso   1.00
F1618  F     0.74820   0.98258   0.75794   0.00000  Uiso   1.00
F1619  F     0.99559   0.86150   0.79959   0.00000  Uiso   1.00
F1620  F     0.67090   0.80498   0.70055   0.00000  Uiso   1.00
loop_
_geom_bond_atom_site_label_1
_geom_bond_atom_site_label_2
_geom_bond_distance
_geom_bond_site_symmetry_2
_ccdc_geom_bond_type
C1     O37     1.296   .     A
C1     O35     1.292   .     A
C1     C7      1.448   .     S
C2     O38     1.293   .     A
C2     O36     1.295   .     A
C2     C8      1.446   .     S
C3     C24     1.417   .     A
C3     H31     1.065   .     S
C3     C5      1.374   .     A
C4     C23     1.413   .     A
C4     H32     1.072   .     S
C4     C6      1.381   .     A
C5     C831    1.386   1_554 S
C5     H207    1.084   1_455 S
C6     H28     1.084   .     S
C6     C832    1.394   .     S
C7     C278    1.342   .     S
C7     F357    1.361   .     S
C8     C547    1.342   1_545 S
C8     F628    1.362   1_545 S
C9     O39     1.307   .     A
C9     C11     1.476   .     S
C9     O41     1.294   .     A
C10    O42     1.293   .     A
C10    O40     1.310   .     A
C10    C12     1.479   .     S
C11    C15     1.390   .     A
C11    C17     1.409   .     A
C12    C16     1.389   .     A
C12    C18     1.411   .     A
C13    C21     1.410   .     A
C13    C15     1.406   .     A
C13    O245    1.394   1_455 S
C14    C16     1.412   .     A
C14    C22     1.421   .     A
C14    O166    1.406   .     S
C15    H30     1.081   .     S
C16    H29     1.080   .     S
C17    C19     1.421   .     A
C17    O54     1.376   .     S
C18    O43     1.378   .     S
C18    C20     1.425   .     A
C19    C21     1.421   .     A
C19    C23     1.447   .     A
C20    C24     1.450   .     A
C20    C22     1.428   .     A
C21    C815    1.386   .     S
C22    C816    1.394   1_554 S
C23    C834    1.431   .     S
C24    C833    1.431   1_554 S
Cu25   N34     2.022   .     S
Cu25   Cu26    2.690   .     S
Cu25   O38     1.990   .     S
Cu25   O35     1.995   .     S
Cu25   O42     1.937   .     S
Cu25   O39     1.963   .     S
Cu26   O36     1.995   .     S
Cu26   N33     2.022   .     S
Cu26   O37     1.990   .     S
Cu26   O40     1.963   .     S
Cu26   O41     1.937   .     S
H27    C95     1.084   .     S
N33    F89     1.333   .     S
N33    N124    1.315   .     S
N34    F90     1.332   .     S
N34    N213    1.315   1_455 S
O43    C44     1.407   .     S
C44    C47     1.538   .     S
C44    H46     1.113   .     S
C44    H45     1.114   .     S
C47    H49     1.110   .     S
C47    H48     1.108   .     S
C47    C50     1.529   .     S
C50    H53     1.108   .     S
C50    H591    1.109   1_545 S
C50    H772    1.111   1_445 S
H51    C320    1.109   .     S
H52    C410    1.111   .     S
O54    C55     1.413   .     S
C55    H56     1.108   .     S
C55    H57     1.120   .     S
C55    C58     1.521   .     S
C58    H60     1.107   .     S
C58    C61     1.530   .     S
C58    H59     1.101   .     S
C61    H62     1.108   .     S
C61    H64     1.107   .     S
C61    H333    1.106   .     S
H63    C601    1.106   1_545 S
O65    C66     1.411   .     S
O65    C103    1.394   .     S
C66    H68     1.115   .     S
C66    C69     1.534   .     S
C66    H67     1.108   .     S
C69    H71     1.099   .     S
C69    C72     1.526   .     S
C69    H70     1.104   .     S
C72    H75     1.107   .     S
C72    H74     1.109   .     S
C72    H73     1.102   .     S
O76    C77     1.414   .     S
O76    C194    1.406   1_455 S
C77    H78     1.109   .     S
C77    H79     1.103   .     S
C77    C80     1.528   .     S
C80    C83     1.530   .     S
C80    H81     1.110   .     S
C80    H82     1.109   .     S
C83    H84     1.102   .     S
C83    H85     1.105   .     S
C83    H356    1.110   .     S
H86    C623    1.110   1_545 S
F87    C547    1.361   1_545 S
F88    C278    1.362   .     S
C91    O127    1.296   .     A
C91    O125    1.292   .     A
C91    C97     1.448   .     S
C92    O128    1.293   .     A
C92    O126    1.295   .     A
C92    C98     1.446   .     S
C93    C114    1.417   .     A
C93    H121    1.065   .     S
C93    C95     1.374   .     A
C94    C113    1.413   .     A
C94    H122    1.072   .     S
C94    C96     1.381   .     A
C95    C921    1.386   1_554 S
C96    H118    1.084   .     S
C96    C922    1.394   .     S
C97    C368    1.342   .     S
C97    F447    1.361   .     S
C98    C637    1.342   1_545 S
C98    F718    1.362   1_545 S
C99    O129    1.307   .     A
C99    C101    1.476   .     S
C99    O131    1.294   .     A
C100   O132    1.293   .     A
C100   O130    1.310   .     A
C100   C102    1.479   .     S
C101   C105    1.390   .     A
C101   C107    1.409   .     A
C102   C106    1.389   .     A
C102   C108    1.411   .     A
C103   C111    1.410   .     A
C103   C105    1.406   .     A
C104   C106    1.412   .     A
C104   C112    1.421   .     A
C104   O256    1.406   .     S
C105   H120    1.081   .     S
C106   H119    1.080   .     S
C107   C109    1.421   .     A
C107   O144    1.376   .     S
C108   O133    1.378   .     S
C108   C110    1.425   .     A
C109   C111    1.421   .     A
C109   C113    1.447   .     A
C110   C114    1.450   .     A
C110   C112    1.428   .     A
C111   C905    1.386   .     S
C112   C906    1.394   1_554 S
C113   C924    1.431   .     S
C114   C923    1.431   1_554 S
Cu115  N124    2.022   .     S
Cu115  Cu116   2.690   .     S
Cu115  O128    1.990   .     S
Cu115  O125    1.995   .     S
Cu115  O132    1.937   .     S
Cu115  O129    1.963   .     S
Cu116  O126    1.995   .     S
Cu116  N123    2.022   .     S
Cu116  O127    1.990   .     S
Cu116  O130    1.963   .     S
Cu116  O131    1.937   .     S
H117   C185    1.084   .     S
N123   F179    1.333   .     S
N123   N214    1.315   .     S
N124   F180    1.332   .     S
O133   C134    1.407   .     S
C134   C137    1.538   .     S
C134   H136    1.113   .     S
C134   H135    1.114   .     S
C137   H139    1.110   .     S
C137   H138    1.108   .     S
C137   C140    1.529   .     S
C140   H143    1.108   .     S
C140   H681    1.109   1_545 S
C140   H592    1.111   1_545 S
H141   C410    1.109   .     S
H142   C500    1.111   .     S
O144   C145    1.413   .     S
C145   H146    1.108   .     S
C145   H147    1.120   .     S
C145   C148    1.521   .     S
C148   H150    1.107   .     S
C148   C151    1.530   .     S
C148   H149    1.101   .     S
C151   H152    1.108   .     S
C151   H154    1.107   .     S
C151   H423    1.106   .     S
H153   C691    1.106   1_545 S
O155   C156    1.411   .     S
O155   C193    1.394   .     S
C156   H158    1.115   .     S
C156   C159    1.534   .     S
C156   H157    1.108   .     S
C159   H161    1.099   .     S
C159   C162    1.526   .     S
C159   H160    1.104   .     S
C162   H165    1.107   .     S
C162   H164    1.109   .     S
C162   H163    1.102   .     S
O166   C167    1.414   .     S
C167   H168    1.109   .     S
C167   H169    1.103   .     S
C167   C170    1.528   .     S
C170   C173    1.530   .     S
C170   H171    1.110   .     S
C170   H172    1.109   .     S
C173   H174    1.102   .     S
C173   H175    1.105   .     S
C173   H446    1.110   .     S
H176   C713    1.110   1_545 S
F177   C637    1.361   1_545 S
F178   C368    1.362   .     S
C181   O217    1.296   .     A
C181   O215    1.292   .     A
C181   C187    1.448   .     S
C182   O218    1.293   .     A
C182   O216    1.295   .     A
C182   C188    1.446   .     S
C183   C204    1.417   .     A
C183   H211    1.065   .     S
C183   C185    1.374   .     A
C184   C203    1.413   .     A
C184   H212    1.072   .     S
C184   C186    1.381   .     A
C185   C1011   1.386   1_554 S
C186   H208    1.084   .     S
C186   C1012   1.394   .     S
C187   C458    1.342   .     S
C187   F537    1.361   .     S
C188   C727    1.342   1_545 S
C188   F808    1.362   1_545 S
C189   O219    1.307   .     A
C189   C191    1.476   .     S
C189   O221    1.294   .     A
C190   O222    1.293   .     A
C190   O220    1.310   .     A
C190   C192    1.479   .     S
C191   C195    1.390   .     A
C191   C197    1.409   .     A
C192   C196    1.389   .     A
C192   C198    1.411   .     A
C193   C201    1.410   .     A
C193   C195    1.406   .     A
C194   C196    1.412   .     A
C194   C202    1.421   .     A
C194   O76     1.406   1_655 S
C195   H210    1.081   .     S
C196   H209    1.080   .     S
C197   C199    1.421   .     A
C197   O234    1.376   .     S
C198   O223    1.378   .     S
C198   C200    1.425   .     A
C199   C201    1.421   .     A
C199   C203    1.447   .     A
C200   C204    1.450   .     A
C200   C202    1.428   .     A
C201   C995    1.386   .     S
C202   C996    1.394   1_554 S
C203   C1014   1.431   .     S
C204   C1013   1.431   1_554 S
Cu205  N214    2.022   .     S
Cu205  Cu206   2.690   .     S
Cu205  O218    1.990   .     S
Cu205  O215    1.995   .     S
Cu205  O222    1.937   .     S
Cu205  O219    1.963   .     S
Cu206  O216    1.995   .     S
Cu206  N213    2.022   .     S
Cu206  O217    1.990   .     S
Cu206  O220    1.963   .     S
Cu206  O221    1.937   .     S
H207   C5      1.084   1_655 S
N213   F269    1.333   .     S
N213   N34     1.315   1_655 S
N214   F270    1.332   .     S
O223   C224    1.407   .     S
C224   C227    1.538   .     S
C224   H226    1.113   .     S
C224   H225    1.114   .     S
C227   H229    1.110   .     S
C227   H228    1.108   .     S
C227   C230    1.529   .     S
C230   H233    1.108   .     S
C230   H771    1.109   1_545 S
C230   H682    1.111   1_545 S
H231   C500    1.109   .     S
H232   C320    1.111   1_655 S
O234   C235    1.413   .     S
C235   H236    1.108   .     S
C235   H237    1.120   .     S
C235   C238    1.521   .     S
C238   H240    1.107   .     S
C238   C241    1.530   .     S
C238   H239    1.101   .     S
C241   H242    1.108   .     S
C241   H244    1.107   .     S
C241   H513    1.106   .     S
H243   C781    1.106   1_545 S
O245   C246    1.411   .     S
O245   C13     1.394   1_655 S
C246   H248    1.115   .     S
C246   C249    1.534   .     S
C246   H247    1.108   .     S
C249   H251    1.099   .     S
C249   C252    1.526   .     S
C249   H250    1.104   .     S
C252   H255    1.107   .     S
C252   H254    1.109   .     S
C252   H253    1.102   .     S
O256   C257    1.414   .     S
C257   H258    1.109   .     S
C257   H259    1.103   .     S
C257   C260    1.528   .     S
C260   C263    1.530   .     S
C260   H261    1.110   .     S
C260   H262    1.109   .     S
C263   H264    1.102   .     S
C263   H265    1.105   .     S
C263   H536    1.110   .     S
H266   C803    1.110   1_545 S
F267   C727    1.361   1_545 S
F268   C458    1.362   .     S
C271   O307    1.296   .     A
C271   O305    1.292   .     A
C271   C277    1.448   .     S
C272   O308    1.293   .     A
C272   O306    1.295   .     A
C272   C278    1.446   .     S
C273   C294    1.417   .     A
C273   H301    1.065   .     S
C273   C275    1.374   .     A
C274   C293    1.413   .     A
C274   H302    1.072   .     S
C274   C276    1.381   .     A
C275   C1101   1.386   1_554 S
C275   H477    1.084   1_455 S
C276   H298    1.084   .     S
C276   C1102   1.394   .     S
C277   C548    1.342   .     S
C277   F627    1.361   .     S
C279   O309    1.307   .     A
C279   C281    1.476   .     S
C279   O311    1.294   .     A
C280   O312    1.293   .     A
C280   O310    1.310   .     A
C280   C282    1.479   .     S
C281   C285    1.390   .     A
C281   C287    1.409   .     A
C282   C286    1.389   .     A
C282   C288    1.411   .     A
C283   C291    1.410   .     A
C283   C285    1.406   .     A
C283   O515    1.394   1_455 S
C284   C286    1.412   .     A
C284   C292    1.421   .     A
C284   O436    1.406   .     S
C285   H300    1.081   .     S
C286   H299    1.080   .     S
C287   C289    1.421   .     A
C287   O324    1.376   .     S
C288   O313    1.378   .     S
C288   C290    1.425   .     A
C289   C291    1.421   .     A
C289   C293    1.447   .     A
C290   C294    1.450   .     A
C290   C292    1.428   .     A
C291   C1085   1.386   .     S
C292   C1086   1.394   1_554 S
C293   C1104   1.431   .     S
C294   C1103   1.431   1_554 S
Cu295  N304    2.022   .     S
Cu295  Cu296   2.690   .     S
Cu295  O308    1.990   .     S
Cu295  O305    1.995   .     S
Cu295  O312    1.937   .     S
Cu295  O309    1.963   .     S
Cu296  O306    1.995   .     S
Cu296  N303    2.022   .     S
Cu296  O307    1.990   .     S
Cu296  O310    1.963   .     S
Cu296  O311    1.937   .     S
H297   C365    1.084   .     S
N303   F359    1.333   .     S
N303   N394    1.315   .     S
N304   F360    1.332   .     S
N304   N483    1.315   1_455 S
O313   C314    1.407   .     S
C314   C317    1.538   .     S
C314   H316    1.113   .     S
C314   H315    1.114   .     S
C317   H319    1.110   .     S
C317   H318    1.108   .     S
C317   C320    1.529   .     S
C320   H323    1.108   .     S
C320   H232    1.111   1_455 S
H321   C590    1.109   .     S
H322   C680    1.111   .     S
O324   C325    1.413   .     S
C325   H326    1.108   .     S
C325   H327    1.120   .     S
C325   C328    1.521   .     S
C328   H330    1.107   .     S
C328   C331    1.530   .     S
C328   H329    1.101   .     S
C331   H332    1.108   .     S
C331   H334    1.107   .     S
C331   H603    1.106   .     S
O335   C336    1.411   .     S
O335   C373    1.394   .     S
C336   H338    1.115   .     S
C336   C339    1.534   .     S
C336   H337    1.108   .     S
C339   H341    1.099   .     S
C339   C342    1.526   .     S
C339   H340    1.104   .     S
C342   H345    1.107   .     S
C342   H344    1.109   .     S
C342   H343    1.102   .     S
O346   C347    1.414   .     S
O346   C464    1.406   1_455 S
C347   H348    1.109   .     S
C347   H349    1.103   .     S
C347   C350    1.528   .     S
C350   C353    1.530   .     S
C350   H351    1.110   .     S
C350   H352    1.109   .     S
C353   H354    1.102   .     S
C353   H355    1.105   .     S
C353   H626    1.110   .     S
F358   C548    1.362   .     S
C361   O397    1.296   .     A
C361   O395    1.292   .     A
C361   C367    1.448   .     S
C362   O398    1.293   .     A
C362   O396    1.295   .     A
C362   C368    1.446   .     S
C363   C384    1.417   .     A
C363   H391    1.065   .     S
C363   C365    1.374   .     A
C364   C383    1.413   .     A
C364   H392    1.072   .     S
C364   C366    1.381   .     A
C365   C1191   1.386   1_554 S
C366   H388    1.084   .     S
C366   C1192   1.394   .     S
C367   C638    1.342   .     S
C367   F717    1.361   .     S
C369   O399    1.307   .     A
C369   C371    1.476   .     S
C369   O401    1.294   .     A
C370   O402    1.293   .     A
C370   O400    1.310   .     A
C370   C372    1.479   .     S
C371   C375    1.390   .     A
C371   C377    1.409   .     A
C372   C376    1.389   .     A
C372   C378    1.411   .     A
C373   C381    1.410   .     A
C373   C375    1.406   .     A
C374   C376    1.412   .     A
C374   C382    1.421   .     A
C374   O526    1.406   .     S
C375   H390    1.081   .     S
C376   H389    1.080   .     S
C377   C379    1.421   .     A
C377   O414    1.376   .     S
C378   O403    1.378   .     S
C378   C380    1.425   .     A
C379   C381    1.421   .     A
C379   C383    1.447   .     A
C380   C384    1.450   .     A
C380   C382    1.428   .     A
C381   C1175   1.386   .     S
C382   C1176   1.394   1_554 S
C383   C1194   1.431   .     S
C384   C1193   1.431   1_554 S
Cu385  N394    2.022   .     S
Cu385  Cu386   2.690   .     S
Cu385  O398    1.990   .     S
Cu385  O395    1.995   .     S
Cu385  O402    1.937   .     S
Cu385  O399    1.963   .     S
Cu386  O396    1.995   .     S
Cu386  N393    2.022   .     S
Cu386  O397    1.990   .     S
Cu386  O400    1.963   .     S
Cu386  O401    1.937   .     S
H387   C455    1.084   .     S
N393   F449    1.333   .     S
N393   N484    1.315   .     S
N394   F450    1.332   .     S
O403   C404    1.407   .     S
C404   C407    1.538   .     S
C404   H406    1.113   .     S
C404   H405    1.114   .     S
C407   H409    1.110   .     S
C407   H408    1.108   .     S
C407   C410    1.529   .     S
C410   H413    1.108   .     S
H411   C680    1.109   .     S
H412   C770    1.111   .     S
O414   C415    1.413   .     S
C415   H416    1.108   .     S
C415   H417    1.120   .     S
C415   C418    1.521   .     S
C418   H420    1.107   .     S
C418   C421    1.530   .     S
C418   H419    1.101   .     S
C421   H422    1.108   .     S
C421   H424    1.107   .     S
C421   H693    1.106   .     S
O425   C426    1.411   .     S
O425   C463    1.394   .     S
C426   H428    1.115   .     S
C426   C429    1.534   .     S
C426   H427    1.108   .     S
C429   H431    1.099   .     S
C429   C432    1.526   .     S
C429   H430    1.104   .     S
C432   H435    1.107   .     S
C432   H434    1.109   .     S
C432   H433    1.102   .     S
O436   C437    1.414   .     S
C437   H438    1.109   .     S
C437   H439    1.103   .     S
C437   C440    1.528   .     S
C440   C443    1.530   .     S
C440   H441    1.110   .     S
C440   H442    1.109   .     S
C443   H444    1.102   .     S
C443   H445    1.105   .     S
C443   H716    1.110   .     S
F448   C638    1.362   .     S
C451   O487    1.296   .     A
C451   O485    1.292   .     A
C451   C457    1.448   .     S
C452   O488    1.293   .     A
C452   O486    1.295   .     A
C452   C458    1.446   .     S
C453   C474    1.417   .     A
C453   H481    1.065   .     S
C453   C455    1.374   .     A
C454   C473    1.413   .     A
C454   H482    1.072   .     S
C454   C456    1.381   .     A
C455   C1281   1.386   1_554 S
C456   H478    1.084   .     S
C456   C1282   1.394   .     S
C457   C728    1.342   .     S
C457   F807    1.361   .     S
C459   O489    1.307   .     A
C459   C461    1.476   .     S
C459   O491    1.294   .     A
C460   O492    1.293   .     A
C460   O490    1.310   .     A
C460   C462    1.479   .     S
C461   C465    1.390   .     A
C461   C467    1.409   .     A
C462   C466    1.389   .     A
C462   C468    1.411   .     A
C463   C471    1.410   .     A
C463   C465    1.406   .     A
C464   C466    1.412   .     A
C464   C472    1.421   .     A
C464   O346    1.406   1_655 S
C465   H480    1.081   .     S
C466   H479    1.080   .     S
C467   C469    1.421   .     A
C467   O504    1.376   .     S
C468   O493    1.378   .     S
C468   C470    1.425   .     A
C469   C471    1.421   .     A
C469   C473    1.447   .     A
C470   C474    1.450   .     A
C470   C472    1.428   .     A
C471   C1265   1.386   .     S
C472   C1266   1.394   1_554 S
C473   C1284   1.431   .     S
C474   C1283   1.431   1_554 S
Cu475  N484    2.022   .     S
Cu475  Cu476   2.690   .     S
Cu475  O488    1.990   .     S
Cu475  O485    1.995   .     S
Cu475  O492    1.937   .     S
Cu475  O489    1.963   .     S
Cu476  O486    1.995   .     S
Cu476  N483    2.022   .     S
Cu476  O487    1.990   .     S
Cu476  O490    1.963   .     S
Cu476  O491    1.937   .     S
H477   C275    1.084   1_655 S
N483   F539    1.333   .     S
N483   N304    1.315   1_655 S
N484   F540    1.332   .     S
O493   C494    1.407   .     S
C494   C497    1.538   .     S
C494   H496    1.113   .     S
C494   H495    1.114   .     S
C497   H499    1.110   .     S
C497   H498    1.108   .     S
C497   C500    1.529   .     S
C500   H503    1.108   .     S
H501   C770    1.109   .     S
H502   C590    1.111   1_655 S
O504   C505    1.413   .     S
C505   H506    1.108   .     S
C505   H507    1.120   .     S
C505   C508    1.521   .     S
C508   H510    1.107   .     S
C508   C511    1.530   .     S
C508   H509    1.101   .     S
C511   H512    1.108   .     S
C511   H514    1.107   .     S
C511   H783    1.106   .     S
O515   C516    1.411   .     S
O515   C283    1.394   1_655 S
C516   H518    1.115   .     S
C516   C519    1.534   .     S
C516   H517    1.108   .     S
C519   H521    1.099   .     S
C519   C522    1.526   .     S
C519   H520    1.104   .     S
C522   H525    1.107   .     S
C522   H524    1.109   .     S
C522   H523    1.102   .     S
O526   C527    1.414   .     S
C527   H528    1.109   .     S
C527   H529    1.103   .     S
C527   C530    1.528   .     S
C530   C533    1.530   .     S
C530   H531    1.110   .     S
C530   H532    1.109   .     S
C533   H534    1.102   .     S
C533   H535    1.105   .     S
C533   H806    1.110   .     S
F538   C728    1.362   .     S
C541   O577    1.296   .     A
C541   O575    1.292   .     A
C541   C547    1.448   .     S
C542   O578    1.293   .     A
C542   O576    1.295   .     A
C542   C548    1.446   .     S
C543   C564    1.417   .     A
C543   H571    1.065   .     S
C543   C545    1.374   .     A
C544   C563    1.413   .     A
C544   H572    1.072   .     S
C544   C546    1.381   .     A
C545   C1371   1.386   1_554 S
C545   H747    1.084   1_455 S
C546   H568    1.084   .     S
C546   C1372   1.394   .     S
C547   C8      1.342   1_565 S
C547   F87     1.361   1_565 S
C549   O579    1.307   .     A
C549   C551    1.476   .     S
C549   O581    1.294   .     A
C550   O582    1.293   .     A
C550   O580    1.310   .     A
C550   C552    1.479   .     S
C551   C555    1.390   .     A
C551   C557    1.409   .     A
C552   C556    1.389   .     A
C552   C558    1.411   .     A
C553   C561    1.410   .     A
C553   C555    1.406   .     A
C553   O785    1.394   1_455 S
C554   C556    1.412   .     A
C554   C562    1.421   .     A
C554   O706    1.406   .     S
C555   H570    1.081   .     S
C556   H569    1.080   .     S
C557   C559    1.421   .     A
C557   O594    1.376   .     S
C558   O583    1.378   .     S
C558   C560    1.425   .     A
C559   C561    1.421   .     A
C559   C563    1.447   .     A
C560   C564    1.450   .     A
C560   C562    1.428   .     A
C561   C1355   1.386   .     S
C562   C1356   1.394   1_554 S
C563   C1374   1.431   .     S
C564   C1373   1.431   1_554 S
Cu565  N574    2.022   .     S
Cu565  Cu566   2.690   .     S
Cu565  O578    1.990   .     S
Cu565  O575    1.995   .     S
Cu565  O582    1.937   .     S
Cu565  O579    1.963   .     S
Cu566  O576    1.995   .     S
Cu566  N573    2.022   .     S
Cu566  O577    1.990   .     S
Cu566  O580    1.963   .     S
Cu566  O581    1.937   .     S
H567   C635    1.084   .     S
N573   F629    1.333   .     S
N573   N664    1.315   .     S
N574   F630    1.332   .     S
N574   N753    1.315   1_455 S
O583   C584    1.407   .     S
C584   C587    1.538   .     S
C584   H586    1.113   .     S
C584   H585    1.114   .     S
C587   H589    1.110   .     S
C587   H588    1.108   .     S
C587   C590    1.529   .     S
C590   H593    1.108   .     S
C590   H502    1.111   1_455 S
H591   C50     1.109   1_565 S
H592   C140    1.111   1_565 S
O594   C595    1.413   .     S
C595   H596    1.108   .     S
C595   H597    1.120   .     S
C595   C598    1.521   .     S
C598   H600    1.107   .     S
C598   C601    1.530   .     S
C598   H599    1.101   .     S
C601   H602    1.108   .     S
C601   H604    1.107   .     S
C601   H63     1.106   1_565 S
O605   C606    1.411   .     S
O605   C643    1.394   .     S
C606   H608    1.115   .     S
C606   C609    1.534   .     S
C606   H607    1.108   .     S
C609   H611    1.099   .     S
C609   C612    1.526   .     S
C609   H610    1.104   .     S
C612   H615    1.107   .     S
C612   H614    1.109   .     S
C612   H613    1.102   .     S
O616   C617    1.414   .     S
O616   C734    1.406   1_455 S
C617   H618    1.109   .     S
C617   H619    1.103   .     S
C617   C620    1.528   .     S
C620   C623    1.530   .     S
C620   H621    1.110   .     S
C620   H622    1.109   .     S
C623   H624    1.102   .     S
C623   H625    1.105   .     S
C623   H86     1.110   1_565 S
F628   C8      1.362   1_565 S
C631   O667    1.296   .     A
C631   O665    1.292   .     A
C631   C637    1.448   .     S
C632   O668    1.293   .     A
C632   O666    1.295   .     A
C632   C638    1.446   .     S
C633   C654    1.417   .     A
C633   H661    1.065   .     S
C633   C635    1.374   .     A
C634   C653    1.413   .     A
C634   H662    1.072   .     S
C634   C636    1.381   .     A
C635   C1461   1.386   1_554 S
C636   H658    1.084   .     S
C636   C1462   1.394   .     S
C637   C98     1.342   1_565 S
C637   F177    1.361   1_565 S
C639   O669    1.307   .     A
C639   C641    1.476   .     S
C639   O671    1.294   .     A
C640   O672    1.293   .     A
C640   O670    1.310   .     A
C640   C642    1.479   .     S
C641   C645    1.390   .     A
C641   C647    1.409   .     A
C642   C646    1.389   .     A
C642   C648    1.411   .     A
C643   C651    1.410   .     A
C643   C645    1.406   .     A
C644   C646    1.412   .     A
C644   C652    1.421   .     A
C644   O796    1.406   .     S
C645   H660    1.081   .     S
C646   H659    1.080   .     S
C647   C649    1.421   .     A
C647   O684    1.376   .     S
C648   O673    1.378   .     S
C648   C650    1.425   .     A
C649   C651    1.421   .     A
C649   C653    1.447   .     A
C650   C654    1.450   .     A
C650   C652    1.428   .     A
C651   C1445   1.386   .     S
C652   C1446   1.394   1_554 S
C653   C1464   1.431   .     S
C654   C1463   1.431   1_554 S
Cu655  N664    2.022   .     S
Cu655  Cu656   2.690   .     S
Cu655  O668    1.990   .     S
Cu655  O665    1.995   .     S
Cu655  O672    1.937   .     S
Cu655  O669    1.963   .     S
Cu656  O666    1.995   .     S
Cu656  N663    2.022   .     S
Cu656  O667    1.990   .     S
Cu656  O670    1.963   .     S
Cu656  O671    1.937   .     S
H657   C725    1.084   .     S
N663   F719    1.333   .     S
N663   N754    1.315   .     S
N664   F720    1.332   .     S
O673   C674    1.407   .     S
C674   C677    1.538   .     S
C674   H676    1.113   .     S
C674   H675    1.114   .     S
C677   H679    1.110   .     S
C677   H678    1.108   .     S
C677   C680    1.529   .     S
C680   H683    1.108   .     S
H681   C140    1.109   1_565 S
H682   C230    1.111   1_565 S
O684   C685    1.413   .     S
C685   H686    1.108   .     S
C685   H687    1.120   .     S
C685   C688    1.521   .     S
C688   H690    1.107   .     S
C688   C691    1.530   .     S
C688   H689    1.101   .     S
C691   H692    1.108   .     S
C691   H694    1.107   .     S
C691   H153    1.106   1_565 S
O695   C696    1.411   .     S
O695   C733    1.394   .     S
C696   H698    1.115   .     S
C696   C699    1.534   .     S
C696   H697    1.108   .     S
C699   H701    1.099   .     S
C699   C702    1.526   .     S
C699   H700    1.104   .     S
C702   H705    1.107   .     S
C702   H704    1.109   .     S
C702   H703    1.102   .     S
O706   C707    1.414   .     S
C707   H708    1.109   .     S
C707   H709    1.103   .     S
C707   C710    1.528   .     S
C710   C713    1.530   .     S
C710   H711    1.110   .     S
C710   H712    1.109   .     S
C713   H714    1.102   .     S
C713   H715    1.105   .     S
C713   H176    1.110   1_565 S
F718   C98     1.362   1_565 S
C721   O757    1.296   .     A
C721   O755    1.292   .     A
C721   C727    1.448   .     S
C722   O758    1.293   .     A
C722   O756    1.295   .     A
C722   C728    1.446   .     S
C723   C744    1.417   .     A
C723   H751    1.065   .     S
C723   C725    1.374   .     A
C724   C743    1.413   .     A
C724   H752    1.072   .     S
C724   C726    1.381   .     A
C725   C1551   1.386   1_554 S
C726   H748    1.084   .     S
C726   C1552   1.394   .     S
C727   C188    1.342   1_565 S
C727   F267    1.361   1_565 S
C729   O759    1.307   .     A
C729   C731    1.476   .     S
C729   O761    1.294   .     A
C730   O762    1.293   .     A
C730   O760    1.310   .     A
C730   C732    1.479   .     S
C731   C735    1.390   .     A
C731   C737    1.409   .     A
C732   C736    1.389   .     A
C732   C738    1.411   .     A
C733   C741    1.410   .     A
C733   C735    1.406   .     A
C734   C736    1.412   .     A
C734   C742    1.421   .     A
C734   O616    1.406   1_655 S
C735   H750    1.081   .     S
C736   H749    1.080   .     S
C737   C739    1.421   .     A
C737   O774    1.376   .     S
C738   O763    1.378   .     S
C738   C740    1.425   .     A
C739   C741    1.421   .     A
C739   C743    1.447   .     A
C740   C744    1.450   .     A
C740   C742    1.428   .     A
C741   C1535   1.386   .     S
C742   C1536   1.394   1_554 S
C743   C1554   1.431   .     S
C744   C1553   1.431   1_554 S
Cu745  N754    2.022   .     S
Cu745  Cu746   2.690   .     S
Cu745  O758    1.990   .     S
Cu745  O755    1.995   .     S
Cu745  O762    1.937   .     S
Cu745  O759    1.963   .     S
Cu746  O756    1.995   .     S
Cu746  N753    2.022   .     S
Cu746  O757    1.990   .     S
Cu746  O760    1.963   .     S
Cu746  O761    1.937   .     S
H747   C545    1.084   1_655 S
N753   F809    1.333   .     S
N753   N574    1.315   1_655 S
N754   F810    1.332   .     S
O763   C764    1.407   .     S
C764   C767    1.538   .     S
C764   H766    1.113   .     S
C764   H765    1.114   .     S
C767   H769    1.110   .     S
C767   H768    1.108   .     S
C767   C770    1.529   .     S
C770   H773    1.108   .     S
H771   C230    1.109   1_565 S
H772   C50     1.111   1_665 S
O774   C775    1.413   .     S
C775   H776    1.108   .     S
C775   H777    1.120   .     S
C775   C778    1.521   .     S
C778   H780    1.107   .     S
C778   C781    1.530   .     S
C778   H779    1.101   .     S
C781   H782    1.108   .     S
C781   H784    1.107   .     S
C781   H243    1.106   1_565 S
O785   C786    1.411   .     S
O785   C553    1.394   1_655 S
C786   H788    1.115   .     S
C786   C789    1.534   .     S
C786   H787    1.108   .     S
C789   H791    1.099   .     S
C789   C792    1.526   .     S
C789   H790    1.104   .     S
C792   H795    1.107   .     S
C792   H794    1.109   .     S
C792   H793    1.102   .     S
O796   C797    1.414   .     S
C797   H798    1.109   .     S
C797   H799    1.103   .     S
C797   C800    1.528   .     S
C800   C803    1.530   .     S
C800   H801    1.110   .     S
C800   H802    1.109   .     S
C803   H804    1.102   .     S
C803   H805    1.105   .     S
C803   H266    1.110   1_565 S
F808   C188    1.362   1_565 S
C811   O847    1.296   .     A
C811   O845    1.292   .     A
C811   C817    1.448   .     S
C812   O848    1.293   .     A
C812   O846    1.295   .     A
C812   C818    1.446   .     S
C813   C834    1.417   .     A
C813   H841    1.065   .     S
C813   C815    1.374   .     A
C814   C833    1.413   .     A
C814   H842    1.072   .     S
C814   C816    1.381   .     A
C815   H1017   1.084   1_455 S
C816   H838    1.084   .     S
C816   C22     1.394   1_556 S
C817   C1088   1.342   .     S
C817   F1167   1.361   .     S
C818   C1357   1.342   1_545 S
C818   F1438   1.362   1_545 S
C819   O849    1.307   .     A
C819   C821    1.476   .     S
C819   O851    1.294   .     A
C820   O852    1.293   .     A
C820   O850    1.310   .     A
C820   C822    1.479   .     S
C821   C825    1.390   .     A
C821   C827    1.409   .     A
C822   C826    1.389   .     A
C822   C828    1.411   .     A
C823   C831    1.410   .     A
C823   C825    1.406   .     A
C823   O1055   1.394   1_455 S
C824   C826    1.412   .     A
C824   C832    1.421   .     A
C824   O976    1.406   .     S
C825   H840    1.081   .     S
C826   H839    1.080   .     S
C827   C829    1.421   .     A
C827   O864    1.376   .     S
C828   O853    1.378   .     S
C828   C830    1.425   .     A
C829   C831    1.421   .     A
C829   C833    1.447   .     A
C830   C834    1.450   .     A
C830   C832    1.428   .     A
C831   C5      1.386   1_556 S
C833   C24     1.431   1_556 S
Cu835  N844    2.022   .     S
Cu835  Cu836   2.690   .     S
Cu835  O848    1.990   .     S
Cu835  O845    1.995   .     S
Cu835  O852    1.937   .     S
Cu835  O849    1.963   .     S
Cu836  O846    1.995   .     S
Cu836  N843    2.022   .     S
Cu836  O847    1.990   .     S
Cu836  O850    1.963   .     S
Cu836  O851    1.937   .     S
H837   C905    1.084   .     S
N843   F899    1.333   .     S
N843   N934    1.315   .     S
N844   F900    1.332   .     S
N844   N1023   1.315   1_455 S
O853   C854    1.407   .     S
C854   C857    1.538   .     S
C854   H856    1.113   .     S
C854   H855    1.114   .     S
C857   H859    1.110   .     S
C857   H858    1.108   .     S
C857   C860    1.529   .     S
C860   H863    1.108   .     S
C860   H1401   1.109   1_545 S
C860   H1582   1.111   1_445 S
H861   C1130   1.109   .     S
H862   C1220   1.111   .     S
O864   C865    1.413   .     S
C865   H866    1.108   .     S
C865   H867    1.120   .     S
C865   C868    1.521   .     S
C868   H870    1.107   .     S
C868   C871    1.530   .     S
C868   H869    1.101   .     S
C871   H872    1.108   .     S
C871   H874    1.107   .     S
C871   H1143   1.106   .     S
H873   C1411   1.106   1_545 S
O875   C876    1.411   .     S
O875   C913    1.394   .     S
C876   H878    1.115   .     S
C876   C879    1.534   .     S
C876   H877    1.108   .     S
C879   H881    1.099   .     S
C879   C882    1.526   .     S
C879   H880    1.104   .     S
C882   H885    1.107   .     S
C882   H884    1.109   .     S
C882   H883    1.102   .     S
O886   C887    1.414   .     S
O886   C1004   1.406   1_455 S
C887   H888    1.109   .     S
C887   H889    1.103   .     S
C887   C890    1.528   .     S
C890   C893    1.530   .     S
C890   H891    1.110   .     S
C890   H892    1.109   .     S
C893   H894    1.102   .     S
C893   H895    1.105   .     S
C893   H1166   1.110   .     S
H896   C1433   1.110   1_545 S
F897   C1357   1.361   1_545 S
F898   C1088   1.362   .     S
C901   O937    1.296   .     A
C901   O935    1.292   .     A
C901   C907    1.448   .     S
C902   O938    1.293   .     A
C902   O936    1.295   .     A
C902   C908    1.446   .     S
C903   C924    1.417   .     A
C903   H931    1.065   .     S
C903   C905    1.374   .     A
C904   C923    1.413   .     A
C904   H932    1.072   .     S
C904   C906    1.381   .     A
C906   H928    1.084   .     S
C906   C112    1.394   1_556 S
C907   C1178   1.342   .     S
C907   F1257   1.361   .     S
C908   C1447   1.342   1_545 S
C908   F1528   1.362   1_545 S
C909   O939    1.307   .     A
C909   C911    1.476   .     S
C909   O941    1.294   .     A
C910   O942    1.293   .     A
C910   O940    1.310   .     A
C910   C912    1.479   .     S
C911   C915    1.390   .     A
C911   C917    1.409   .     A
C912   C916    1.389   .     A
C912   C918    1.411   .     A
C913   C921    1.410   .     A
C913   C915    1.406   .     A
C914   C916    1.412   .     A
C914   C922    1.421   .     A
C914   O1066   1.406   .     S
C915   H930    1.081   .     S
C916   H929    1.080   .     S
C917   C919    1.421   .     A
C917   O954    1.376   .     S
C918   O943    1.378   .     S
C918   C920    1.425   .     A
C919   C921    1.421   .     A
C919   C923    1.447   .     A
C920   C924    1.450   .     A
C920   C922    1.428   .     A
C921   C95     1.386   1_556 S
C923   C114    1.431   1_556 S
Cu925  N934    2.022   .     S
Cu925  Cu926   2.690   .     S
Cu925  O938    1.990   .     S
Cu925  O935    1.995   .     S
Cu925  O942    1.937   .     S
Cu925  O939    1.963   .     S
Cu926  O936    1.995   .     S
Cu926  N933    2.022   .     S
Cu926  O937    1.990   .     S
Cu926  O940    1.963   .     S
Cu926  O941    1.937   .     S
H927   C995    1.084   .     S
N933   F989    1.333   .     S
N933   N1024   1.315   .     S
N934   F990    1.332   .     S
O943   C944    1.407   .     S
C944   C947    1.538   .     S
C944   H946    1.113   .     S
C944   H945    1.114   .     S
C947   H949    1.110   .     S
C947   H948    1.108   .     S
C947   C950    1.529   .     S
C950   H953    1.108   .     S
C950   H1491   1.109   1_545 S
C950   H1402   1.111   1_545 S
H951   C1220   1.109   .     S
H952   C1310   1.111   .     S
O954   C955    1.413   .     S
C955   H956    1.108   .     S
C955   H957    1.120   .     S
C955   C958    1.521   .     S
C958   H960    1.107   .     S
C958   C961    1.530   .     S
C958   H959    1.101   .     S
C961   H962    1.108   .     S
C961   H964    1.107   .     S
C961   H1233   1.106   .     S
H963   C1501   1.106   1_545 S
O965   C966    1.411   .     S
O965   C1003   1.394   .     S
C966   H968    1.115   .     S
C966   C969    1.534   .     S
C966   H967    1.108   .     S
C969   H971    1.099   .     S
C969   C972    1.526   .     S
C969   H970    1.104   .     S
C972   H975    1.107   .     S
C972   H974    1.109   .     S
C972   H973    1.102   .     S
O976   C977    1.414   .     S
C977   H978    1.109   .     S
C977   H979    1.103   .     S
C977   C980    1.528   .     S
C980   C983    1.530   .     S
C980   H981    1.110   .     S
C980   H982    1.109   .     S
C983   H984    1.102   .     S
C983   H985    1.105   .     S
C983   H1256   1.110   .     S
H986   C1523   1.110   1_545 S
F987   C1447   1.361   1_545 S
F988   C1178   1.362   .     S
C991   O1027   1.296   .     A
C991   O1025   1.292   .     A
C991   C997    1.448   .     S
C992   O1028   1.293   .     A
C992   O1026   1.295   .     A
C992   C998    1.446   .     S
C993   C1014   1.417   .     A
C993   H1021   1.065   .     S
C993   C995    1.374   .     A
C994   C1013   1.413   .     A
C994   H1022   1.072   .     S
C994   C996    1.381   .     A
C996   H1018   1.084   .     S
C996   C202    1.394   1_556 S
C997   C1268   1.342   .     S
C997   F1347   1.361   .     S
C998   C1537   1.342   1_545 S
C998   F1618   1.362   1_545 S
C999   O1029   1.307   .     A
C999   C1001   1.476   .     S
C999   O1031   1.294   .     A
C1000  O1032   1.293   .     A
C1000  O1030   1.310   .     A
C1000  C1002   1.479   .     S
C1001  C1005   1.390   .     A
C1001  C1007   1.409   .     A
C1002  C1006   1.389   .     A
C1002  C1008   1.411   .     A
C1003  C1011   1.410   .     A
C1003  C1005   1.406   .     A
C1004  C1006   1.412   .     A
C1004  C1012   1.421   .     A
C1004  O886    1.406   1_655 S
C1005  H1020   1.081   .     S
C1006  H1019   1.080   .     S
C1007  C1009   1.421   .     A
C1007  O1044   1.376   .     S
C1008  O1033   1.378   .     S
C1008  C1010   1.425   .     A
C1009  C1011   1.421   .     A
C1009  C1013   1.447   .     A
C1010  C1014   1.450   .     A
C1010  C1012   1.428   .     A
C1011  C185    1.386   1_556 S
C1013  C204    1.431   1_556 S
Cu1015 N1024   2.022   .     S
Cu1015 Cu1016  2.690   .     S
Cu1015 O1028   1.990   .     S
Cu1015 O1025   1.995   .     S
Cu1015 O1032   1.937   .     S
Cu1015 O1029   1.963   .     S
Cu1016 O1026   1.995   .     S
Cu1016 N1023   2.022   .     S
Cu1016 O1027   1.990   .     S
Cu1016 O1030   1.963   .     S
Cu1016 O1031   1.937   .     S
H1017  C815    1.084   1_655 S
N1023  F1079   1.333   .     S
N1023  N844    1.315   1_655 S
N1024  F1080   1.332   .     S
O1033  C1034   1.407   .     S
C1034  C1037   1.538   .     S
C1034  H1036   1.113   .     S
C1034  H1035   1.114   .     S
C1037  H1039   1.110   .     S
C1037  H1038   1.108   .     S
C1037  C1040   1.529   .     S
C1040  H1043   1.108   .     S
C1040  H1581   1.109   1_545 S
C1040  H1492   1.111   1_545 S
H1041  C1310   1.109   .     S
H1042  C1130   1.111   1_655 S
O1044  C1045   1.413   .     S
C1045  H1046   1.108   .     S
C1045  H1047   1.120   .     S
C1045  C1048   1.521   .     S
C1048  H1050   1.107   .     S
C1048  C1051   1.530   .     S
C1048  H1049   1.101   .     S
C1051  H1052   1.108   .     S
C1051  H1054   1.107   .     S
C1051  H1323   1.106   .     S
H1053  C1591   1.106   1_545 S
O1055  C1056   1.411   .     S
O1055  C823    1.394   1_655 S
C1056  H1058   1.115   .     S
C1056  C1059   1.534   .     S
C1056  H1057   1.108   .     S
C1059  H1061   1.099   .     S
C1059  C1062   1.526   .     S
C1059  H1060   1.104   .     S
C1062  H1065   1.107   .     S
C1062  H1064   1.109   .     S
C1062  H1063   1.102   .     S
O1066  C1067   1.414   .     S
C1067  H1068   1.109   .     S
C1067  H1069   1.103   .     S
C1067  C1070   1.528   .     S
C1070  C1073   1.530   .     S
C1070  H1071   1.110   .     S
C1070  H1072   1.109   .     S
C1073  H1074   1.102   .     S
C1073  H1075   1.105   .     S
C1073  H1346   1.110   .     S
H1076  C1613   1.110   1_545 S
F1077  C1537   1.361   1_545 S
F1078  C1268   1.362   .     S
C1081  O1117   1.296   .     A
C1081  O1115   1.292   .     A
C1081  C1087   1.448   .     S
C1082  O1118   1.293   .     A
C1082  O1116   1.295   .     A
C1082  C1088   1.446   .     S
C1083  C1104   1.417   .     A
C1083  H1111   1.065   .     S
C1083  C1085   1.374   .     A
C1084  C1103   1.413   .     A
C1084  H1112   1.072   .     S
C1084  C1086   1.381   .     A
C1085  H1287   1.084   1_455 S
C1086  H1108   1.084   .     S
C1086  C292    1.394   1_556 S
C1087  C1358   1.342   .     S
C1087  F1437   1.361   .     S
C1089  O1119   1.307   .     A
C1089  C1091   1.476   .     S
C1089  O1121   1.294   .     A
C1090  O1122   1.293   .     A
C1090  O1120   1.310   .     A
C1090  C1092   1.479   .     S
C1091  C1095   1.390   .     A
C1091  C1097   1.409   .     A
C1092  C1096   1.389   .     A
C1092  C1098   1.411   .     A
C1093  C1101   1.410   .     A
C1093  C1095   1.406   .     A
C1093  O1325   1.394   1_455 S
C1094  C1096   1.412   .     A
C1094  C1102   1.421   .     A
C1094  O1246   1.406   .     S
C1095  H1110   1.081   .     S
C1096  H1109   1.080   .     S
C1097  C1099   1.421   .     A
C1097  O1134   1.376   .     S
C1098  O1123   1.378   .     S
C1098  C1100   1.425   .     A
C1099  C1101   1.421   .     A
C1099  C1103   1.447   .     A
C1100  C1104   1.450   .     A
C1100  C1102   1.428   .     A
C1101  C275    1.386   1_556 S
C1103  C294    1.431   1_556 S
Cu1105 N1114   2.022   .     S
Cu1105 Cu1106  2.690   .     S
Cu1105 O1118   1.990   .     S
Cu1105 O1115   1.995   .     S
Cu1105 O1122   1.937   .     S
Cu1105 O1119   1.963   .     S
Cu1106 O1116   1.995   .     S
Cu1106 N1113   2.022   .     S
Cu1106 O1117   1.990   .     S
Cu1106 O1120   1.963   .     S
Cu1106 O1121   1.937   .     S
H1107  C1175   1.084   .     S
N1113  F1169   1.333   .     S
N1113  N1204   1.315   .     S
N1114  F1170   1.332   .     S
N1114  N1293   1.315   1_455 S
O1123  C1124   1.407   .     S
C1124  C1127   1.538   .     S
C1124  H1126   1.113   .     S
C1124  H1125   1.114   .     S
C1127  H1129   1.110   .     S
C1127  H1128   1.108   .     S
C1127  C1130   1.529   .     S
C1130  H1133   1.108   .     S
C1130  H1042   1.111   1_455 S
H1131  C1400   1.109   .     S
H1132  C1490   1.111   .     S
O1134  C1135   1.413   .     S
C1135  H1136   1.108   .     S
C1135  H1137   1.120   .     S
C1135  C1138   1.521   .     S
C1138  H1140   1.107   .     S
C1138  C1141   1.530   .     S
C1138  H1139   1.101   .     S
C1141  H1142   1.108   .     S
C1141  H1144   1.107   .     S
C1141  H1413   1.106   .     S
O1145  C1146   1.411   .     S
O1145  C1183   1.394   .     S
C1146  H1148   1.115   .     S
C1146  C1149   1.534   .     S
C1146  H1147   1.108   .     S
C1149  H1151   1.099   .     S
C1149  C1152   1.526   .     S
C1149  H1150   1.104   .     S
C1152  H1155   1.107   .     S
C1152  H1154   1.109   .     S
C1152  H1153   1.102   .     S
O1156  C1157   1.414   .     S
O1156  C1274   1.406   1_455 S
C1157  H1158   1.109   .     S
C1157  H1159   1.103   .     S
C1157  C1160   1.528   .     S
C1160  C1163   1.530   .     S
C1160  H1161   1.110   .     S
C1160  H1162   1.109   .     S
C1163  H1164   1.102   .     S
C1163  H1165   1.105   .     S
C1163  H1436   1.110   .     S
F1168  C1358   1.362   .     S
C1171  O1207   1.296   .     A
C1171  O1205   1.292   .     A
C1171  C1177   1.448   .     S
C1172  O1208   1.293   .     A
C1172  O1206   1.295   .     A
C1172  C1178   1.446   .     S
C1173  C1194   1.417   .     A
C1173  H1201   1.065   .     S
C1173  C1175   1.374   .     A
C1174  C1193   1.413   .     A
C1174  H1202   1.072   .     S
C1174  C1176   1.381   .     A
C1176  H1198   1.084   .     S
C1176  C382    1.394   1_556 S
C1177  C1448   1.342   .     S
C1177  F1527   1.361   .     S
C1179  O1209   1.307   .     A
C1179  C1181   1.476   .     S
C1179  O1211   1.294   .     A
C1180  O1212   1.293   .     A
C1180  O1210   1.310   .     A
C1180  C1182   1.479   .     S
C1181  C1185   1.390   .     A
C1181  C1187   1.409   .     A
C1182  C1186   1.389   .     A
C1182  C1188   1.411   .     A
C1183  C1191   1.410   .     A
C1183  C1185   1.406   .     A
C1184  C1186   1.412   .     A
C1184  C1192   1.421   .     A
C1184  O1336   1.406   .     S
C1185  H1200   1.081   .     S
C1186  H1199   1.080   .     S
C1187  C1189   1.421   .     A
C1187  O1224   1.376   .     S
C1188  O1213   1.378   .     S
C1188  C1190   1.425   .     A
C1189  C1191   1.421   .     A
C1189  C1193   1.447   .     A
C1190  C1194   1.450   .     A
C1190  C1192   1.428   .     A
C1191  C365    1.386   1_556 S
C1193  C384    1.431   1_556 S
Cu1195 N1204   2.022   .     S
Cu1195 Cu1196  2.690   .     S
Cu1195 O1208   1.990   .     S
Cu1195 O1205   1.995   .     S
Cu1195 O1212   1.937   .     S
Cu1195 O1209   1.963   .     S
Cu1196 O1206   1.995   .     S
Cu1196 N1203   2.022   .     S
Cu1196 O1207   1.990   .     S
Cu1196 O1210   1.963   .     S
Cu1196 O1211   1.937   .     S
H1197  C1265   1.084   .     S
N1203  F1259   1.333   .     S
N1203  N1294   1.315   .     S
N1204  F1260   1.332   .     S
O1213  C1214   1.407   .     S
C1214  C1217   1.538   .     S
C1214  H1216   1.113   .     S
C1214  H1215   1.114   .     S
C1217  H1219   1.110   .     S
C1217  H1218   1.108   .     S
C1217  C1220   1.529   .     S
C1220  H1223   1.108   .     S
H1221  C1490   1.109   .     S
H1222  C1580   1.111   .     S
O1224  C1225   1.413   .     S
C1225  H1226   1.108   .     S
C1225  H1227   1.120   .     S
C1225  C1228   1.521   .     S
C1228  H1230   1.107   .     S
C1228  C1231   1.530   .     S
C1228  H1229   1.101   .     S
C1231  H1232   1.108   .     S
C1231  H1234   1.107   .     S
C1231  H1503   1.106   .     S
O1235  C1236   1.411   .     S
O1235  C1273   1.394   .     S
C1236  H1238   1.115   .     S
C1236  C1239   1.534   .     S
C1236  H1237   1.108   .     S
C1239  H1241   1.099   .     S
C1239  C1242   1.526   .     S
C1239  H1240   1.104   .     S
C1242  H1245   1.107   .     S
C1242  H1244   1.109   .     S
C1242  H1243   1.102   .     S
O1246  C1247   1.414   .     S
C1247  H1248   1.109   .     S
C1247  H1249   1.103   .     S
C1247  C1250   1.528   .     S
C1250  C1253   1.530   .     S
C1250  H1251   1.110   .     S
C1250  H1252   1.109   .     S
C1253  H1254   1.102   .     S
C1253  H1255   1.105   .     S
C1253  H1526   1.110   .     S
F1258  C1448   1.362   .     S
C1261  O1297   1.296   .     A
C1261  O1295   1.292   .     A
C1261  C1267   1.448   .     S
C1262  O1298   1.293   .     A
C1262  O1296   1.295   .     A
C1262  C1268   1.446   .     S
C1263  C1284   1.417   .     A
C1263  H1291   1.065   .     S
C1263  C1265   1.374   .     A
C1264  C1283   1.413   .     A
C1264  H1292   1.072   .     S
C1264  C1266   1.381   .     A
C1266  H1288   1.084   .     S
C1266  C472    1.394   1_556 S
C1267  C1538   1.342   .     S
C1267  F1617   1.361   .     S
C1269  O1299   1.307   .     A
C1269  C1271   1.476   .     S
C1269  O1301   1.294   .     A
C1270  O1302   1.293   .     A
C1270  O1300   1.310   .     A
C1270  C1272   1.479   .     S
C1271  C1275   1.390   .     A
C1271  C1277   1.409   .     A
C1272  C1276   1.389   .     A
C1272  C1278   1.411   .     A
C1273  C1281   1.410   .     A
C1273  C1275   1.406   .     A
C1274  C1276   1.412   .     A
C1274  C1282   1.421   .     A
C1274  O1156   1.406   1_655 S
C1275  H1290   1.081   .     S
C1276  H1289   1.080   .     S
C1277  C1279   1.421   .     A
C1277  O1314   1.376   .     S
C1278  O1303   1.378   .     S
C1278  C1280   1.425   .     A
C1279  C1281   1.421   .     A
C1279  C1283   1.447   .     A
C1280  C1284   1.450   .     A
C1280  C1282   1.428   .     A
C1281  C455    1.386   1_556 S
C1283  C474    1.431   1_556 S
Cu1285 N1294   2.022   .     S
Cu1285 Cu1286  2.690   .     S
Cu1285 O1298   1.990   .     S
Cu1285 O1295   1.995   .     S
Cu1285 O1302   1.937   .     S
Cu1285 O1299   1.963   .     S
Cu1286 O1296   1.995   .     S
Cu1286 N1293   2.022   .     S
Cu1286 O1297   1.990   .     S
Cu1286 O1300   1.963   .     S
Cu1286 O1301   1.937   .     S
H1287  C1085   1.084   1_655 S
N1293  F1349   1.333   .     S
N1293  N1114   1.315   1_655 S
N1294  F1350   1.332   .     S
O1303  C1304   1.407   .     S
C1304  C1307   1.538   .     S
C1304  H1306   1.113   .     S
C1304  H1305   1.114   .     S
C1307  H1309   1.110   .     S
C1307  H1308   1.108   .     S
C1307  C1310   1.529   .     S
C1310  H1313   1.108   .     S
H1311  C1580   1.109   .     S
H1312  C1400   1.111   1_655 S
O1314  C1315   1.413   .     S
C1315  H1316   1.108   .     S
C1315  H1317   1.120   .     S
C1315  C1318   1.521   .     S
C1318  H1320   1.107   .     S
C1318  C1321   1.530   .     S
C1318  H1319   1.101   .     S
C1321  H1322   1.108   .     S
C1321  H1324   1.107   .     S
C1321  H1593   1.106   .     S
O1325  C1326   1.411   .     S
O1325  C1093   1.394   1_655 S
C1326  H1328   1.115   .     S
C1326  C1329   1.534   .     S
C1326  H1327   1.108   .     S
C1329  H1331   1.099   .     S
C1329  C1332   1.526   .     S
C1329  H1330   1.104   .     S
C1332  H1335   1.107   .     S
C1332  H1334   1.109   .     S
C1332  H1333   1.102   .     S
O1336  C1337   1.414   .     S
C1337  H1338   1.109   .     S
C1337  H1339   1.103   .     S
C1337  C1340   1.528   .     S
C1340  C1343   1.530   .     S
C1340  H1341   1.110   .     S
C1340  H1342   1.109   .     S
C1343  H1344   1.102   .     S
C1343  H1345   1.105   .     S
C1343  H1616   1.110   .     S
F1348  C1538   1.362   .     S
C1351  O1387   1.296   .     A
C1351  O1385   1.292   .     A
C1351  C1357   1.448   .     S
C1352  O1388   1.293   .     A
C1352  O1386   1.295   .     A
C1352  C1358   1.446   .     S
C1353  C1374   1.417   .     A
C1353  H1381   1.065   .     S
C1353  C1355   1.374   .     A
C1354  C1373   1.413   .     A
C1354  H1382   1.072   .     S
C1354  C1356   1.381   .     A
C1355  H1557   1.084   1_455 S
C1356  H1378   1.084   .     S
C1356  C562    1.394   1_556 S
C1357  C818    1.342   1_565 S
C1357  F897    1.361   1_565 S
C1359  O1389   1.307   .     A
C1359  C1361   1.476   .     S
C1359  O1391   1.294   .     A
C1360  O1392   1.293   .     A
C1360  O1390   1.310   .     A
C1360  C1362   1.479   .     S
C1361  C1365   1.390   .     A
C1361  C1367   1.409   .     A
C1362  C1366   1.389   .     A
C1362  C1368   1.411   .     A
C1363  C1371   1.410   .     A
C1363  C1365   1.406   .     A
C1363  O1595   1.394   1_455 S
C1364  C1366   1.412   .     A
C1364  C1372   1.421   .     A
C1364  O1516   1.406   .     S
C1365  H1380   1.081   .     S
C1366  H1379   1.080   .     S
C1367  C1369   1.421   .     A
C1367  O1404   1.376   .     S
C1368  O1393   1.378   .     S
C1368  C1370   1.425   .     A
C1369  C1371   1.421   .     A
C1369  C1373   1.447   .     A
C1370  C1374   1.450   .     A
C1370  C1372   1.428   .     A
C1371  C545    1.386   1_556 S
C1373  C564    1.431   1_556 S
Cu1375 N1384   2.022   .     S
Cu1375 Cu1376  2.690   .     S
Cu1375 O1388   1.990   .     S
Cu1375 O1385   1.995   .     S
Cu1375 O1392   1.937   .     S
Cu1375 O1389   1.963   .     S
Cu1376 O1386   1.995   .     S
Cu1376 N1383   2.022   .     S
Cu1376 O1387   1.990   .     S
Cu1376 O1390   1.963   .     S
Cu1376 O1391   1.937   .     S
H1377  C1445   1.084   .     S
N1383  F1439   1.333   .     S
N1383  N1474   1.315   .     S
N1384  F1440   1.332   .     S
N1384  N1563   1.315   1_455 S
O1393  C1394   1.407   .     S
C1394  C1397   1.538   .     S
C1394  H1396   1.113   .     S
C1394  H1395   1.114   .     S
C1397  H1399   1.110   .     S
C1397  H1398   1.108   .     S
C1397  C1400   1.529   .     S
C1400  H1403   1.108   .     S
C1400  H1312   1.111   1_455 S
H1401  C860    1.109   1_565 S
H1402  C950    1.111   1_565 S
O1404  C1405   1.413   .     S
C1405  H1406   1.108   .     S
C1405  H1407   1.120   .     S
C1405  C1408   1.521   .     S
C1408  H1410   1.107   .     S
C1408  C1411   1.530   .     S
C1408  H1409   1.101   .     S
C1411  H1412   1.108   .     S
C1411  H1414   1.107   .     S
C1411  H873    1.106   1_565 S
O1415  C1416   1.411   .     S
O1415  C1453   1.394   .     S
C1416  H1418   1.115   .     S
C1416  C1419   1.534   .     S
C1416  H1417   1.108   .     S
C1419  H1421   1.099   .     S
C1419  C1422   1.526   .     S
C1419  H1420   1.104   .     S
C1422  H1425   1.107   .     S
C1422  H1424   1.109   .     S
C1422  H1423   1.102   .     S
O1426  C1427   1.414   .     S
O1426  C1544   1.406   1_455 S
C1427  H1428   1.109   .     S
C1427  H1429   1.103   .     S
C1427  C1430   1.528   .     S
C1430  C1433   1.530   .     S
C1430  H1431   1.110   .     S
C1430  H1432   1.109   .     S
C1433  H1434   1.102   .     S
C1433  H1435   1.105   .     S
C1433  H896    1.110   1_565 S
F1438  C818    1.362   1_565 S
C1441  O1477   1.296   .     A
C1441  O1475   1.292   .     A
C1441  C1447   1.448   .     S
C1442  O1478   1.293   .     A
C1442  O1476   1.295   .     A
C1442  C1448   1.446   .     S
C1443  C1464   1.417   .     A
C1443  H1471   1.065   .     S
C1443  C1445   1.374   .     A
C1444  C1463   1.413   .     A
C1444  H1472   1.072   .     S
C1444  C1446   1.381   .     A
C1446  H1468   1.084   .     S
C1446  C652    1.394   1_556 S
C1447  C908    1.342   1_565 S
C1447  F987    1.361   1_565 S
C1449  O1479   1.307   .     A
C1449  C1451   1.476   .     S
C1449  O1481   1.294   .     A
C1450  O1482   1.293   .     A
C1450  O1480   1.310   .     A
C1450  C1452   1.479   .     S
C1451  C1455   1.390   .     A
C1451  C1457   1.409   .     A
C1452  C1456   1.389   .     A
C1452  C1458   1.411   .     A
C1453  C1461   1.410   .     A
C1453  C1455   1.406   .     A
C1454  C1456   1.412   .     A
C1454  C1462   1.421   .     A
C1454  O1606   1.406   .     S
C1455  H1470   1.081   .     S
C1456  H1469   1.080   .     S
C1457  C1459   1.421   .     A
C1457  O1494   1.376   .     S
C1458  O1483   1.378   .     S
C1458  C1460   1.425   .     A
C1459  C1461   1.421   .     A
C1459  C1463   1.447   .     A
C1460  C1464   1.450   .     A
C1460  C1462   1.428   .     A
C1461  C635    1.386   1_556 S
C1463  C654    1.431   1_556 S
Cu1465 N1474   2.022   .     S
Cu1465 Cu1466  2.690   .     S
Cu1465 O1478   1.990   .     S
Cu1465 O1475   1.995   .     S
Cu1465 O1482   1.937   .     S
Cu1465 O1479   1.963   .     S
Cu1466 O1476   1.995   .     S
Cu1466 N1473   2.022   .     S
Cu1466 O1477   1.990   .     S
Cu1466 O1480   1.963   .     S
Cu1466 O1481   1.937   .     S
H1467  C1535   1.084   .     S
N1473  F1529   1.333   .     S
N1473  N1564   1.315   .     S
N1474  F1530   1.332   .     S
O1483  C1484   1.407   .     S
C1484  C1487   1.538   .     S
C1484  H1486   1.113   .     S
C1484  H1485   1.114   .     S
C1487  H1489   1.110   .     S
C1487  H1488   1.108   .     S
C1487  C1490   1.529   .     S
C1490  H1493   1.108   .     S
H1491  C950    1.109   1_565 S
H1492  C1040   1.111   1_565 S
O1494  C1495   1.413   .     S
C1495  H1496   1.108   .     S
C1495  H1497   1.120   .     S
C1495  C1498   1.521   .     S
C1498  H1500   1.107   .     S
C1498  C1501   1.530   .     S
C1498  H1499   1.101   .     S
C1501  H1502   1.108   .     S
C1501  H1504   1.107   .     S
C1501  H963    1.106   1_565 S
O1505  C1506   1.411   .     S
O1505  C1543   1.394   .     S
C1506  H1508   1.115   .     S
C1506  C1509   1.534   .     S
C1506  H1507   1.108   .     S
C1509  H1511   1.099   .     S
C1509  C1512   1.526   .     S
C1509  H1510   1.104   .     S
C1512  H1515   1.107   .     S
C1512  H1514   1.109   .     S
C1512  H1513   1.102   .     S
O1516  C1517   1.414   .     S
C1517  H1518   1.109   .     S
C1517  H1519   1.103   .     S
C1517  C1520   1.528   .     S
C1520  C1523   1.530   .     S
C1520  H1521   1.110   .     S
C1520  H1522   1.109   .     S
C1523  H1524   1.102   .     S
C1523  H1525   1.105   .     S
C1523  H986    1.110   1_565 S
F1528  C908    1.362   1_565 S
C1531  O1567   1.296   .     A
C1531  O1565   1.292   .     A
C1531  C1537   1.448   .     S
C1532  O1568   1.293   .     A
C1532  O1566   1.295   .     A
C1532  C1538   1.446   .     S
C1533  C1554   1.417   .     A
C1533  H1561   1.065   .     S
C1533  C1535   1.374   .     A
C1534  C1553   1.413   .     A
C1534  H1562   1.072   .     S
C1534  C1536   1.381   .     A
C1536  H1558   1.084   .     S
C1536  C742    1.394   1_556 S
C1537  C998    1.342   1_565 S
C1537  F1077   1.361   1_565 S
C1539  O1569   1.307   .     A
C1539  C1541   1.476   .     S
C1539  O1571   1.294   .     A
C1540  O1572   1.293   .     A
C1540  O1570   1.310   .     A
C1540  C1542   1.479   .     S
C1541  C1545   1.390   .     A
C1541  C1547   1.409   .     A
C1542  C1546   1.389   .     A
C1542  C1548   1.411   .     A
C1543  C1551   1.410   .     A
C1543  C1545   1.406   .     A
C1544  C1546   1.412   .     A
C1544  C1552   1.421   .     A
C1544  O1426   1.406   1_655 S
C1545  H1560   1.081   .     S
C1546  H1559   1.080   .     S
C1547  C1549   1.421   .     A
C1547  O1584   1.376   .     S
C1548  O1573   1.378   .     S
C1548  C1550   1.425   .     A
C1549  C1551   1.421   .     A
C1549  C1553   1.447   .     A
C1550  C1554   1.450   .     A
C1550  C1552   1.428   .     A
C1551  C725    1.386   1_556 S
C1553  C744    1.431   1_556 S
Cu1555 N1564   2.022   .     S
Cu1555 Cu1556  2.690   .     S
Cu1555 O1568   1.990   .     S
Cu1555 O1565   1.995   .     S
Cu1555 O1572   1.937   .     S
Cu1555 O1569   1.963   .     S
Cu1556 O1566   1.995   .     S
Cu1556 N1563   2.022   .     S
Cu1556 O1567   1.990   .     S
Cu1556 O1570   1.963   .     S
Cu1556 O1571   1.937   .     S
H1557  C1355   1.084   1_655 S
N1563  F1619   1.333   .     S
N1563  N1384   1.315   1_655 S
N1564  F1620   1.332   .     S
O1573  C1574   1.407   .     S
C1574  C1577   1.538   .     S
C1574  H1576   1.113   .     S
C1574  H1575   1.114   .     S
C1577  H1579   1.110   .     S
C1577  H1578   1.108   .     S
C1577  C1580   1.529   .     S
C1580  H1583   1.108   .     S
H1581  C1040   1.109   1_565 S
H1582  C860    1.111   1_665 S
O1584  C1585   1.413   .     S
C1585  H1586   1.108   .     S
C1585  H1587   1.120   .     S
C1585  C1588   1.521   .     S
C1588  H1590   1.107   .     S
C1588  C1591   1.530   .     S
C1588  H1589   1.101   .     S
C1591  H1592   1.108   .     S
C1591  H1594   1.107   .     S
C1591  H1053   1.106   1_565 S
O1595  C1596   1.411   .     S
O1595  C1363   1.394   1_655 S
C1596  H1598   1.115   .     S
C1596  C1599   1.534   .     S
C1596  H1597   1.108   .     S
C1599  H1601   1.099   .     S
C1599  C1602   1.526   .     S
C1599  H1600   1.104   .     S
C1602  H1605   1.107   .     S
C1602  H1604   1.109   .     S
C1602  H1603   1.102   .     S
O1606  C1607   1.414   .     S
C1607  H1608   1.109   .     S
C1607  H1609   1.103   .     S
C1607  C1610   1.528   .     S
C1610  C1613   1.530   .     S
C1610  H1611   1.110   .     S
C1610  H1612   1.109   .     S
C1613  H1614   1.102   .     S
C1613  H1615   1.105   .     S
C1613  H1076   1.110   1_565 S
F1618  C998    1.362   1_565 S
