data_str_m2_o10_o16_pcu_sym.64
_audit_creation_date              2020-01-03
_audit_creation_method            'Materials Studio'
_symmetry_space_group_name_H-M    'P1'
_symmetry_Int_Tables_number       1
_symmetry_cell_setting            triclinic
loop_
_symmetry_equiv_pos_as_xyz
  x,y,z
_cell_length_a                    22.3123
_cell_length_b                    26.2033
_cell_length_c                    26.9176
_cell_angle_alpha                 94.2361
_cell_angle_beta                  78.5288
_cell_angle_gamma                 102.9496
loop_
_atom_site_label
_atom_site_type_symbol
_atom_site_fract_x
_atom_site_fract_y
_atom_site_fract_z
_atom_site_U_iso_or_equiv
_atom_site_adp_type
_atom_site_occupancy
C1     C     0.18160   0.26660   0.25160   0.00000  Uiso   1.00
C2     C     0.11590   0.13648   0.39825   0.00000  Uiso   1.00
C3     C     0.19014   0.32227   0.25249   0.00000  Uiso   1.00
C4     C     0.13350   0.15561   0.34562   0.00000  Uiso   1.00
C5     C     0.14310   0.01107   0.24781   0.00000  Uiso   1.00
C6     C     0.15171   0.06673   0.24848   0.00000  Uiso   1.00
C7     C     0.19942   0.16823   0.15315   0.00000  Uiso   1.00
C8     C     0.29102   0.20367   0.02354   0.00000  Uiso   1.00
C9     C     0.21711   0.16991   0.09798   0.00000  Uiso   1.00
C10    C     0.05310   0.11535   0.41790   0.00000  Uiso   1.00
C11    C     0.03364   0.10595   0.46938   0.00000  Uiso   1.00
C12    C     0.14093   0.13694   0.48331   0.00000  Uiso   1.00
C13    C     0.07600   0.12032   0.00222   0.00000  Uiso   1.00
C14    C     0.16123   0.13995   0.43005   0.00000  Uiso   1.00
C15    C     0.18651   0.15325   0.01512   0.00000  Uiso   1.00
C16    C     0.24781   0.17984   0.49313   0.00000  Uiso   1.00
C17    C     0.26752   0.17678   0.44091   0.00000  Uiso   1.00
C18    C     0.22678   0.14839   0.41122   0.00000  Uiso   1.00
C19    C     0.17406   0.14379   0.06736   0.00000  Uiso   1.00
C20    C     0.27495   0.20012   0.07585   0.00000  Uiso   1.00
Cu21   Cu    0.10710   0.16105   0.24435   0.00000  Uiso   1.00
Cu22   Cu    0.22623   0.17228   0.25564   0.00000  Uiso   1.00
F23    F     0.08562   0.31571   0.24224   0.00000  Uiso   1.00
F24    F     0.30582   0.08573   0.48814   0.00000  Uiso   1.00
F25    F     0.24757   0.01764   0.25818   0.00000  Uiso   1.00
H26    H     0.30821   0.22007   0.09898   0.00000  Uiso   1.00
H27    H     0.00395   0.20602   0.28958   0.00000  Uiso   1.00
H28    H     0.32936   0.12726   0.21047   0.00000  Uiso   1.00
H29    H     0.31643   0.19028   0.42416   0.00000  Uiso   1.00
H30    H     0.00420   0.22448   0.00676   0.00000  Uiso   1.00
H31    H     0.01887   0.10712   0.39348   0.00000  Uiso   1.00
H32    H     0.05617   0.11939   0.04203   0.00000  Uiso   1.00
H33    H     0.09591   0.11478   0.11051   0.00000  Uiso   1.00
H34    H     0.21992   0.09302   0.35967   0.00000  Uiso   1.00
N35    N     0.31574   0.18074   0.26416   0.00000  Uiso   1.00
N36    N     0.01759   0.15259   0.23584   0.00000  Uiso   1.00
O37    O     0.12797   0.23807   0.24633   0.00000  Uiso   1.00
O38    O     0.25262   0.12292   0.36833   0.00000  Uiso   1.00
O39    O     0.22858   0.24755   0.25586   0.00000  Uiso   1.00
O40    O     0.09181   0.15960   0.31839   0.00000  Uiso   1.00
O41    O     0.19242   0.16908   0.32793   0.00000  Uiso   1.00
O42    O     0.10476   0.08578   0.24413   0.00000  Uiso   1.00
O43    O     0.20536   0.09526   0.25367   0.00000  Uiso   1.00
O44    O     0.14092   0.16425   0.17207   0.00000  Uiso   1.00
O45    O     0.24152   0.17373   0.18160   0.00000  Uiso   1.00
O46    O     0.12823   0.10131   0.08571   0.00000  Uiso   1.00
C47    C     0.51494   0.26660   0.25160   0.00000  Uiso   1.00
C48    C     0.44923   0.13648   0.39825   0.00000  Uiso   1.00
C49    C     0.52347   0.32227   0.25249   0.00000  Uiso   1.00
C50    C     0.46683   0.15561   0.34562   0.00000  Uiso   1.00
C51    C     0.47643   0.01107   0.24781   0.00000  Uiso   1.00
C52    C     0.48504   0.06673   0.24848   0.00000  Uiso   1.00
C53    C     0.53276   0.16823   0.15315   0.00000  Uiso   1.00
C54    C     0.62435   0.20367   0.02354   0.00000  Uiso   1.00
C55    C     0.55044   0.16991   0.09798   0.00000  Uiso   1.00
C56    C     0.38644   0.11535   0.41790   0.00000  Uiso   1.00
C57    C     0.36697   0.10595   0.46938   0.00000  Uiso   1.00
C58    C     0.47426   0.13694   0.48331   0.00000  Uiso   1.00
C59    C     0.40934   0.12032   0.00222   0.00000  Uiso   1.00
C60    C     0.49456   0.13995   0.43005   0.00000  Uiso   1.00
C61    C     0.51984   0.15325   0.01512   0.00000  Uiso   1.00
C62    C     0.58114   0.17984   0.49313   0.00000  Uiso   1.00
C63    C     0.60086   0.17678   0.44091   0.00000  Uiso   1.00
C64    C     0.56011   0.14839   0.41122   0.00000  Uiso   1.00
C65    C     0.50739   0.14379   0.06736   0.00000  Uiso   1.00
C66    C     0.60828   0.20012   0.07585   0.00000  Uiso   1.00
Cu67   Cu    0.44043   0.16105   0.24435   0.00000  Uiso   1.00
Cu68   Cu    0.55957   0.17228   0.25564   0.00000  Uiso   1.00
F69    F     0.41896   0.31571   0.24224   0.00000  Uiso   1.00
F70    F     0.63916   0.08573   0.48814   0.00000  Uiso   1.00
F71    F     0.58090   0.01764   0.25818   0.00000  Uiso   1.00
H72    H     0.64155   0.22007   0.09898   0.00000  Uiso   1.00
H73    H     0.33728   0.20602   0.28958   0.00000  Uiso   1.00
H74    H     0.66269   0.12726   0.21047   0.00000  Uiso   1.00
H75    H     0.64976   0.19028   0.42416   0.00000  Uiso   1.00
H76    H     0.33754   0.22448   0.00676   0.00000  Uiso   1.00
H77    H     0.35220   0.10712   0.39348   0.00000  Uiso   1.00
H78    H     0.38950   0.11939   0.04203   0.00000  Uiso   1.00
H79    H     0.42924   0.11478   0.11051   0.00000  Uiso   1.00
H80    H     0.55325   0.09302   0.35967   0.00000  Uiso   1.00
N81    N     0.64908   0.18074   0.26416   0.00000  Uiso   1.00
N82    N     0.35092   0.15259   0.23584   0.00000  Uiso   1.00
O83    O     0.46131   0.23807   0.24633   0.00000  Uiso   1.00
O84    O     0.58595   0.12292   0.36833   0.00000  Uiso   1.00
O85    O     0.56191   0.24755   0.25586   0.00000  Uiso   1.00
O86    O     0.42515   0.15960   0.31839   0.00000  Uiso   1.00
O87    O     0.52575   0.16908   0.32793   0.00000  Uiso   1.00
O88    O     0.43809   0.08578   0.24413   0.00000  Uiso   1.00
O89    O     0.53869   0.09526   0.25367   0.00000  Uiso   1.00
O90    O     0.47425   0.16425   0.17207   0.00000  Uiso   1.00
O91    O     0.57485   0.17373   0.18160   0.00000  Uiso   1.00
O92    O     0.46156   0.10131   0.08571   0.00000  Uiso   1.00
C93    C     0.84827   0.26660   0.25160   0.00000  Uiso   1.00
C94    C     0.78257   0.13648   0.39825   0.00000  Uiso   1.00
C95    C     0.85680   0.32227   0.25249   0.00000  Uiso   1.00
C96    C     0.80017   0.15561   0.34562   0.00000  Uiso   1.00
C97    C     0.80977   0.01107   0.24781   0.00000  Uiso   1.00
C98    C     0.81837   0.06673   0.24848   0.00000  Uiso   1.00
C99    C     0.86609   0.16823   0.15315   0.00000  Uiso   1.00
C100   C     0.95768   0.20367   0.02354   0.00000  Uiso   1.00
C101   C     0.88378   0.16991   0.09798   0.00000  Uiso   1.00
C102   C     0.71977   0.11535   0.41790   0.00000  Uiso   1.00
C103   C     0.70030   0.10595   0.46938   0.00000  Uiso   1.00
C104   C     0.80759   0.13694   0.48331   0.00000  Uiso   1.00
C105   C     0.74267   0.12032   0.00222   0.00000  Uiso   1.00
C106   C     0.82790   0.13995   0.43005   0.00000  Uiso   1.00
C107   C     0.85318   0.15325   0.01512   0.00000  Uiso   1.00
C108   C     0.91448   0.17984   0.49313   0.00000  Uiso   1.00
C109   C     0.93419   0.17678   0.44091   0.00000  Uiso   1.00
C110   C     0.89344   0.14839   0.41122   0.00000  Uiso   1.00
C111   C     0.84073   0.14379   0.06736   0.00000  Uiso   1.00
C112   C     0.94162   0.20012   0.07585   0.00000  Uiso   1.00
Cu113  Cu    0.77377   0.16105   0.24435   0.00000  Uiso   1.00
Cu114  Cu    0.89290   0.17228   0.25564   0.00000  Uiso   1.00
F115   F     0.75229   0.31571   0.24224   0.00000  Uiso   1.00
F116   F     0.97249   0.08573   0.48814   0.00000  Uiso   1.00
F117   F     0.91423   0.01764   0.25818   0.00000  Uiso   1.00
H118   H     0.97488   0.22007   0.09898   0.00000  Uiso   1.00
H119   H     0.67062   0.20602   0.28958   0.00000  Uiso   1.00
H120   H     0.99602   0.12726   0.21047   0.00000  Uiso   1.00
H121   H     0.98310   0.19028   0.42416   0.00000  Uiso   1.00
H122   H     0.67087   0.22448   0.00676   0.00000  Uiso   1.00
H123   H     0.68553   0.10712   0.39348   0.00000  Uiso   1.00
H124   H     0.72284   0.11939   0.04203   0.00000  Uiso   1.00
H125   H     0.76258   0.11478   0.11051   0.00000  Uiso   1.00
H126   H     0.88659   0.09302   0.35967   0.00000  Uiso   1.00
N127   N     0.98241   0.18074   0.26416   0.00000  Uiso   1.00
N128   N     0.68426   0.15259   0.23584   0.00000  Uiso   1.00
O129   O     0.79464   0.23807   0.24633   0.00000  Uiso   1.00
O130   O     0.91929   0.12292   0.36833   0.00000  Uiso   1.00
O131   O     0.89524   0.24755   0.25586   0.00000  Uiso   1.00
O132   O     0.75848   0.15960   0.31839   0.00000  Uiso   1.00
O133   O     0.85908   0.16908   0.32793   0.00000  Uiso   1.00
O134   O     0.77142   0.08578   0.24413   0.00000  Uiso   1.00
O135   O     0.87203   0.09526   0.25367   0.00000  Uiso   1.00
O136   O     0.80758   0.16425   0.17207   0.00000  Uiso   1.00
O137   O     0.90819   0.17373   0.18160   0.00000  Uiso   1.00
O138   O     0.79490   0.10131   0.08571   0.00000  Uiso   1.00
C139   C     0.18160   0.59993   0.25160   0.00000  Uiso   1.00
C140   C     0.11590   0.46981   0.39825   0.00000  Uiso   1.00
C141   C     0.19014   0.65561   0.25249   0.00000  Uiso   1.00
C142   C     0.13350   0.48895   0.34562   0.00000  Uiso   1.00
C143   C     0.14310   0.34441   0.24781   0.00000  Uiso   1.00
C144   C     0.15171   0.40006   0.24848   0.00000  Uiso   1.00
C145   C     0.19942   0.50157   0.15315   0.00000  Uiso   1.00
C146   C     0.29102   0.53701   0.02354   0.00000  Uiso   1.00
C147   C     0.21711   0.50325   0.09798   0.00000  Uiso   1.00
C148   C     0.05310   0.44868   0.41790   0.00000  Uiso   1.00
C149   C     0.03364   0.43929   0.46938   0.00000  Uiso   1.00
C150   C     0.14093   0.47027   0.48331   0.00000  Uiso   1.00
C151   C     0.07600   0.45366   0.00222   0.00000  Uiso   1.00
C152   C     0.16123   0.47329   0.43005   0.00000  Uiso   1.00
C153   C     0.18651   0.48659   0.01512   0.00000  Uiso   1.00
C154   C     0.24781   0.51318   0.49313   0.00000  Uiso   1.00
C155   C     0.26752   0.51011   0.44091   0.00000  Uiso   1.00
C156   C     0.22678   0.48172   0.41122   0.00000  Uiso   1.00
C157   C     0.17406   0.47713   0.06736   0.00000  Uiso   1.00
C158   C     0.27495   0.53345   0.07585   0.00000  Uiso   1.00
Cu159  Cu    0.10710   0.49439   0.24435   0.00000  Uiso   1.00
Cu160  Cu    0.22623   0.50561   0.25564   0.00000  Uiso   1.00
F161   F     0.08562   0.64904   0.24224   0.00000  Uiso   1.00
F162   F     0.30582   0.41907   0.48814   0.00000  Uiso   1.00
F163   F     0.24757   0.35098   0.25818   0.00000  Uiso   1.00
H164   H     0.30821   0.55340   0.09898   0.00000  Uiso   1.00
H165   H     0.00395   0.53935   0.28958   0.00000  Uiso   1.00
H166   H     0.32936   0.46060   0.21047   0.00000  Uiso   1.00
H167   H     0.31643   0.52361   0.42416   0.00000  Uiso   1.00
H168   H     0.00420   0.55781   0.00676   0.00000  Uiso   1.00
H169   H     0.01887   0.44046   0.39348   0.00000  Uiso   1.00
H170   H     0.05617   0.45272   0.04203   0.00000  Uiso   1.00
H171   H     0.09591   0.44812   0.11051   0.00000  Uiso   1.00
H172   H     0.21992   0.42635   0.35967   0.00000  Uiso   1.00
N173   N     0.31574   0.51407   0.26416   0.00000  Uiso   1.00
N174   N     0.01759   0.48593   0.23584   0.00000  Uiso   1.00
O175   O     0.12797   0.57141   0.24633   0.00000  Uiso   1.00
O176   O     0.25262   0.45625   0.36833   0.00000  Uiso   1.00
O177   O     0.22858   0.58089   0.25586   0.00000  Uiso   1.00
O178   O     0.09181   0.49293   0.31839   0.00000  Uiso   1.00
O179   O     0.19242   0.50241   0.32793   0.00000  Uiso   1.00
O180   O     0.10476   0.41911   0.24413   0.00000  Uiso   1.00
O181   O     0.20536   0.42859   0.25367   0.00000  Uiso   1.00
O182   O     0.14092   0.49759   0.17207   0.00000  Uiso   1.00
O183   O     0.24152   0.50707   0.18160   0.00000  Uiso   1.00
O184   O     0.12823   0.43465   0.08571   0.00000  Uiso   1.00
C185   C     0.51494   0.59993   0.25160   0.00000  Uiso   1.00
C186   C     0.44923   0.46981   0.39825   0.00000  Uiso   1.00
C187   C     0.52347   0.65561   0.25249   0.00000  Uiso   1.00
C188   C     0.46683   0.48895   0.34562   0.00000  Uiso   1.00
C189   C     0.47643   0.34441   0.24781   0.00000  Uiso   1.00
C190   C     0.48504   0.40006   0.24848   0.00000  Uiso   1.00
C191   C     0.53276   0.50157   0.15315   0.00000  Uiso   1.00
C192   C     0.62435   0.53701   0.02354   0.00000  Uiso   1.00
C193   C     0.55044   0.50325   0.09798   0.00000  Uiso   1.00
C194   C     0.38644   0.44868   0.41790   0.00000  Uiso   1.00
C195   C     0.36697   0.43929   0.46938   0.00000  Uiso   1.00
C196   C     0.47426   0.47027   0.48331   0.00000  Uiso   1.00
C197   C     0.40934   0.45366   0.00222   0.00000  Uiso   1.00
C198   C     0.49456   0.47329   0.43005   0.00000  Uiso   1.00
C199   C     0.51984   0.48659   0.01512   0.00000  Uiso   1.00
C200   C     0.58114   0.51318   0.49313   0.00000  Uiso   1.00
C201   C     0.60086   0.51011   0.44091   0.00000  Uiso   1.00
C202   C     0.56011   0.48172   0.41122   0.00000  Uiso   1.00
C203   C     0.50739   0.47713   0.06736   0.00000  Uiso   1.00
C204   C     0.60828   0.53345   0.07585   0.00000  Uiso   1.00
Cu205  Cu    0.44043   0.49439   0.24435   0.00000  Uiso   1.00
Cu206  Cu    0.55957   0.50561   0.25564   0.00000  Uiso   1.00
F207   F     0.41896   0.64904   0.24224   0.00000  Uiso   1.00
F208   F     0.63916   0.41907   0.48814   0.00000  Uiso   1.00
F209   F     0.58090   0.35098   0.25818   0.00000  Uiso   1.00
H210   H     0.64155   0.55340   0.09898   0.00000  Uiso   1.00
H211   H     0.33728   0.53935   0.28958   0.00000  Uiso   1.00
H212   H     0.66269   0.46060   0.21047   0.00000  Uiso   1.00
H213   H     0.64976   0.52361   0.42416   0.00000  Uiso   1.00
H214   H     0.33754   0.55781   0.00676   0.00000  Uiso   1.00
H215   H     0.35220   0.44046   0.39348   0.00000  Uiso   1.00
H216   H     0.38950   0.45272   0.04203   0.00000  Uiso   1.00
H217   H     0.42924   0.44812   0.11051   0.00000  Uiso   1.00
H218   H     0.55325   0.42635   0.35967   0.00000  Uiso   1.00
N219   N     0.64908   0.51407   0.26416   0.00000  Uiso   1.00
N220   N     0.35092   0.48593   0.23584   0.00000  Uiso   1.00
O221   O     0.46131   0.57141   0.24633   0.00000  Uiso   1.00
O222   O     0.58595   0.45625   0.36833   0.00000  Uiso   1.00
O223   O     0.56191   0.58089   0.25586   0.00000  Uiso   1.00
O224   O     0.42515   0.49293   0.31839   0.00000  Uiso   1.00
O225   O     0.52575   0.50241   0.32793   0.00000  Uiso   1.00
O226   O     0.43809   0.41911   0.24413   0.00000  Uiso   1.00
O227   O     0.53869   0.42859   0.25367   0.00000  Uiso   1.00
O228   O     0.47425   0.49759   0.17207   0.00000  Uiso   1.00
O229   O     0.57485   0.50707   0.18160   0.00000  Uiso   1.00
O230   O     0.46156   0.43465   0.08571   0.00000  Uiso   1.00
C231   C     0.84827   0.59993   0.25160   0.00000  Uiso   1.00
C232   C     0.78257   0.46981   0.39825   0.00000  Uiso   1.00
C233   C     0.85680   0.65561   0.25249   0.00000  Uiso   1.00
C234   C     0.80017   0.48895   0.34562   0.00000  Uiso   1.00
C235   C     0.80977   0.34441   0.24781   0.00000  Uiso   1.00
C236   C     0.81837   0.40006   0.24848   0.00000  Uiso   1.00
C237   C     0.86609   0.50157   0.15315   0.00000  Uiso   1.00
C238   C     0.95768   0.53701   0.02354   0.00000  Uiso   1.00
C239   C     0.88378   0.50325   0.09798   0.00000  Uiso   1.00
C240   C     0.71977   0.44868   0.41790   0.00000  Uiso   1.00
C241   C     0.70030   0.43929   0.46938   0.00000  Uiso   1.00
C242   C     0.80759   0.47027   0.48331   0.00000  Uiso   1.00
C243   C     0.74267   0.45366   0.00222   0.00000  Uiso   1.00
C244   C     0.82790   0.47329   0.43005   0.00000  Uiso   1.00
C245   C     0.85318   0.48659   0.01512   0.00000  Uiso   1.00
C246   C     0.91448   0.51318   0.49313   0.00000  Uiso   1.00
C247   C     0.93419   0.51011   0.44091   0.00000  Uiso   1.00
C248   C     0.89344   0.48172   0.41122   0.00000  Uiso   1.00
C249   C     0.84073   0.47713   0.06736   0.00000  Uiso   1.00
C250   C     0.94162   0.53345   0.07585   0.00000  Uiso   1.00
Cu251  Cu    0.77377   0.49439   0.24435   0.00000  Uiso   1.00
Cu252  Cu    0.89290   0.50561   0.25564   0.00000  Uiso   1.00
F253   F     0.75229   0.64904   0.24224   0.00000  Uiso   1.00
F254   F     0.97249   0.41907   0.48814   0.00000  Uiso   1.00
F255   F     0.91423   0.35098   0.25818   0.00000  Uiso   1.00
H256   H     0.97488   0.55340   0.09898   0.00000  Uiso   1.00
H257   H     0.67062   0.53935   0.28958   0.00000  Uiso   1.00
H258   H     0.99602   0.46060   0.21047   0.00000  Uiso   1.00
H259   H     0.98310   0.52361   0.42416   0.00000  Uiso   1.00
H260   H     0.67087   0.55781   0.00676   0.00000  Uiso   1.00
H261   H     0.68553   0.44046   0.39348   0.00000  Uiso   1.00
H262   H     0.72284   0.45272   0.04203   0.00000  Uiso   1.00
H263   H     0.76258   0.44812   0.11051   0.00000  Uiso   1.00
H264   H     0.88659   0.42635   0.35967   0.00000  Uiso   1.00
N265   N     0.98241   0.51407   0.26416   0.00000  Uiso   1.00
N266   N     0.68426   0.48593   0.23584   0.00000  Uiso   1.00
O267   O     0.79464   0.57141   0.24633   0.00000  Uiso   1.00
O268   O     0.91929   0.45625   0.36833   0.00000  Uiso   1.00
O269   O     0.89524   0.58089   0.25586   0.00000  Uiso   1.00
O270   O     0.75848   0.49293   0.31839   0.00000  Uiso   1.00
O271   O     0.85908   0.50241   0.32793   0.00000  Uiso   1.00
O272   O     0.77142   0.41911   0.24413   0.00000  Uiso   1.00
O273   O     0.87203   0.42859   0.25367   0.00000  Uiso   1.00
O274   O     0.80758   0.49759   0.17207   0.00000  Uiso   1.00
O275   O     0.90819   0.50707   0.18160   0.00000  Uiso   1.00
O276   O     0.79490   0.43465   0.08571   0.00000  Uiso   1.00
C277   C     0.18160   0.93327   0.25160   0.00000  Uiso   1.00
C278   C     0.11590   0.80315   0.39825   0.00000  Uiso   1.00
C279   C     0.19014   0.98894   0.25249   0.00000  Uiso   1.00
C280   C     0.13350   0.82228   0.34562   0.00000  Uiso   1.00
C281   C     0.14310   0.67774   0.24781   0.00000  Uiso   1.00
C282   C     0.15171   0.73339   0.24848   0.00000  Uiso   1.00
C283   C     0.19942   0.83490   0.15315   0.00000  Uiso   1.00
C284   C     0.29102   0.87034   0.02354   0.00000  Uiso   1.00
C285   C     0.21711   0.83658   0.09798   0.00000  Uiso   1.00
C286   C     0.05310   0.78202   0.41790   0.00000  Uiso   1.00
C287   C     0.03364   0.77262   0.46938   0.00000  Uiso   1.00
C288   C     0.14093   0.80360   0.48331   0.00000  Uiso   1.00
C289   C     0.07600   0.78699   0.00222   0.00000  Uiso   1.00
C290   C     0.16123   0.80662   0.43005   0.00000  Uiso   1.00
C291   C     0.18651   0.81992   0.01512   0.00000  Uiso   1.00
C292   C     0.24781   0.84651   0.49313   0.00000  Uiso   1.00
C293   C     0.26752   0.84345   0.44091   0.00000  Uiso   1.00
C294   C     0.22678   0.81506   0.41122   0.00000  Uiso   1.00
C295   C     0.17406   0.81046   0.06736   0.00000  Uiso   1.00
C296   C     0.27495   0.86678   0.07585   0.00000  Uiso   1.00
Cu297  Cu    0.10710   0.82772   0.24435   0.00000  Uiso   1.00
Cu298  Cu    0.22623   0.83895   0.25564   0.00000  Uiso   1.00
F299   F     0.08562   0.98238   0.24224   0.00000  Uiso   1.00
F300   F     0.30582   0.75240   0.48814   0.00000  Uiso   1.00
F301   F     0.24757   0.68431   0.25818   0.00000  Uiso   1.00
H302   H     0.30821   0.88674   0.09898   0.00000  Uiso   1.00
H303   H     0.00395   0.87268   0.28958   0.00000  Uiso   1.00
H304   H     0.32936   0.79393   0.21047   0.00000  Uiso   1.00
H305   H     0.31643   0.85695   0.42416   0.00000  Uiso   1.00
H306   H     0.00420   0.89115   0.00676   0.00000  Uiso   1.00
H307   H     0.01887   0.77379   0.39348   0.00000  Uiso   1.00
H308   H     0.05617   0.78605   0.04203   0.00000  Uiso   1.00
H309   H     0.09591   0.78145   0.11051   0.00000  Uiso   1.00
H310   H     0.21992   0.75969   0.35967   0.00000  Uiso   1.00
N311   N     0.31574   0.84741   0.26416   0.00000  Uiso   1.00
N312   N     0.01759   0.81926   0.23584   0.00000  Uiso   1.00
O313   O     0.12797   0.90474   0.24633   0.00000  Uiso   1.00
O314   O     0.25262   0.78959   0.36833   0.00000  Uiso   1.00
O315   O     0.22858   0.91422   0.25586   0.00000  Uiso   1.00
O316   O     0.09181   0.82627   0.31839   0.00000  Uiso   1.00
O317   O     0.19242   0.83575   0.32793   0.00000  Uiso   1.00
O318   O     0.10476   0.75245   0.24413   0.00000  Uiso   1.00
O319   O     0.20536   0.76193   0.25367   0.00000  Uiso   1.00
O320   O     0.14092   0.83092   0.17207   0.00000  Uiso   1.00
O321   O     0.24152   0.84040   0.18160   0.00000  Uiso   1.00
O322   O     0.12823   0.76798   0.08571   0.00000  Uiso   1.00
C323   C     0.51494   0.93327   0.25160   0.00000  Uiso   1.00
C324   C     0.44923   0.80315   0.39825   0.00000  Uiso   1.00
C325   C     0.52347   0.98894   0.25249   0.00000  Uiso   1.00
C326   C     0.46683   0.82228   0.34562   0.00000  Uiso   1.00
C327   C     0.47643   0.67774   0.24781   0.00000  Uiso   1.00
C328   C     0.48504   0.73339   0.24848   0.00000  Uiso   1.00
C329   C     0.53276   0.83490   0.15315   0.00000  Uiso   1.00
C330   C     0.62435   0.87034   0.02354   0.00000  Uiso   1.00
C331   C     0.55044   0.83658   0.09798   0.00000  Uiso   1.00
C332   C     0.38644   0.78202   0.41790   0.00000  Uiso   1.00
C333   C     0.36697   0.77262   0.46938   0.00000  Uiso   1.00
C334   C     0.47426   0.80360   0.48331   0.00000  Uiso   1.00
C335   C     0.40934   0.78699   0.00222   0.00000  Uiso   1.00
C336   C     0.49456   0.80662   0.43005   0.00000  Uiso   1.00
C337   C     0.51984   0.81992   0.01512   0.00000  Uiso   1.00
C338   C     0.58114   0.84651   0.49313   0.00000  Uiso   1.00
C339   C     0.60086   0.84345   0.44091   0.00000  Uiso   1.00
C340   C     0.56011   0.81506   0.41122   0.00000  Uiso   1.00
C341   C     0.50739   0.81046   0.06736   0.00000  Uiso   1.00
C342   C     0.60828   0.86678   0.07585   0.00000  Uiso   1.00
Cu343  Cu    0.44043   0.82772   0.24435   0.00000  Uiso   1.00
Cu344  Cu    0.55957   0.83895   0.25564   0.00000  Uiso   1.00
F345   F     0.41896   0.98238   0.24224   0.00000  Uiso   1.00
F346   F     0.63916   0.75240   0.48814   0.00000  Uiso   1.00
F347   F     0.58090   0.68431   0.25818   0.00000  Uiso   1.00
H348   H     0.64155   0.88674   0.09898   0.00000  Uiso   1.00
H349   H     0.33728   0.87268   0.28958   0.00000  Uiso   1.00
H350   H     0.66269   0.79393   0.21047   0.00000  Uiso   1.00
H351   H     0.64976   0.85695   0.42416   0.00000  Uiso   1.00
H352   H     0.33754   0.89115   0.00676   0.00000  Uiso   1.00
H353   H     0.35220   0.77379   0.39348   0.00000  Uiso   1.00
H354   H     0.38950   0.78605   0.04203   0.00000  Uiso   1.00
H355   H     0.42924   0.78145   0.11051   0.00000  Uiso   1.00
H356   H     0.55325   0.75969   0.35967   0.00000  Uiso   1.00
N357   N     0.64908   0.84741   0.26416   0.00000  Uiso   1.00
N358   N     0.35092   0.81926   0.23584   0.00000  Uiso   1.00
O359   O     0.46131   0.90474   0.24633   0.00000  Uiso   1.00
O360   O     0.58595   0.78959   0.36833   0.00000  Uiso   1.00
O361   O     0.56191   0.91422   0.25586   0.00000  Uiso   1.00
O362   O     0.42515   0.82627   0.31839   0.00000  Uiso   1.00
O363   O     0.52575   0.83575   0.32793   0.00000  Uiso   1.00
O364   O     0.43809   0.75245   0.24413   0.00000  Uiso   1.00
O365   O     0.53869   0.76193   0.25367   0.00000  Uiso   1.00
O366   O     0.47425   0.83092   0.17207   0.00000  Uiso   1.00
O367   O     0.57485   0.84040   0.18160   0.00000  Uiso   1.00
O368   O     0.46156   0.76798   0.08571   0.00000  Uiso   1.00
C369   C     0.84827   0.93327   0.25160   0.00000  Uiso   1.00
C370   C     0.78257   0.80315   0.39825   0.00000  Uiso   1.00
C371   C     0.85680   0.98894   0.25249   0.00000  Uiso   1.00
C372   C     0.80017   0.82228   0.34562   0.00000  Uiso   1.00
C373   C     0.80977   0.67774   0.24781   0.00000  Uiso   1.00
C374   C     0.81837   0.73339   0.24848   0.00000  Uiso   1.00
C375   C     0.86609   0.83490   0.15315   0.00000  Uiso   1.00
C376   C     0.95768   0.87034   0.02354   0.00000  Uiso   1.00
C377   C     0.88378   0.83658   0.09798   0.00000  Uiso   1.00
C378   C     0.71977   0.78202   0.41790   0.00000  Uiso   1.00
C379   C     0.70030   0.77262   0.46938   0.00000  Uiso   1.00
C380   C     0.80759   0.80360   0.48331   0.00000  Uiso   1.00
C381   C     0.74267   0.78699   0.00222   0.00000  Uiso   1.00
C382   C     0.82790   0.80662   0.43005   0.00000  Uiso   1.00
C383   C     0.85318   0.81992   0.01512   0.00000  Uiso   1.00
C384   C     0.91448   0.84651   0.49313   0.00000  Uiso   1.00
C385   C     0.93419   0.84345   0.44091   0.00000  Uiso   1.00
C386   C     0.89344   0.81506   0.41122   0.00000  Uiso   1.00
C387   C     0.84073   0.81046   0.06736   0.00000  Uiso   1.00
C388   C     0.94162   0.86678   0.07585   0.00000  Uiso   1.00
Cu389  Cu    0.77377   0.82772   0.24435   0.00000  Uiso   1.00
Cu390  Cu    0.89290   0.83895   0.25564   0.00000  Uiso   1.00
F391   F     0.75229   0.98238   0.24224   0.00000  Uiso   1.00
F392   F     0.97249   0.75240   0.48814   0.00000  Uiso   1.00
F393   F     0.91423   0.68431   0.25818   0.00000  Uiso   1.00
H394   H     0.97488   0.88674   0.09898   0.00000  Uiso   1.00
H395   H     0.67062   0.87268   0.28958   0.00000  Uiso   1.00
H396   H     0.99602   0.79393   0.21047   0.00000  Uiso   1.00
H397   H     0.98310   0.85695   0.42416   0.00000  Uiso   1.00
H398   H     0.67087   0.89115   0.00676   0.00000  Uiso   1.00
H399   H     0.68553   0.77379   0.39348   0.00000  Uiso   1.00
H400   H     0.72284   0.78605   0.04203   0.00000  Uiso   1.00
H401   H     0.76258   0.78145   0.11051   0.00000  Uiso   1.00
H402   H     0.88659   0.75969   0.35967   0.00000  Uiso   1.00
N403   N     0.98241   0.84741   0.26416   0.00000  Uiso   1.00
N404   N     0.68426   0.81926   0.23584   0.00000  Uiso   1.00
O405   O     0.79464   0.90474   0.24633   0.00000  Uiso   1.00
O406   O     0.91929   0.78959   0.36833   0.00000  Uiso   1.00
O407   O     0.89524   0.91422   0.25586   0.00000  Uiso   1.00
O408   O     0.75848   0.82627   0.31839   0.00000  Uiso   1.00
O409   O     0.85908   0.83575   0.32793   0.00000  Uiso   1.00
O410   O     0.77142   0.75245   0.24413   0.00000  Uiso   1.00
O411   O     0.87203   0.76193   0.25367   0.00000  Uiso   1.00
O412   O     0.80758   0.83092   0.17207   0.00000  Uiso   1.00
O413   O     0.90819   0.84040   0.18160   0.00000  Uiso   1.00
O414   O     0.79490   0.76798   0.08571   0.00000  Uiso   1.00
C415   C     0.18160   0.26660   0.75160   0.00000  Uiso   1.00
C416   C     0.11590   0.13648   0.89825   0.00000  Uiso   1.00
C417   C     0.19014   0.32227   0.75249   0.00000  Uiso   1.00
C418   C     0.13350   0.15561   0.84562   0.00000  Uiso   1.00
C419   C     0.14310   0.01107   0.74781   0.00000  Uiso   1.00
C420   C     0.15171   0.06673   0.74848   0.00000  Uiso   1.00
C421   C     0.19942   0.16823   0.65315   0.00000  Uiso   1.00
C422   C     0.29102   0.20367   0.52354   0.00000  Uiso   1.00
C423   C     0.21711   0.16991   0.59798   0.00000  Uiso   1.00
C424   C     0.05310   0.11535   0.91790   0.00000  Uiso   1.00
C425   C     0.03364   0.10595   0.96938   0.00000  Uiso   1.00
C426   C     0.14093   0.13694   0.98331   0.00000  Uiso   1.00
C427   C     0.07600   0.12032   0.50222   0.00000  Uiso   1.00
C428   C     0.16123   0.13995   0.93005   0.00000  Uiso   1.00
C429   C     0.18651   0.15325   0.51512   0.00000  Uiso   1.00
C430   C     0.24781   0.17984   0.99313   0.00000  Uiso   1.00
C431   C     0.26752   0.17678   0.94091   0.00000  Uiso   1.00
C432   C     0.22678   0.14839   0.91122   0.00000  Uiso   1.00
C433   C     0.17406   0.14379   0.56736   0.00000  Uiso   1.00
C434   C     0.27495   0.20012   0.57585   0.00000  Uiso   1.00
Cu435  Cu    0.10710   0.16105   0.74435   0.00000  Uiso   1.00
Cu436  Cu    0.22623   0.17228   0.75564   0.00000  Uiso   1.00
F437   F     0.08562   0.31571   0.74224   0.00000  Uiso   1.00
F438   F     0.30582   0.08573   0.98814   0.00000  Uiso   1.00
F439   F     0.24757   0.01764   0.75818   0.00000  Uiso   1.00
H440   H     0.30821   0.22007   0.59898   0.00000  Uiso   1.00
H441   H     0.00395   0.20602   0.78958   0.00000  Uiso   1.00
H442   H     0.32936   0.12726   0.71047   0.00000  Uiso   1.00
H443   H     0.31643   0.19028   0.92416   0.00000  Uiso   1.00
H444   H     0.00420   0.22448   0.50676   0.00000  Uiso   1.00
H445   H     0.01887   0.10712   0.89348   0.00000  Uiso   1.00
H446   H     0.05617   0.11939   0.54203   0.00000  Uiso   1.00
H447   H     0.09591   0.11478   0.61051   0.00000  Uiso   1.00
H448   H     0.21992   0.09302   0.85967   0.00000  Uiso   1.00
N449   N     0.31574   0.18074   0.76416   0.00000  Uiso   1.00
N450   N     0.01759   0.15259   0.73584   0.00000  Uiso   1.00
O451   O     0.12797   0.23807   0.74633   0.00000  Uiso   1.00
O452   O     0.25262   0.12292   0.86833   0.00000  Uiso   1.00
O453   O     0.22858   0.24755   0.75586   0.00000  Uiso   1.00
O454   O     0.09181   0.15960   0.81839   0.00000  Uiso   1.00
O455   O     0.19242   0.16908   0.82793   0.00000  Uiso   1.00
O456   O     0.10476   0.08578   0.74413   0.00000  Uiso   1.00
O457   O     0.20536   0.09526   0.75367   0.00000  Uiso   1.00
O458   O     0.14092   0.16425   0.67207   0.00000  Uiso   1.00
O459   O     0.24152   0.17373   0.68160   0.00000  Uiso   1.00
O460   O     0.12823   0.10131   0.58571   0.00000  Uiso   1.00
C461   C     0.51494   0.26660   0.75160   0.00000  Uiso   1.00
C462   C     0.44923   0.13648   0.89825   0.00000  Uiso   1.00
C463   C     0.52347   0.32227   0.75249   0.00000  Uiso   1.00
C464   C     0.46683   0.15561   0.84562   0.00000  Uiso   1.00
C465   C     0.47643   0.01107   0.74781   0.00000  Uiso   1.00
C466   C     0.48504   0.06673   0.74848   0.00000  Uiso   1.00
C467   C     0.53276   0.16823   0.65315   0.00000  Uiso   1.00
C468   C     0.62435   0.20367   0.52354   0.00000  Uiso   1.00
C469   C     0.55044   0.16991   0.59798   0.00000  Uiso   1.00
C470   C     0.38644   0.11535   0.91790   0.00000  Uiso   1.00
C471   C     0.36697   0.10595   0.96938   0.00000  Uiso   1.00
C472   C     0.47426   0.13694   0.98331   0.00000  Uiso   1.00
C473   C     0.40934   0.12032   0.50222   0.00000  Uiso   1.00
C474   C     0.49456   0.13995   0.93005   0.00000  Uiso   1.00
C475   C     0.51984   0.15325   0.51512   0.00000  Uiso   1.00
C476   C     0.58114   0.17984   0.99313   0.00000  Uiso   1.00
C477   C     0.60086   0.17678   0.94091   0.00000  Uiso   1.00
C478   C     0.56011   0.14839   0.91122   0.00000  Uiso   1.00
C479   C     0.50739   0.14379   0.56736   0.00000  Uiso   1.00
C480   C     0.60828   0.20012   0.57585   0.00000  Uiso   1.00
Cu481  Cu    0.44043   0.16105   0.74435   0.00000  Uiso   1.00
Cu482  Cu    0.55957   0.17228   0.75564   0.00000  Uiso   1.00
F483   F     0.41896   0.31571   0.74224   0.00000  Uiso   1.00
F484   F     0.63916   0.08573   0.98814   0.00000  Uiso   1.00
F485   F     0.58090   0.01764   0.75818   0.00000  Uiso   1.00
H486   H     0.64155   0.22007   0.59898   0.00000  Uiso   1.00
H487   H     0.33728   0.20602   0.78958   0.00000  Uiso   1.00
H488   H     0.66269   0.12726   0.71047   0.00000  Uiso   1.00
H489   H     0.64976   0.19028   0.92416   0.00000  Uiso   1.00
H490   H     0.33754   0.22448   0.50676   0.00000  Uiso   1.00
H491   H     0.35220   0.10712   0.89348   0.00000  Uiso   1.00
H492   H     0.38950   0.11939   0.54203   0.00000  Uiso   1.00
H493   H     0.42924   0.11478   0.61051   0.00000  Uiso   1.00
H494   H     0.55325   0.09302   0.85967   0.00000  Uiso   1.00
N495   N     0.64908   0.18074   0.76416   0.00000  Uiso   1.00
N496   N     0.35092   0.15259   0.73584   0.00000  Uiso   1.00
O497   O     0.46131   0.23807   0.74633   0.00000  Uiso   1.00
O498   O     0.58595   0.12292   0.86833   0.00000  Uiso   1.00
O499   O     0.56191   0.24755   0.75586   0.00000  Uiso   1.00
O500   O     0.42515   0.15960   0.81839   0.00000  Uiso   1.00
O501   O     0.52575   0.16908   0.82793   0.00000  Uiso   1.00
O502   O     0.43809   0.08578   0.74413   0.00000  Uiso   1.00
O503   O     0.53869   0.09526   0.75367   0.00000  Uiso   1.00
O504   O     0.47425   0.16425   0.67207   0.00000  Uiso   1.00
O505   O     0.57485   0.17373   0.68160   0.00000  Uiso   1.00
O506   O     0.46156   0.10131   0.58571   0.00000  Uiso   1.00
C507   C     0.84827   0.26660   0.75160   0.00000  Uiso   1.00
C508   C     0.78257   0.13648   0.89825   0.00000  Uiso   1.00
C509   C     0.85680   0.32227   0.75249   0.00000  Uiso   1.00
C510   C     0.80017   0.15561   0.84562   0.00000  Uiso   1.00
C511   C     0.80977   0.01107   0.74781   0.00000  Uiso   1.00
C512   C     0.81837   0.06673   0.74848   0.00000  Uiso   1.00
C513   C     0.86609   0.16823   0.65315   0.00000  Uiso   1.00
C514   C     0.95768   0.20367   0.52354   0.00000  Uiso   1.00
C515   C     0.88378   0.16991   0.59798   0.00000  Uiso   1.00
C516   C     0.71977   0.11535   0.91790   0.00000  Uiso   1.00
C517   C     0.70030   0.10595   0.96938   0.00000  Uiso   1.00
C518   C     0.80759   0.13694   0.98331   0.00000  Uiso   1.00
C519   C     0.74267   0.12032   0.50222   0.00000  Uiso   1.00
C520   C     0.82790   0.13995   0.93005   0.00000  Uiso   1.00
C521   C     0.85318   0.15325   0.51512   0.00000  Uiso   1.00
C522   C     0.91448   0.17984   0.99313   0.00000  Uiso   1.00
C523   C     0.93419   0.17678   0.94091   0.00000  Uiso   1.00
C524   C     0.89344   0.14839   0.91122   0.00000  Uiso   1.00
C525   C     0.84073   0.14379   0.56736   0.00000  Uiso   1.00
C526   C     0.94162   0.20012   0.57585   0.00000  Uiso   1.00
Cu527  Cu    0.77377   0.16105   0.74435   0.00000  Uiso   1.00
Cu528  Cu    0.89290   0.17228   0.75564   0.00000  Uiso   1.00
F529   F     0.75229   0.31571   0.74224   0.00000  Uiso   1.00
F530   F     0.97249   0.08573   0.98814   0.00000  Uiso   1.00
F531   F     0.91423   0.01764   0.75818   0.00000  Uiso   1.00
H532   H     0.97488   0.22007   0.59898   0.00000  Uiso   1.00
H533   H     0.67062   0.20602   0.78958   0.00000  Uiso   1.00
H534   H     0.99602   0.12726   0.71047   0.00000  Uiso   1.00
H535   H     0.98310   0.19028   0.92416   0.00000  Uiso   1.00
H536   H     0.67087   0.22448   0.50676   0.00000  Uiso   1.00
H537   H     0.68553   0.10712   0.89348   0.00000  Uiso   1.00
H538   H     0.72284   0.11939   0.54203   0.00000  Uiso   1.00
H539   H     0.76258   0.11478   0.61051   0.00000  Uiso   1.00
H540   H     0.88659   0.09302   0.85967   0.00000  Uiso   1.00
N541   N     0.98241   0.18074   0.76416   0.00000  Uiso   1.00
N542   N     0.68426   0.15259   0.73584   0.00000  Uiso   1.00
O543   O     0.79464   0.23807   0.74633   0.00000  Uiso   1.00
O544   O     0.91929   0.12292   0.86833   0.00000  Uiso   1.00
O545   O     0.89524   0.24755   0.75586   0.00000  Uiso   1.00
O546   O     0.75848   0.15960   0.81839   0.00000  Uiso   1.00
O547   O     0.85908   0.16908   0.82793   0.00000  Uiso   1.00
O548   O     0.77142   0.08578   0.74413   0.00000  Uiso   1.00
O549   O     0.87203   0.09526   0.75367   0.00000  Uiso   1.00
O550   O     0.80758   0.16425   0.67207   0.00000  Uiso   1.00
O551   O     0.90819   0.17373   0.68160   0.00000  Uiso   1.00
O552   O     0.79490   0.10131   0.58571   0.00000  Uiso   1.00
C553   C     0.18160   0.59993   0.75160   0.00000  Uiso   1.00
C554   C     0.11590   0.46981   0.89825   0.00000  Uiso   1.00
C555   C     0.19014   0.65561   0.75249   0.00000  Uiso   1.00
C556   C     0.13350   0.48895   0.84562   0.00000  Uiso   1.00
C557   C     0.14310   0.34441   0.74781   0.00000  Uiso   1.00
C558   C     0.15171   0.40006   0.74848   0.00000  Uiso   1.00
C559   C     0.19942   0.50157   0.65315   0.00000  Uiso   1.00
C560   C     0.29102   0.53701   0.52354   0.00000  Uiso   1.00
C561   C     0.21711   0.50325   0.59798   0.00000  Uiso   1.00
C562   C     0.05310   0.44868   0.91790   0.00000  Uiso   1.00
C563   C     0.03364   0.43929   0.96938   0.00000  Uiso   1.00
C564   C     0.14093   0.47027   0.98331   0.00000  Uiso   1.00
C565   C     0.07600   0.45366   0.50222   0.00000  Uiso   1.00
C566   C     0.16123   0.47329   0.93005   0.00000  Uiso   1.00
C567   C     0.18651   0.48659   0.51512   0.00000  Uiso   1.00
C568   C     0.24781   0.51318   0.99313   0.00000  Uiso   1.00
C569   C     0.26752   0.51011   0.94091   0.00000  Uiso   1.00
C570   C     0.22678   0.48172   0.91122   0.00000  Uiso   1.00
C571   C     0.17406   0.47713   0.56736   0.00000  Uiso   1.00
C572   C     0.27495   0.53345   0.57585   0.00000  Uiso   1.00
Cu573  Cu    0.10710   0.49439   0.74435   0.00000  Uiso   1.00
Cu574  Cu    0.22623   0.50561   0.75564   0.00000  Uiso   1.00
F575   F     0.08562   0.64904   0.74224   0.00000  Uiso   1.00
F576   F     0.30582   0.41907   0.98814   0.00000  Uiso   1.00
F577   F     0.24757   0.35098   0.75818   0.00000  Uiso   1.00
H578   H     0.30821   0.55340   0.59898   0.00000  Uiso   1.00
H579   H     0.00395   0.53935   0.78958   0.00000  Uiso   1.00
H580   H     0.32936   0.46060   0.71047   0.00000  Uiso   1.00
H581   H     0.31643   0.52361   0.92416   0.00000  Uiso   1.00
H582   H     0.00420   0.55781   0.50676   0.00000  Uiso   1.00
H583   H     0.01887   0.44046   0.89348   0.00000  Uiso   1.00
H584   H     0.05617   0.45272   0.54203   0.00000  Uiso   1.00
H585   H     0.09591   0.44812   0.61051   0.00000  Uiso   1.00
H586   H     0.21992   0.42635   0.85967   0.00000  Uiso   1.00
N587   N     0.31574   0.51407   0.76416   0.00000  Uiso   1.00
N588   N     0.01759   0.48593   0.73584   0.00000  Uiso   1.00
O589   O     0.12797   0.57141   0.74633   0.00000  Uiso   1.00
O590   O     0.25262   0.45625   0.86833   0.00000  Uiso   1.00
O591   O     0.22858   0.58089   0.75586   0.00000  Uiso   1.00
O592   O     0.09181   0.49293   0.81839   0.00000  Uiso   1.00
O593   O     0.19242   0.50241   0.82793   0.00000  Uiso   1.00
O594   O     0.10476   0.41911   0.74413   0.00000  Uiso   1.00
O595   O     0.20536   0.42859   0.75367   0.00000  Uiso   1.00
O596   O     0.14092   0.49759   0.67207   0.00000  Uiso   1.00
O597   O     0.24152   0.50707   0.68160   0.00000  Uiso   1.00
O598   O     0.12823   0.43465   0.58571   0.00000  Uiso   1.00
C599   C     0.51494   0.59993   0.75160   0.00000  Uiso   1.00
C600   C     0.44923   0.46981   0.89825   0.00000  Uiso   1.00
C601   C     0.52347   0.65561   0.75249   0.00000  Uiso   1.00
C602   C     0.46683   0.48895   0.84562   0.00000  Uiso   1.00
C603   C     0.47643   0.34441   0.74781   0.00000  Uiso   1.00
C604   C     0.48504   0.40006   0.74848   0.00000  Uiso   1.00
C605   C     0.53276   0.50157   0.65315   0.00000  Uiso   1.00
C606   C     0.62435   0.53701   0.52354   0.00000  Uiso   1.00
C607   C     0.55044   0.50325   0.59798   0.00000  Uiso   1.00
C608   C     0.38644   0.44868   0.91790   0.00000  Uiso   1.00
C609   C     0.36697   0.43929   0.96938   0.00000  Uiso   1.00
C610   C     0.47426   0.47027   0.98331   0.00000  Uiso   1.00
C611   C     0.40934   0.45366   0.50222   0.00000  Uiso   1.00
C612   C     0.49456   0.47329   0.93005   0.00000  Uiso   1.00
C613   C     0.51984   0.48659   0.51512   0.00000  Uiso   1.00
C614   C     0.58114   0.51318   0.99313   0.00000  Uiso   1.00
C615   C     0.60086   0.51011   0.94091   0.00000  Uiso   1.00
C616   C     0.56011   0.48172   0.91122   0.00000  Uiso   1.00
C617   C     0.50739   0.47713   0.56736   0.00000  Uiso   1.00
C618   C     0.60828   0.53345   0.57585   0.00000  Uiso   1.00
Cu619  Cu    0.44043   0.49439   0.74435   0.00000  Uiso   1.00
Cu620  Cu    0.55957   0.50561   0.75564   0.00000  Uiso   1.00
F621   F     0.41896   0.64904   0.74224   0.00000  Uiso   1.00
F622   F     0.63916   0.41907   0.98814   0.00000  Uiso   1.00
F623   F     0.58090   0.35098   0.75818   0.00000  Uiso   1.00
H624   H     0.64155   0.55340   0.59898   0.00000  Uiso   1.00
H625   H     0.33728   0.53935   0.78958   0.00000  Uiso   1.00
H626   H     0.66269   0.46060   0.71047   0.00000  Uiso   1.00
H627   H     0.64976   0.52361   0.92416   0.00000  Uiso   1.00
H628   H     0.33754   0.55781   0.50676   0.00000  Uiso   1.00
H629   H     0.35220   0.44046   0.89348   0.00000  Uiso   1.00
H630   H     0.38950   0.45272   0.54203   0.00000  Uiso   1.00
H631   H     0.42924   0.44812   0.61051   0.00000  Uiso   1.00
H632   H     0.55325   0.42635   0.85967   0.00000  Uiso   1.00
N633   N     0.64908   0.51407   0.76416   0.00000  Uiso   1.00
N634   N     0.35092   0.48593   0.73584   0.00000  Uiso   1.00
O635   O     0.46131   0.57141   0.74633   0.00000  Uiso   1.00
O636   O     0.58595   0.45625   0.86833   0.00000  Uiso   1.00
O637   O     0.56191   0.58089   0.75586   0.00000  Uiso   1.00
O638   O     0.42515   0.49293   0.81839   0.00000  Uiso   1.00
O639   O     0.52575   0.50241   0.82793   0.00000  Uiso   1.00
O640   O     0.43809   0.41911   0.74413   0.00000  Uiso   1.00
O641   O     0.53869   0.42859   0.75367   0.00000  Uiso   1.00
O642   O     0.47425   0.49759   0.67207   0.00000  Uiso   1.00
O643   O     0.57485   0.50707   0.68160   0.00000  Uiso   1.00
O644   O     0.46156   0.43465   0.58571   0.00000  Uiso   1.00
C645   C     0.84827   0.59993   0.75160   0.00000  Uiso   1.00
C646   C     0.78257   0.46981   0.89825   0.00000  Uiso   1.00
C647   C     0.85680   0.65561   0.75249   0.00000  Uiso   1.00
C648   C     0.80017   0.48895   0.84562   0.00000  Uiso   1.00
C649   C     0.80977   0.34441   0.74781   0.00000  Uiso   1.00
C650   C     0.81837   0.40006   0.74848   0.00000  Uiso   1.00
C651   C     0.86609   0.50157   0.65315   0.00000  Uiso   1.00
C652   C     0.95768   0.53701   0.52354   0.00000  Uiso   1.00
C653   C     0.88378   0.50325   0.59798   0.00000  Uiso   1.00
C654   C     0.71977   0.44868   0.91790   0.00000  Uiso   1.00
C655   C     0.70030   0.43929   0.96938   0.00000  Uiso   1.00
C656   C     0.80759   0.47027   0.98331   0.00000  Uiso   1.00
C657   C     0.74267   0.45366   0.50222   0.00000  Uiso   1.00
C658   C     0.82790   0.47329   0.93005   0.00000  Uiso   1.00
C659   C     0.85318   0.48659   0.51512   0.00000  Uiso   1.00
C660   C     0.91448   0.51318   0.99313   0.00000  Uiso   1.00
C661   C     0.93419   0.51011   0.94091   0.00000  Uiso   1.00
C662   C     0.89344   0.48172   0.91122   0.00000  Uiso   1.00
C663   C     0.84073   0.47713   0.56736   0.00000  Uiso   1.00
C664   C     0.94162   0.53345   0.57585   0.00000  Uiso   1.00
Cu665  Cu    0.77377   0.49439   0.74435   0.00000  Uiso   1.00
Cu666  Cu    0.89290   0.50561   0.75564   0.00000  Uiso   1.00
F667   F     0.75229   0.64904   0.74224   0.00000  Uiso   1.00
F668   F     0.97249   0.41907   0.98814   0.00000  Uiso   1.00
F669   F     0.91423   0.35098   0.75818   0.00000  Uiso   1.00
H670   H     0.97488   0.55340   0.59898   0.00000  Uiso   1.00
H671   H     0.67062   0.53935   0.78958   0.00000  Uiso   1.00
H672   H     0.99602   0.46060   0.71047   0.00000  Uiso   1.00
H673   H     0.98310   0.52361   0.92416   0.00000  Uiso   1.00
H674   H     0.67087   0.55781   0.50676   0.00000  Uiso   1.00
H675   H     0.68553   0.44046   0.89348   0.00000  Uiso   1.00
H676   H     0.72284   0.45272   0.54203   0.00000  Uiso   1.00
H677   H     0.76258   0.44812   0.61051   0.00000  Uiso   1.00
H678   H     0.88659   0.42635   0.85967   0.00000  Uiso   1.00
N679   N     0.98241   0.51407   0.76416   0.00000  Uiso   1.00
N680   N     0.68426   0.48593   0.73584   0.00000  Uiso   1.00
O681   O     0.79464   0.57141   0.74633   0.00000  Uiso   1.00
O682   O     0.91929   0.45625   0.86833   0.00000  Uiso   1.00
O683   O     0.89524   0.58089   0.75586   0.00000  Uiso   1.00
O684   O     0.75848   0.49293   0.81839   0.00000  Uiso   1.00
O685   O     0.85908   0.50241   0.82793   0.00000  Uiso   1.00
O686   O     0.77142   0.41911   0.74413   0.00000  Uiso   1.00
O687   O     0.87203   0.42859   0.75367   0.00000  Uiso   1.00
O688   O     0.80758   0.49759   0.67207   0.00000  Uiso   1.00
O689   O     0.90819   0.50707   0.68160   0.00000  Uiso   1.00
O690   O     0.79490   0.43465   0.58571   0.00000  Uiso   1.00
C691   C     0.18160   0.93327   0.75160   0.00000  Uiso   1.00
C692   C     0.11590   0.80315   0.89825   0.00000  Uiso   1.00
C693   C     0.19014   0.98894   0.75249   0.00000  Uiso   1.00
C694   C     0.13350   0.82228   0.84562   0.00000  Uiso   1.00
C695   C     0.14310   0.67774   0.74781   0.00000  Uiso   1.00
C696   C     0.15171   0.73339   0.74848   0.00000  Uiso   1.00
C697   C     0.19942   0.83490   0.65315   0.00000  Uiso   1.00
C698   C     0.29102   0.87034   0.52354   0.00000  Uiso   1.00
C699   C     0.21711   0.83658   0.59798   0.00000  Uiso   1.00
C700   C     0.05310   0.78202   0.91790   0.00000  Uiso   1.00
C701   C     0.03364   0.77262   0.96938   0.00000  Uiso   1.00
C702   C     0.14093   0.80360   0.98331   0.00000  Uiso   1.00
C703   C     0.07600   0.78699   0.50222   0.00000  Uiso   1.00
C704   C     0.16123   0.80662   0.93005   0.00000  Uiso   1.00
C705   C     0.18651   0.81992   0.51512   0.00000  Uiso   1.00
C706   C     0.24781   0.84651   0.99313   0.00000  Uiso   1.00
C707   C     0.26752   0.84345   0.94091   0.00000  Uiso   1.00
C708   C     0.22678   0.81506   0.91122   0.00000  Uiso   1.00
C709   C     0.17406   0.81046   0.56736   0.00000  Uiso   1.00
C710   C     0.27495   0.86678   0.57585   0.00000  Uiso   1.00
Cu711  Cu    0.10710   0.82772   0.74435   0.00000  Uiso   1.00
Cu712  Cu    0.22623   0.83895   0.75564   0.00000  Uiso   1.00
F713   F     0.08562   0.98238   0.74224   0.00000  Uiso   1.00
F714   F     0.30582   0.75240   0.98814   0.00000  Uiso   1.00
F715   F     0.24757   0.68431   0.75818   0.00000  Uiso   1.00
H716   H     0.30821   0.88674   0.59898   0.00000  Uiso   1.00
H717   H     0.00395   0.87268   0.78958   0.00000  Uiso   1.00
H718   H     0.32936   0.79393   0.71047   0.00000  Uiso   1.00
H719   H     0.31643   0.85695   0.92416   0.00000  Uiso   1.00
H720   H     0.00420   0.89115   0.50676   0.00000  Uiso   1.00
H721   H     0.01887   0.77379   0.89348   0.00000  Uiso   1.00
H722   H     0.05617   0.78605   0.54203   0.00000  Uiso   1.00
H723   H     0.09591   0.78145   0.61051   0.00000  Uiso   1.00
H724   H     0.21992   0.75969   0.85967   0.00000  Uiso   1.00
N725   N     0.31574   0.84741   0.76416   0.00000  Uiso   1.00
N726   N     0.01759   0.81926   0.73584   0.00000  Uiso   1.00
O727   O     0.12797   0.90474   0.74633   0.00000  Uiso   1.00
O728   O     0.25262   0.78959   0.86833   0.00000  Uiso   1.00
O729   O     0.22858   0.91422   0.75586   0.00000  Uiso   1.00
O730   O     0.09181   0.82627   0.81839   0.00000  Uiso   1.00
O731   O     0.19242   0.83575   0.82793   0.00000  Uiso   1.00
O732   O     0.10476   0.75245   0.74413   0.00000  Uiso   1.00
O733   O     0.20536   0.76193   0.75367   0.00000  Uiso   1.00
O734   O     0.14092   0.83092   0.67207   0.00000  Uiso   1.00
O735   O     0.24152   0.84040   0.68160   0.00000  Uiso   1.00
O736   O     0.12823   0.76798   0.58571   0.00000  Uiso   1.00
C737   C     0.51494   0.93327   0.75160   0.00000  Uiso   1.00
C738   C     0.44923   0.80315   0.89825   0.00000  Uiso   1.00
C739   C     0.52347   0.98894   0.75249   0.00000  Uiso   1.00
C740   C     0.46683   0.82228   0.84562   0.00000  Uiso   1.00
C741   C     0.47643   0.67774   0.74781   0.00000  Uiso   1.00
C742   C     0.48504   0.73339   0.74848   0.00000  Uiso   1.00
C743   C     0.53276   0.83490   0.65315   0.00000  Uiso   1.00
C744   C     0.62435   0.87034   0.52354   0.00000  Uiso   1.00
C745   C     0.55044   0.83658   0.59798   0.00000  Uiso   1.00
C746   C     0.38644   0.78202   0.91790   0.00000  Uiso   1.00
C747   C     0.36697   0.77262   0.96938   0.00000  Uiso   1.00
C748   C     0.47426   0.80360   0.98331   0.00000  Uiso   1.00
C749   C     0.40934   0.78699   0.50222   0.00000  Uiso   1.00
C750   C     0.49456   0.80662   0.93005   0.00000  Uiso   1.00
C751   C     0.51984   0.81992   0.51512   0.00000  Uiso   1.00
C752   C     0.58114   0.84651   0.99313   0.00000  Uiso   1.00
C753   C     0.60086   0.84345   0.94091   0.00000  Uiso   1.00
C754   C     0.56011   0.81506   0.91122   0.00000  Uiso   1.00
C755   C     0.50739   0.81046   0.56736   0.00000  Uiso   1.00
C756   C     0.60828   0.86678   0.57585   0.00000  Uiso   1.00
Cu757  Cu    0.44043   0.82772   0.74435   0.00000  Uiso   1.00
Cu758  Cu    0.55957   0.83895   0.75564   0.00000  Uiso   1.00
F759   F     0.41896   0.98238   0.74224   0.00000  Uiso   1.00
F760   F     0.63916   0.75240   0.98814   0.00000  Uiso   1.00
F761   F     0.58090   0.68431   0.75818   0.00000  Uiso   1.00
H762   H     0.64155   0.88674   0.59898   0.00000  Uiso   1.00
H763   H     0.33728   0.87268   0.78958   0.00000  Uiso   1.00
H764   H     0.66269   0.79393   0.71047   0.00000  Uiso   1.00
H765   H     0.64976   0.85695   0.92416   0.00000  Uiso   1.00
H766   H     0.33754   0.89115   0.50676   0.00000  Uiso   1.00
H767   H     0.35220   0.77379   0.89348   0.00000  Uiso   1.00
H768   H     0.38950   0.78605   0.54203   0.00000  Uiso   1.00
H769   H     0.42924   0.78145   0.61051   0.00000  Uiso   1.00
H770   H     0.55325   0.75969   0.85967   0.00000  Uiso   1.00
N771   N     0.64908   0.84741   0.76416   0.00000  Uiso   1.00
N772   N     0.35092   0.81926   0.73584   0.00000  Uiso   1.00
O773   O     0.46131   0.90474   0.74633   0.00000  Uiso   1.00
O774   O     0.58595   0.78959   0.86833   0.00000  Uiso   1.00
O775   O     0.56191   0.91422   0.75586   0.00000  Uiso   1.00
O776   O     0.42515   0.82627   0.81839   0.00000  Uiso   1.00
O777   O     0.52575   0.83575   0.82793   0.00000  Uiso   1.00
O778   O     0.43809   0.75245   0.74413   0.00000  Uiso   1.00
O779   O     0.53869   0.76193   0.75367   0.00000  Uiso   1.00
O780   O     0.47425   0.83092   0.67207   0.00000  Uiso   1.00
O781   O     0.57485   0.84040   0.68160   0.00000  Uiso   1.00
O782   O     0.46156   0.76798   0.58571   0.00000  Uiso   1.00
C783   C     0.84827   0.93327   0.75160   0.00000  Uiso   1.00
C784   C     0.78257   0.80315   0.89825   0.00000  Uiso   1.00
C785   C     0.85680   0.98894   0.75249   0.00000  Uiso   1.00
C786   C     0.80017   0.82228   0.84562   0.00000  Uiso   1.00
C787   C     0.80977   0.67774   0.74781   0.00000  Uiso   1.00
C788   C     0.81837   0.73339   0.74848   0.00000  Uiso   1.00
C789   C     0.86609   0.83490   0.65315   0.00000  Uiso   1.00
C790   C     0.95768   0.87034   0.52354   0.00000  Uiso   1.00
C791   C     0.88378   0.83658   0.59798   0.00000  Uiso   1.00
C792   C     0.71977   0.78202   0.91790   0.00000  Uiso   1.00
C793   C     0.70030   0.77262   0.96938   0.00000  Uiso   1.00
C794   C     0.80759   0.80360   0.98331   0.00000  Uiso   1.00
C795   C     0.74267   0.78699   0.50222   0.00000  Uiso   1.00
C796   C     0.82790   0.80662   0.93005   0.00000  Uiso   1.00
C797   C     0.85318   0.81992   0.51512   0.00000  Uiso   1.00
C798   C     0.91448   0.84651   0.99313   0.00000  Uiso   1.00
C799   C     0.93419   0.84345   0.94091   0.00000  Uiso   1.00
C800   C     0.89344   0.81506   0.91122   0.00000  Uiso   1.00
C801   C     0.84073   0.81046   0.56736   0.00000  Uiso   1.00
C802   C     0.94162   0.86678   0.57585   0.00000  Uiso   1.00
Cu803  Cu    0.77377   0.82772   0.74435   0.00000  Uiso   1.00
Cu804  Cu    0.89290   0.83895   0.75564   0.00000  Uiso   1.00
F805   F     0.75229   0.98238   0.74224   0.00000  Uiso   1.00
F806   F     0.97249   0.75240   0.98814   0.00000  Uiso   1.00
F807   F     0.91423   0.68431   0.75818   0.00000  Uiso   1.00
H808   H     0.97488   0.88674   0.59898   0.00000  Uiso   1.00
H809   H     0.67062   0.87268   0.78958   0.00000  Uiso   1.00
H810   H     0.99602   0.79393   0.71047   0.00000  Uiso   1.00
H811   H     0.98310   0.85695   0.92416   0.00000  Uiso   1.00
H812   H     0.67087   0.89115   0.50676   0.00000  Uiso   1.00
H813   H     0.68553   0.77379   0.89348   0.00000  Uiso   1.00
H814   H     0.72284   0.78605   0.54203   0.00000  Uiso   1.00
H815   H     0.76258   0.78145   0.61051   0.00000  Uiso   1.00
H816   H     0.88659   0.75969   0.85967   0.00000  Uiso   1.00
N817   N     0.98241   0.84741   0.76416   0.00000  Uiso   1.00
N818   N     0.68426   0.81926   0.73584   0.00000  Uiso   1.00
O819   O     0.79464   0.90474   0.74633   0.00000  Uiso   1.00
O820   O     0.91929   0.78959   0.86833   0.00000  Uiso   1.00
O821   O     0.89524   0.91422   0.75586   0.00000  Uiso   1.00
O822   O     0.75848   0.82627   0.81839   0.00000  Uiso   1.00
O823   O     0.85908   0.83575   0.82793   0.00000  Uiso   1.00
O824   O     0.77142   0.75245   0.74413   0.00000  Uiso   1.00
O825   O     0.87203   0.76193   0.75367   0.00000  Uiso   1.00
O826   O     0.80758   0.83092   0.67207   0.00000  Uiso   1.00
O827   O     0.90819   0.84040   0.68160   0.00000  Uiso   1.00
O828   O     0.79490   0.76798   0.58571   0.00000  Uiso   1.00
loop_
_geom_bond_atom_site_label_1
_geom_bond_atom_site_label_2
_geom_bond_distance
_geom_bond_site_symmetry_2
_ccdc_geom_bond_type
C1     O37     1.289   .     A
C1     O39     1.285   .     A
C1     C3      1.427   .     S
C2     C4      1.486   .     S
C2     C14     1.434   .     A
C2     C10     1.396   .     A
C3     C143    1.338   .     S
C3     F163    1.364   .     S
C4     O41     1.283   .     A
C4     O40     1.319   .     A
C5     C6      1.427   .     S
C5     C279    1.338   1_545 S
C5     F299    1.364   1_545 S
C6     O43     1.289   .     A
C6     O42     1.285   .     A
C7     O44     1.287   .     A
C7     O45     1.303   .     A
C7     C9      1.460   .     S
C8     C20     1.387   .     A
C8     C430    1.399   1_554 S
C8     H76     1.084   .     S
C9     C20     1.397   .     A
C9     C19     1.417   .     A
C10    C11     1.390   .     A
C10    H31     1.080   .     S
C11    C427    1.393   .     S
C11    F116    1.356   1_455 S
C12    C14     1.418   .     A
C12    C427    1.416   .     S
C12    C429    1.431   .     S
C13    H32     1.075   .     S
C13    C426    1.416   1_554 S
C13    C425    1.393   1_554 S
C14    C18     1.422   .     A
C15    C19     1.407   .     A
C15    C426    1.431   1_554 S
C15    C430    1.421   1_554 S
C16    C17     1.389   .     A
C16    C429    1.421   .     S
C16    C422    1.399   .     S
C17    H29     1.083   .     S
C17    C18     1.384   .     A
C18    O38     1.380   .     S
C19    O46     1.378   .     S
C20    H26     1.083   .     S
Cu21   O44     1.943   .     S
Cu21   N36     2.017   .     S
Cu21   O40     1.956   .     S
Cu21   Cu22    2.684   .     S
Cu21   O42     1.961   .     S
Cu21   O37     1.966   .     S
Cu22   N35     2.017   .     S
Cu22   O39     1.961   .     S
Cu22   O41     1.943   .     S
Cu22   O45     1.956   .     S
Cu22   O43     1.966   .     S
F23    C143    1.364   .     S
F24    C57     1.356   .     S
F25    C279    1.364   1_545 S
H27    N127    1.029   1_455 S
H28    N82     1.029   .     S
H30    C100    1.084   1_455 S
H33    O46     0.989   .     S
H34    O38     0.992   .     S
N35    H73     1.029   .     S
N35    N82     1.296   .     S
N36    N127    1.296   1_455 S
N36    H120    1.029   1_455 S
C47    O83     1.289   .     A
C47    O85     1.285   .     A
C47    C49     1.427   .     S
C48    C50     1.486   .     S
C48    C60     1.434   .     A
C48    C56     1.396   .     A
C49    C189    1.338   .     S
C49    F209    1.364   .     S
C50    O87     1.283   .     A
C50    O86     1.319   .     A
C51    C52     1.427   .     S
C51    C325    1.338   1_545 S
C51    F345    1.364   1_545 S
C52    O89     1.289   .     A
C52    O88     1.285   .     A
C53    O90     1.287   .     A
C53    O91     1.303   .     A
C53    C55     1.460   .     S
C54    C66     1.387   .     A
C54    C476    1.399   1_554 S
C54    H122    1.084   .     S
C55    C66     1.397   .     A
C55    C65     1.417   .     A
C56    C57     1.390   .     A
C56    H77     1.080   .     S
C57    C473    1.393   .     S
C58    C60     1.418   .     A
C58    C473    1.416   .     S
C58    C475    1.431   .     S
C59    H78     1.075   .     S
C59    C472    1.416   1_554 S
C59    C471    1.393   1_554 S
C60    C64     1.422   .     A
C61    C65     1.407   .     A
C61    C472    1.431   1_554 S
C61    C476    1.421   1_554 S
C62    C63     1.389   .     A
C62    C475    1.421   .     S
C62    C468    1.399   .     S
C63    H75     1.083   .     S
C63    C64     1.384   .     A
C64    O84     1.380   .     S
C65    O92     1.378   .     S
C66    H72     1.083   .     S
Cu67   O90     1.943   .     S
Cu67   N82     2.017   .     S
Cu67   O86     1.956   .     S
Cu67   Cu68    2.684   .     S
Cu67   O88     1.961   .     S
Cu67   O83     1.966   .     S
Cu68   N81     2.017   .     S
Cu68   O85     1.961   .     S
Cu68   O87     1.943   .     S
Cu68   O91     1.956   .     S
Cu68   O89     1.966   .     S
F69    C189    1.364   .     S
F70    C103    1.356   .     S
F71    C325    1.364   1_545 S
H74    N128    1.029   .     S
H79    O92     0.989   .     S
H80    O84     0.992   .     S
N81    H119    1.029   .     S
N81    N128    1.296   .     S
C93    O129    1.289   .     A
C93    O131    1.285   .     A
C93    C95     1.427   .     S
C94    C96     1.486   .     S
C94    C106    1.434   .     A
C94    C102    1.396   .     A
C95    C235    1.338   .     S
C95    F255    1.364   .     S
C96    O133    1.283   .     A
C96    O132    1.319   .     A
C97    C98     1.427   .     S
C97    C371    1.338   1_545 S
C97    F391    1.364   1_545 S
C98    O135    1.289   .     A
C98    O134    1.285   .     A
C99    O136    1.287   .     A
C99    O137    1.303   .     A
C99    C101    1.460   .     S
C100   C112    1.387   .     A
C100   C522    1.399   1_554 S
C100   H30     1.084   1_655 S
C101   C112    1.397   .     A
C101   C111    1.417   .     A
C102   C103    1.390   .     A
C102   H123    1.080   .     S
C103   C519    1.393   .     S
C104   C106    1.418   .     A
C104   C519    1.416   .     S
C104   C521    1.431   .     S
C105   H124    1.075   .     S
C105   C518    1.416   1_554 S
C105   C517    1.393   1_554 S
C106   C110    1.422   .     A
C107   C111    1.407   .     A
C107   C518    1.431   1_554 S
C107   C522    1.421   1_554 S
C108   C109    1.389   .     A
C108   C521    1.421   .     S
C108   C514    1.399   .     S
C109   H121    1.083   .     S
C109   C110    1.384   .     A
C110   O130    1.380   .     S
C111   O138    1.378   .     S
C112   H118    1.083   .     S
Cu113  O136    1.943   .     S
Cu113  N128    2.017   .     S
Cu113  O132    1.956   .     S
Cu113  Cu114   2.684   .     S
Cu113  O134    1.961   .     S
Cu113  O129    1.966   .     S
Cu114  N127    2.017   .     S
Cu114  O131    1.961   .     S
Cu114  O133    1.943   .     S
Cu114  O137    1.956   .     S
Cu114  O135    1.966   .     S
F115   C235    1.364   .     S
F116   C11     1.356   1_655 S
F117   C371    1.364   1_545 S
H120   N36     1.029   1_655 S
H125   O138    0.989   .     S
H126   O130    0.992   .     S
N127   H27     1.029   1_655 S
N127   N36     1.296   1_655 S
C139   O175    1.289   .     A
C139   O177    1.285   .     A
C139   C141    1.427   .     S
C140   C142    1.486   .     S
C140   C152    1.434   .     A
C140   C148    1.396   .     A
C141   C281    1.338   .     S
C141   F301    1.364   .     S
C142   O179    1.283   .     A
C142   O178    1.319   .     A
C143   C144    1.427   .     S
C144   O181    1.289   .     A
C144   O180    1.285   .     A
C145   O182    1.287   .     A
C145   O183    1.303   .     A
C145   C147    1.460   .     S
C146   C158    1.387   .     A
C146   C568    1.399   1_554 S
C146   H214    1.084   .     S
C147   C158    1.397   .     A
C147   C157    1.417   .     A
C148   C149    1.390   .     A
C148   H169    1.080   .     S
C149   C565    1.393   .     S
C149   F254    1.356   1_455 S
C150   C152    1.418   .     A
C150   C565    1.416   .     S
C150   C567    1.431   .     S
C151   H170    1.075   .     S
C151   C564    1.416   1_554 S
C151   C563    1.393   1_554 S
C152   C156    1.422   .     A
C153   C157    1.407   .     A
C153   C564    1.431   1_554 S
C153   C568    1.421   1_554 S
C154   C155    1.389   .     A
C154   C567    1.421   .     S
C154   C560    1.399   .     S
C155   H167    1.083   .     S
C155   C156    1.384   .     A
C156   O176    1.380   .     S
C157   O184    1.378   .     S
C158   H164    1.083   .     S
Cu159  O182    1.943   .     S
Cu159  N174    2.017   .     S
Cu159  O178    1.956   .     S
Cu159  Cu160   2.684   .     S
Cu159  O180    1.961   .     S
Cu159  O175    1.966   .     S
Cu160  N173    2.017   .     S
Cu160  O177    1.961   .     S
Cu160  O179    1.943   .     S
Cu160  O183    1.956   .     S
Cu160  O181    1.966   .     S
F161   C281    1.364   .     S
F162   C195    1.356   .     S
H165   N265    1.029   1_455 S
H166   N220    1.029   .     S
H168   C238    1.084   1_455 S
H171   O184    0.989   .     S
H172   O176    0.992   .     S
N173   H211    1.029   .     S
N173   N220    1.296   .     S
N174   N265    1.296   1_455 S
N174   H258    1.029   1_455 S
C185   O221    1.289   .     A
C185   O223    1.285   .     A
C185   C187    1.427   .     S
C186   C188    1.486   .     S
C186   C198    1.434   .     A
C186   C194    1.396   .     A
C187   C327    1.338   .     S
C187   F347    1.364   .     S
C188   O225    1.283   .     A
C188   O224    1.319   .     A
C189   C190    1.427   .     S
C190   O227    1.289   .     A
C190   O226    1.285   .     A
C191   O228    1.287   .     A
C191   O229    1.303   .     A
C191   C193    1.460   .     S
C192   C204    1.387   .     A
C192   C614    1.399   1_554 S
C192   H260    1.084   .     S
C193   C204    1.397   .     A
C193   C203    1.417   .     A
C194   C195    1.390   .     A
C194   H215    1.080   .     S
C195   C611    1.393   .     S
C196   C198    1.418   .     A
C196   C611    1.416   .     S
C196   C613    1.431   .     S
C197   H216    1.075   .     S
C197   C610    1.416   1_554 S
C197   C609    1.393   1_554 S
C198   C202    1.422   .     A
C199   C203    1.407   .     A
C199   C610    1.431   1_554 S
C199   C614    1.421   1_554 S
C200   C201    1.389   .     A
C200   C613    1.421   .     S
C200   C606    1.399   .     S
C201   H213    1.083   .     S
C201   C202    1.384   .     A
C202   O222    1.380   .     S
C203   O230    1.378   .     S
C204   H210    1.083   .     S
Cu205  O228    1.943   .     S
Cu205  N220    2.017   .     S
Cu205  O224    1.956   .     S
Cu205  Cu206   2.684   .     S
Cu205  O226    1.961   .     S
Cu205  O221    1.966   .     S
Cu206  N219    2.017   .     S
Cu206  O223    1.961   .     S
Cu206  O225    1.943   .     S
Cu206  O229    1.956   .     S
Cu206  O227    1.966   .     S
F207   C327    1.364   .     S
F208   C241    1.356   .     S
H212   N266    1.029   .     S
H217   O230    0.989   .     S
H218   O222    0.992   .     S
N219   H257    1.029   .     S
N219   N266    1.296   .     S
C231   O267    1.289   .     A
C231   O269    1.285   .     A
C231   C233    1.427   .     S
C232   C234    1.486   .     S
C232   C244    1.434   .     A
C232   C240    1.396   .     A
C233   C373    1.338   .     S
C233   F393    1.364   .     S
C234   O271    1.283   .     A
C234   O270    1.319   .     A
C235   C236    1.427   .     S
C236   O273    1.289   .     A
C236   O272    1.285   .     A
C237   O274    1.287   .     A
C237   O275    1.303   .     A
C237   C239    1.460   .     S
C238   C250    1.387   .     A
C238   C660    1.399   1_554 S
C238   H168    1.084   1_655 S
C239   C250    1.397   .     A
C239   C249    1.417   .     A
C240   C241    1.390   .     A
C240   H261    1.080   .     S
C241   C657    1.393   .     S
C242   C244    1.418   .     A
C242   C657    1.416   .     S
C242   C659    1.431   .     S
C243   H262    1.075   .     S
C243   C656    1.416   1_554 S
C243   C655    1.393   1_554 S
C244   C248    1.422   .     A
C245   C249    1.407   .     A
C245   C656    1.431   1_554 S
C245   C660    1.421   1_554 S
C246   C247    1.389   .     A
C246   C659    1.421   .     S
C246   C652    1.399   .     S
C247   H259    1.083   .     S
C247   C248    1.384   .     A
C248   O268    1.380   .     S
C249   O276    1.378   .     S
C250   H256    1.083   .     S
Cu251  O274    1.943   .     S
Cu251  N266    2.017   .     S
Cu251  O270    1.956   .     S
Cu251  Cu252   2.684   .     S
Cu251  O272    1.961   .     S
Cu251  O267    1.966   .     S
Cu252  N265    2.017   .     S
Cu252  O269    1.961   .     S
Cu252  O271    1.943   .     S
Cu252  O275    1.956   .     S
Cu252  O273    1.966   .     S
F253   C373    1.364   .     S
F254   C149    1.356   1_655 S
H258   N174    1.029   1_655 S
H263   O276    0.989   .     S
H264   O268    0.992   .     S
N265   H165    1.029   1_655 S
N265   N174    1.296   1_655 S
C277   O313    1.289   .     A
C277   O315    1.285   .     A
C277   C279    1.427   .     S
C278   C280    1.486   .     S
C278   C290    1.434   .     A
C278   C286    1.396   .     A
C279   C5      1.338   1_565 S
C279   F25     1.364   1_565 S
C280   O317    1.283   .     A
C280   O316    1.319   .     A
C281   C282    1.427   .     S
C282   O319    1.289   .     A
C282   O318    1.285   .     A
C283   O320    1.287   .     A
C283   O321    1.303   .     A
C283   C285    1.460   .     S
C284   C296    1.387   .     A
C284   C706    1.399   1_554 S
C284   H352    1.084   .     S
C285   C296    1.397   .     A
C285   C295    1.417   .     A
C286   C287    1.390   .     A
C286   H307    1.080   .     S
C287   C703    1.393   .     S
C287   F392    1.356   1_455 S
C288   C290    1.418   .     A
C288   C703    1.416   .     S
C288   C705    1.431   .     S
C289   H308    1.075   .     S
C289   C702    1.416   1_554 S
C289   C701    1.393   1_554 S
C290   C294    1.422   .     A
C291   C295    1.407   .     A
C291   C702    1.431   1_554 S
C291   C706    1.421   1_554 S
C292   C293    1.389   .     A
C292   C705    1.421   .     S
C292   C698    1.399   .     S
C293   H305    1.083   .     S
C293   C294    1.384   .     A
C294   O314    1.380   .     S
C295   O322    1.378   .     S
C296   H302    1.083   .     S
Cu297  O320    1.943   .     S
Cu297  N312    2.017   .     S
Cu297  O316    1.956   .     S
Cu297  Cu298   2.684   .     S
Cu297  O318    1.961   .     S
Cu297  O313    1.966   .     S
Cu298  N311    2.017   .     S
Cu298  O315    1.961   .     S
Cu298  O317    1.943   .     S
Cu298  O321    1.956   .     S
Cu298  O319    1.966   .     S
F299   C5      1.364   1_565 S
F300   C333    1.356   .     S
H303   N403    1.029   1_455 S
H304   N358    1.029   .     S
H306   C376    1.084   1_455 S
H309   O322    0.989   .     S
H310   O314    0.992   .     S
N311   H349    1.029   .     S
N311   N358    1.296   .     S
N312   N403    1.296   1_455 S
N312   H396    1.029   1_455 S
C323   O359    1.289   .     A
C323   O361    1.285   .     A
C323   C325    1.427   .     S
C324   C326    1.486   .     S
C324   C336    1.434   .     A
C324   C332    1.396   .     A
C325   C51     1.338   1_565 S
C325   F71     1.364   1_565 S
C326   O363    1.283   .     A
C326   O362    1.319   .     A
C327   C328    1.427   .     S
C328   O365    1.289   .     A
C328   O364    1.285   .     A
C329   O366    1.287   .     A
C329   O367    1.303   .     A
C329   C331    1.460   .     S
C330   C342    1.387   .     A
C330   C752    1.399   1_554 S
C330   H398    1.084   .     S
C331   C342    1.397   .     A
C331   C341    1.417   .     A
C332   C333    1.390   .     A
C332   H353    1.080   .     S
C333   C749    1.393   .     S
C334   C336    1.418   .     A
C334   C749    1.416   .     S
C334   C751    1.431   .     S
C335   H354    1.075   .     S
C335   C748    1.416   1_554 S
C335   C747    1.393   1_554 S
C336   C340    1.422   .     A
C337   C341    1.407   .     A
C337   C748    1.431   1_554 S
C337   C752    1.421   1_554 S
C338   C339    1.389   .     A
C338   C751    1.421   .     S
C338   C744    1.399   .     S
C339   H351    1.083   .     S
C339   C340    1.384   .     A
C340   O360    1.380   .     S
C341   O368    1.378   .     S
C342   H348    1.083   .     S
Cu343  O366    1.943   .     S
Cu343  N358    2.017   .     S
Cu343  O362    1.956   .     S
Cu343  Cu344   2.684   .     S
Cu343  O364    1.961   .     S
Cu343  O359    1.966   .     S
Cu344  N357    2.017   .     S
Cu344  O361    1.961   .     S
Cu344  O363    1.943   .     S
Cu344  O367    1.956   .     S
Cu344  O365    1.966   .     S
F345   C51     1.364   1_565 S
F346   C379    1.356   .     S
H350   N404    1.029   .     S
H355   O368    0.989   .     S
H356   O360    0.992   .     S
N357   H395    1.029   .     S
N357   N404    1.296   .     S
C369   O405    1.289   .     A
C369   O407    1.285   .     A
C369   C371    1.427   .     S
C370   C372    1.486   .     S
C370   C382    1.434   .     A
C370   C378    1.396   .     A
C371   C97     1.338   1_565 S
C371   F117    1.364   1_565 S
C372   O409    1.283   .     A
C372   O408    1.319   .     A
C373   C374    1.427   .     S
C374   O411    1.289   .     A
C374   O410    1.285   .     A
C375   O412    1.287   .     A
C375   O413    1.303   .     A
C375   C377    1.460   .     S
C376   C388    1.387   .     A
C376   C798    1.399   1_554 S
C376   H306    1.084   1_655 S
C377   C388    1.397   .     A
C377   C387    1.417   .     A
C378   C379    1.390   .     A
C378   H399    1.080   .     S
C379   C795    1.393   .     S
C380   C382    1.418   .     A
C380   C795    1.416   .     S
C380   C797    1.431   .     S
C381   H400    1.075   .     S
C381   C794    1.416   1_554 S
C381   C793    1.393   1_554 S
C382   C386    1.422   .     A
C383   C387    1.407   .     A
C383   C794    1.431   1_554 S
C383   C798    1.421   1_554 S
C384   C385    1.389   .     A
C384   C797    1.421   .     S
C384   C790    1.399   .     S
C385   H397    1.083   .     S
C385   C386    1.384   .     A
C386   O406    1.380   .     S
C387   O414    1.378   .     S
C388   H394    1.083   .     S
Cu389  O412    1.943   .     S
Cu389  N404    2.017   .     S
Cu389  O408    1.956   .     S
Cu389  Cu390   2.684   .     S
Cu389  O410    1.961   .     S
Cu389  O405    1.966   .     S
Cu390  N403    2.017   .     S
Cu390  O407    1.961   .     S
Cu390  O409    1.943   .     S
Cu390  O413    1.956   .     S
Cu390  O411    1.966   .     S
F391   C97     1.364   1_565 S
F392   C287    1.356   1_655 S
H396   N312    1.029   1_655 S
H401   O414    0.989   .     S
H402   O406    0.992   .     S
N403   H303    1.029   1_655 S
N403   N312    1.296   1_655 S
C415   O451    1.289   .     A
C415   O453    1.285   .     A
C415   C417    1.427   .     S
C416   C418    1.486   .     S
C416   C428    1.434   .     A
C416   C424    1.396   .     A
C417   C557    1.338   .     S
C417   F577    1.364   .     S
C418   O455    1.283   .     A
C418   O454    1.319   .     A
C419   C420    1.427   .     S
C419   C693    1.338   1_545 S
C419   F713    1.364   1_545 S
C420   O457    1.289   .     A
C420   O456    1.285   .     A
C421   O458    1.287   .     A
C421   O459    1.303   .     A
C421   C423    1.460   .     S
C422   C434    1.387   .     A
C422   H490    1.084   .     S
C423   C434    1.397   .     A
C423   C433    1.417   .     A
C424   C425    1.390   .     A
C424   H445    1.080   .     S
C425   C13     1.393   1_556 S
C425   F530    1.356   1_455 S
C426   C428    1.418   .     A
C426   C13     1.416   1_556 S
C426   C15     1.431   1_556 S
C427   H446    1.075   .     S
C428   C432    1.422   .     A
C429   C433    1.407   .     A
C430   C431    1.389   .     A
C430   C15     1.421   1_556 S
C430   C8      1.399   1_556 S
C431   H443    1.083   .     S
C431   C432    1.384   .     A
C432   O452    1.380   .     S
C433   O460    1.378   .     S
C434   H440    1.083   .     S
Cu435  O458    1.943   .     S
Cu435  N450    2.017   .     S
Cu435  O454    1.956   .     S
Cu435  Cu436   2.684   .     S
Cu435  O456    1.961   .     S
Cu435  O451    1.966   .     S
Cu436  N449    2.017   .     S
Cu436  O453    1.961   .     S
Cu436  O455    1.943   .     S
Cu436  O459    1.956   .     S
Cu436  O457    1.966   .     S
F437   C557    1.364   .     S
F438   C471    1.356   .     S
F439   C693    1.364   1_545 S
H441   N541    1.029   1_455 S
H442   N496    1.029   .     S
H444   C514    1.084   1_455 S
H447   O460    0.989   .     S
H448   O452    0.992   .     S
N449   H487    1.029   .     S
N449   N496    1.296   .     S
N450   N541    1.296   1_455 S
N450   H534    1.029   1_455 S
C461   O497    1.289   .     A
C461   O499    1.285   .     A
C461   C463    1.427   .     S
C462   C464    1.486   .     S
C462   C474    1.434   .     A
C462   C470    1.396   .     A
C463   C603    1.338   .     S
C463   F623    1.364   .     S
C464   O501    1.283   .     A
C464   O500    1.319   .     A
C465   C466    1.427   .     S
C465   C739    1.338   1_545 S
C465   F759    1.364   1_545 S
C466   O503    1.289   .     A
C466   O502    1.285   .     A
C467   O504    1.287   .     A
C467   O505    1.303   .     A
C467   C469    1.460   .     S
C468   C480    1.387   .     A
C468   H536    1.084   .     S
C469   C480    1.397   .     A
C469   C479    1.417   .     A
C470   C471    1.390   .     A
C470   H491    1.080   .     S
C471   C59     1.393   1_556 S
C472   C474    1.418   .     A
C472   C59     1.416   1_556 S
C472   C61     1.431   1_556 S
C473   H492    1.075   .     S
C474   C478    1.422   .     A
C475   C479    1.407   .     A
C476   C477    1.389   .     A
C476   C61     1.421   1_556 S
C476   C54     1.399   1_556 S
C477   H489    1.083   .     S
C477   C478    1.384   .     A
C478   O498    1.380   .     S
C479   O506    1.378   .     S
C480   H486    1.083   .     S
Cu481  O504    1.943   .     S
Cu481  N496    2.017   .     S
Cu481  O500    1.956   .     S
Cu481  Cu482   2.684   .     S
Cu481  O502    1.961   .     S
Cu481  O497    1.966   .     S
Cu482  N495    2.017   .     S
Cu482  O499    1.961   .     S
Cu482  O501    1.943   .     S
Cu482  O505    1.956   .     S
Cu482  O503    1.966   .     S
F483   C603    1.364   .     S
F484   C517    1.356   .     S
F485   C739    1.364   1_545 S
H488   N542    1.029   .     S
H493   O506    0.989   .     S
H494   O498    0.992   .     S
N495   H533    1.029   .     S
N495   N542    1.296   .     S
C507   O543    1.289   .     A
C507   O545    1.285   .     A
C507   C509    1.427   .     S
C508   C510    1.486   .     S
C508   C520    1.434   .     A
C508   C516    1.396   .     A
C509   C649    1.338   .     S
C509   F669    1.364   .     S
C510   O547    1.283   .     A
C510   O546    1.319   .     A
C511   C512    1.427   .     S
C511   C785    1.338   1_545 S
C511   F805    1.364   1_545 S
C512   O549    1.289   .     A
C512   O548    1.285   .     A
C513   O550    1.287   .     A
C513   O551    1.303   .     A
C513   C515    1.460   .     S
C514   C526    1.387   .     A
C514   H444    1.084   1_655 S
C515   C526    1.397   .     A
C515   C525    1.417   .     A
C516   C517    1.390   .     A
C516   H537    1.080   .     S
C517   C105    1.393   1_556 S
C518   C520    1.418   .     A
C518   C105    1.416   1_556 S
C518   C107    1.431   1_556 S
C519   H538    1.075   .     S
C520   C524    1.422   .     A
C521   C525    1.407   .     A
C522   C523    1.389   .     A
C522   C107    1.421   1_556 S
C522   C100    1.399   1_556 S
C523   H535    1.083   .     S
C523   C524    1.384   .     A
C524   O544    1.380   .     S
C525   O552    1.378   .     S
C526   H532    1.083   .     S
Cu527  O550    1.943   .     S
Cu527  N542    2.017   .     S
Cu527  O546    1.956   .     S
Cu527  Cu528   2.684   .     S
Cu527  O548    1.961   .     S
Cu527  O543    1.966   .     S
Cu528  N541    2.017   .     S
Cu528  O545    1.961   .     S
Cu528  O547    1.943   .     S
Cu528  O551    1.956   .     S
Cu528  O549    1.966   .     S
F529   C649    1.364   .     S
F530   C425    1.356   1_655 S
F531   C785    1.364   1_545 S
H534   N450    1.029   1_655 S
H539   O552    0.989   .     S
H540   O544    0.992   .     S
N541   H441    1.029   1_655 S
N541   N450    1.296   1_655 S
C553   O589    1.289   .     A
C553   O591    1.285   .     A
C553   C555    1.427   .     S
C554   C556    1.486   .     S
C554   C566    1.434   .     A
C554   C562    1.396   .     A
C555   C695    1.338   .     S
C555   F715    1.364   .     S
C556   O593    1.283   .     A
C556   O592    1.319   .     A
C557   C558    1.427   .     S
C558   O595    1.289   .     A
C558   O594    1.285   .     A
C559   O596    1.287   .     A
C559   O597    1.303   .     A
C559   C561    1.460   .     S
C560   C572    1.387   .     A
C560   H628    1.084   .     S
C561   C572    1.397   .     A
C561   C571    1.417   .     A
C562   C563    1.390   .     A
C562   H583    1.080   .     S
C563   C151    1.393   1_556 S
C563   F668    1.356   1_455 S
C564   C566    1.418   .     A
C564   C151    1.416   1_556 S
C564   C153    1.431   1_556 S
C565   H584    1.075   .     S
C566   C570    1.422   .     A
C567   C571    1.407   .     A
C568   C569    1.389   .     A
C568   C153    1.421   1_556 S
C568   C146    1.399   1_556 S
C569   H581    1.083   .     S
C569   C570    1.384   .     A
C570   O590    1.380   .     S
C571   O598    1.378   .     S
C572   H578    1.083   .     S
Cu573  O596    1.943   .     S
Cu573  N588    2.017   .     S
Cu573  O592    1.956   .     S
Cu573  Cu574   2.684   .     S
Cu573  O594    1.961   .     S
Cu573  O589    1.966   .     S
Cu574  N587    2.017   .     S
Cu574  O591    1.961   .     S
Cu574  O593    1.943   .     S
Cu574  O597    1.956   .     S
Cu574  O595    1.966   .     S
F575   C695    1.364   .     S
F576   C609    1.356   .     S
H579   N679    1.029   1_455 S
H580   N634    1.029   .     S
H582   C652    1.084   1_455 S
H585   O598    0.989   .     S
H586   O590    0.992   .     S
N587   H625    1.029   .     S
N587   N634    1.296   .     S
N588   N679    1.296   1_455 S
N588   H672    1.029   1_455 S
C599   O635    1.289   .     A
C599   O637    1.285   .     A
C599   C601    1.427   .     S
C600   C602    1.486   .     S
C600   C612    1.434   .     A
C600   C608    1.396   .     A
C601   C741    1.338   .     S
C601   F761    1.364   .     S
C602   O639    1.283   .     A
C602   O638    1.319   .     A
C603   C604    1.427   .     S
C604   O641    1.289   .     A
C604   O640    1.285   .     A
C605   O642    1.287   .     A
C605   O643    1.303   .     A
C605   C607    1.460   .     S
C606   C618    1.387   .     A
C606   H674    1.084   .     S
C607   C618    1.397   .     A
C607   C617    1.417   .     A
C608   C609    1.390   .     A
C608   H629    1.080   .     S
C609   C197    1.393   1_556 S
C610   C612    1.418   .     A
C610   C197    1.416   1_556 S
C610   C199    1.431   1_556 S
C611   H630    1.075   .     S
C612   C616    1.422   .     A
C613   C617    1.407   .     A
C614   C615    1.389   .     A
C614   C199    1.421   1_556 S
C614   C192    1.399   1_556 S
C615   H627    1.083   .     S
C615   C616    1.384   .     A
C616   O636    1.380   .     S
C617   O644    1.378   .     S
C618   H624    1.083   .     S
Cu619  O642    1.943   .     S
Cu619  N634    2.017   .     S
Cu619  O638    1.956   .     S
Cu619  Cu620   2.684   .     S
Cu619  O640    1.961   .     S
Cu619  O635    1.966   .     S
Cu620  N633    2.017   .     S
Cu620  O637    1.961   .     S
Cu620  O639    1.943   .     S
Cu620  O643    1.956   .     S
Cu620  O641    1.966   .     S
F621   C741    1.364   .     S
F622   C655    1.356   .     S
H626   N680    1.029   .     S
H631   O644    0.989   .     S
H632   O636    0.992   .     S
N633   H671    1.029   .     S
N633   N680    1.296   .     S
C645   O681    1.289   .     A
C645   O683    1.285   .     A
C645   C647    1.427   .     S
C646   C648    1.486   .     S
C646   C658    1.434   .     A
C646   C654    1.396   .     A
C647   C787    1.338   .     S
C647   F807    1.364   .     S
C648   O685    1.283   .     A
C648   O684    1.319   .     A
C649   C650    1.427   .     S
C650   O687    1.289   .     A
C650   O686    1.285   .     A
C651   O688    1.287   .     A
C651   O689    1.303   .     A
C651   C653    1.460   .     S
C652   C664    1.387   .     A
C652   H582    1.084   1_655 S
C653   C664    1.397   .     A
C653   C663    1.417   .     A
C654   C655    1.390   .     A
C654   H675    1.080   .     S
C655   C243    1.393   1_556 S
C656   C658    1.418   .     A
C656   C243    1.416   1_556 S
C656   C245    1.431   1_556 S
C657   H676    1.075   .     S
C658   C662    1.422   .     A
C659   C663    1.407   .     A
C660   C661    1.389   .     A
C660   C245    1.421   1_556 S
C660   C238    1.399   1_556 S
C661   H673    1.083   .     S
C661   C662    1.384   .     A
C662   O682    1.380   .     S
C663   O690    1.378   .     S
C664   H670    1.083   .     S
Cu665  O688    1.943   .     S
Cu665  N680    2.017   .     S
Cu665  O684    1.956   .     S
Cu665  Cu666   2.684   .     S
Cu665  O686    1.961   .     S
Cu665  O681    1.966   .     S
Cu666  N679    2.017   .     S
Cu666  O683    1.961   .     S
Cu666  O685    1.943   .     S
Cu666  O689    1.956   .     S
Cu666  O687    1.966   .     S
F667   C787    1.364   .     S
F668   C563    1.356   1_655 S
H672   N588    1.029   1_655 S
H677   O690    0.989   .     S
H678   O682    0.992   .     S
N679   H579    1.029   1_655 S
N679   N588    1.296   1_655 S
C691   O727    1.289   .     A
C691   O729    1.285   .     A
C691   C693    1.427   .     S
C692   C694    1.486   .     S
C692   C704    1.434   .     A
C692   C700    1.396   .     A
C693   C419    1.338   1_565 S
C693   F439    1.364   1_565 S
C694   O731    1.283   .     A
C694   O730    1.319   .     A
C695   C696    1.427   .     S
C696   O733    1.289   .     A
C696   O732    1.285   .     A
C697   O734    1.287   .     A
C697   O735    1.303   .     A
C697   C699    1.460   .     S
C698   C710    1.387   .     A
C698   H766    1.084   .     S
C699   C710    1.397   .     A
C699   C709    1.417   .     A
C700   C701    1.390   .     A
C700   H721    1.080   .     S
C701   C289    1.393   1_556 S
C701   F806    1.356   1_455 S
C702   C704    1.418   .     A
C702   C289    1.416   1_556 S
C702   C291    1.431   1_556 S
C703   H722    1.075   .     S
C704   C708    1.422   .     A
C705   C709    1.407   .     A
C706   C707    1.389   .     A
C706   C291    1.421   1_556 S
C706   C284    1.399   1_556 S
C707   H719    1.083   .     S
C707   C708    1.384   .     A
C708   O728    1.380   .     S
C709   O736    1.378   .     S
C710   H716    1.083   .     S
Cu711  O734    1.943   .     S
Cu711  N726    2.017   .     S
Cu711  O730    1.956   .     S
Cu711  Cu712   2.684   .     S
Cu711  O732    1.961   .     S
Cu711  O727    1.966   .     S
Cu712  N725    2.017   .     S
Cu712  O729    1.961   .     S
Cu712  O731    1.943   .     S
Cu712  O735    1.956   .     S
Cu712  O733    1.966   .     S
F713   C419    1.364   1_565 S
F714   C747    1.356   .     S
H717   N817    1.029   1_455 S
H718   N772    1.029   .     S
H720   C790    1.084   1_455 S
H723   O736    0.989   .     S
H724   O728    0.992   .     S
N725   H763    1.029   .     S
N725   N772    1.296   .     S
N726   N817    1.296   1_455 S
N726   H810    1.029   1_455 S
C737   O773    1.289   .     A
C737   O775    1.285   .     A
C737   C739    1.427   .     S
C738   C740    1.486   .     S
C738   C750    1.434   .     A
C738   C746    1.396   .     A
C739   C465    1.338   1_565 S
C739   F485    1.364   1_565 S
C740   O777    1.283   .     A
C740   O776    1.319   .     A
C741   C742    1.427   .     S
C742   O779    1.289   .     A
C742   O778    1.285   .     A
C743   O780    1.287   .     A
C743   O781    1.303   .     A
C743   C745    1.460   .     S
C744   C756    1.387   .     A
C744   H812    1.084   .     S
C745   C756    1.397   .     A
C745   C755    1.417   .     A
C746   C747    1.390   .     A
C746   H767    1.080   .     S
C747   C335    1.393   1_556 S
C748   C750    1.418   .     A
C748   C335    1.416   1_556 S
C748   C337    1.431   1_556 S
C749   H768    1.075   .     S
C750   C754    1.422   .     A
C751   C755    1.407   .     A
C752   C753    1.389   .     A
C752   C337    1.421   1_556 S
C752   C330    1.399   1_556 S
C753   H765    1.083   .     S
C753   C754    1.384   .     A
C754   O774    1.380   .     S
C755   O782    1.378   .     S
C756   H762    1.083   .     S
Cu757  O780    1.943   .     S
Cu757  N772    2.017   .     S
Cu757  O776    1.956   .     S
Cu757  Cu758   2.684   .     S
Cu757  O778    1.961   .     S
Cu757  O773    1.966   .     S
Cu758  N771    2.017   .     S
Cu758  O775    1.961   .     S
Cu758  O777    1.943   .     S
Cu758  O781    1.956   .     S
Cu758  O779    1.966   .     S
F759   C465    1.364   1_565 S
F760   C793    1.356   .     S
H764   N818    1.029   .     S
H769   O782    0.989   .     S
H770   O774    0.992   .     S
N771   H809    1.029   .     S
N771   N818    1.296   .     S
C783   O819    1.289   .     A
C783   O821    1.285   .     A
C783   C785    1.427   .     S
C784   C786    1.486   .     S
C784   C796    1.434   .     A
C784   C792    1.396   .     A
C785   C511    1.338   1_565 S
C785   F531    1.364   1_565 S
C786   O823    1.283   .     A
C786   O822    1.319   .     A
C787   C788    1.427   .     S
C788   O825    1.289   .     A
C788   O824    1.285   .     A
C789   O826    1.287   .     A
C789   O827    1.303   .     A
C789   C791    1.460   .     S
C790   C802    1.387   .     A
C790   H720    1.084   1_655 S
C791   C802    1.397   .     A
C791   C801    1.417   .     A
C792   C793    1.390   .     A
C792   H813    1.080   .     S
C793   C381    1.393   1_556 S
C794   C796    1.418   .     A
C794   C381    1.416   1_556 S
C794   C383    1.431   1_556 S
C795   H814    1.075   .     S
C796   C800    1.422   .     A
C797   C801    1.407   .     A
C798   C799    1.389   .     A
C798   C383    1.421   1_556 S
C798   C376    1.399   1_556 S
C799   H811    1.083   .     S
C799   C800    1.384   .     A
C800   O820    1.380   .     S
C801   O828    1.378   .     S
C802   H808    1.083   .     S
Cu803  O826    1.943   .     S
Cu803  N818    2.017   .     S
Cu803  O822    1.956   .     S
Cu803  Cu804   2.684   .     S
Cu803  O824    1.961   .     S
Cu803  O819    1.966   .     S
Cu804  N817    2.017   .     S
Cu804  O821    1.961   .     S
Cu804  O823    1.943   .     S
Cu804  O827    1.956   .     S
Cu804  O825    1.966   .     S
F805   C511    1.364   1_565 S
F806   C701    1.356   1_655 S
H810   N726    1.029   1_655 S
H815   O828    0.989   .     S
H816   O820    0.992   .     S
N817   H717    1.029   1_655 S
N817   N726    1.296   1_655 S
