data_str_m2_o1_o18_pcu_sym.42
_audit_creation_date              2020-01-03
_audit_creation_method            'Materials Studio'
_symmetry_space_group_name_H-M    'P1'
_symmetry_Int_Tables_number       1
_symmetry_cell_setting            triclinic
loop_
_symmetry_equiv_pos_as_xyz
  x,y,z
_cell_length_a                    28.7368
_cell_length_b                    32.5693
_cell_length_c                    30.9277
_cell_angle_alpha                 91.0466
_cell_angle_beta                  74.5611
_cell_angle_gamma                 87.4807
loop_
_atom_site_label
_atom_site_type_symbol
_atom_site_fract_x
_atom_site_fract_y
_atom_site_fract_z
_atom_site_U_iso_or_equiv
_atom_site_adp_type
_atom_site_occupancy
C1     C     0.00137   0.08744   0.24888   0.00000  Uiso   1.00
C2     C     0.03635   0.01841   0.21682   0.00000  Uiso   1.00
C3     C     0.33027   0.29060   0.24926   0.00000  Uiso   1.00
C4     C     0.00306   0.04273   0.25074   0.00000  Uiso   1.00
C5     C     0.18706   0.13799   0.27256   0.00000  Uiso   1.00
C6     C     0.14627   0.19534   0.22744   0.00000  Uiso   1.00
C7     C     0.13775   0.13743   0.27262   0.00000  Uiso   1.00
C8     C     0.19558   0.19591   0.22738   0.00000  Uiso   1.00
C9     C     0.30608   0.16684   0.33614   0.00000  Uiso   1.00
C10    C     0.02725   0.16650   0.16386   0.00000  Uiso   1.00
C11    C     0.29091   0.16439   0.38547   0.00000  Uiso   1.00
C12    C     0.33196   0.24589   0.25112   0.00000  Uiso   1.00
C13    C     0.04243   0.16894   0.11453   0.00000  Uiso   1.00
C14    C     0.30605   0.14114   0.45460   0.00000  Uiso   1.00
C15    C     0.02728   0.19219   0.04540   0.00000  Uiso   1.00
C16    C     0.32174   0.14559   0.40835   0.00000  Uiso   1.00
C17    C     0.01159   0.18774   0.09165   0.00000  Uiso   1.00
C18    C     0.24426   0.17945   0.40982   0.00000  Uiso   1.00
C19    C     0.08907   0.15388   0.09018   0.00000  Uiso   1.00
C20    C     0.22487   0.16666   0.45422   0.00000  Uiso   1.00
C21    C     0.10846   0.16667   0.04578   0.00000  Uiso   1.00
C22    C     0.25779   0.15126   0.47764   0.00000  Uiso   1.00
C23    C     0.19434   0.15638   0.04687   0.00000  Uiso   1.00
C24    C     0.07555   0.18208   0.02236   0.00000  Uiso   1.00
C25    C     0.17444   0.16978   0.47655   0.00000  Uiso   1.00
C26    C     0.15889   0.16356   0.02345   0.00000  Uiso   1.00
C27    C     0.10998   0.11572   0.10658   0.00000  Uiso   1.00
C28    C     0.22336   0.21761   0.39342   0.00000  Uiso   1.00
C29    C     0.27030   0.04976   0.32504   0.00000  Uiso   1.00
C30    C     0.06304   0.28357   0.17496   0.00000  Uiso   1.00
C31    C     0.25630   0.29663   0.31806   0.00000  Uiso   1.00
C32    C     0.07703   0.03670   0.18194   0.00000  Uiso   1.00
C33    C     0.11029   0.10245   0.29641   0.00000  Uiso   1.00
C34    C     0.13899   0.17696   0.45313   0.00000  Uiso   1.00
C35    C     0.22304   0.23088   0.20359   0.00000  Uiso   1.00
C36    C     0.24249   0.14776   0.02406   0.00000  Uiso   1.00
C37    C     0.09084   0.18557   0.47594   0.00000  Uiso   1.00
C38    C     0.30158   0.02435   0.28503   0.00000  Uiso   1.00
C39    C     0.03175   0.30898   0.21497   0.00000  Uiso   1.00
C40    C     0.29698   0.31492   0.28318   0.00000  Uiso   1.00
Cu41   Cu    0.04689   0.16667   0.25000   0.00000  Uiso   1.00
Cu42   Cu    0.28645   0.16666   0.25000   0.00000  Uiso   1.00
H43    H     0.26809   0.13932   0.04296   0.00000  Uiso   1.00
H44    H     0.12662   0.12313   0.13409   0.00000  Uiso   1.00
H45    H     0.08028   0.09483   0.11843   0.00000  Uiso   1.00
H46    H     0.20671   0.21021   0.36591   0.00000  Uiso   1.00
H47    H     0.19659   0.23517   0.42076   0.00000  Uiso   1.00
H48    H     0.25306   0.23851   0.38157   0.00000  Uiso   1.00
H49    H     0.18534   0.15683   0.08305   0.00000  Uiso   1.00
H50    H     0.14800   0.17651   0.41695   0.00000  Uiso   1.00
H51    H     0.23198   0.05085   0.32394   0.00000  Uiso   1.00
H52    H     0.27322   0.03619   0.35689   0.00000  Uiso   1.00
H53    H     0.28142   0.08164   0.32712   0.00000  Uiso   1.00
H54    H     0.06524   0.19401   0.45704   0.00000  Uiso   1.00
H55    H     0.10136   0.28248   0.17606   0.00000  Uiso   1.00
H56    H     0.05191   0.25169   0.17288   0.00000  Uiso   1.00
H57    H     0.06012   0.29714   0.14311   0.00000  Uiso   1.00
H58    H     0.25282   0.26352   0.31350   0.00000  Uiso   1.00
H59    H     0.26161   0.30176   0.35191   0.00000  Uiso   1.00
H60    H     0.22118   0.31159   0.31699   0.00000  Uiso   1.00
H61    H     0.08051   0.06981   0.18650   0.00000  Uiso   1.00
H62    H     0.11216   0.02175   0.18301   0.00000  Uiso   1.00
H63    H     0.07173   0.03158   0.14809   0.00000  Uiso   1.00
H64    H     0.07417   0.11268   0.31717   0.00000  Uiso   1.00
H65    H     0.30846   0.19826   0.10929   0.00000  Uiso   1.00
H66    H     0.10819   0.07809   0.27158   0.00000  Uiso   1.00
H67    H     0.12903   0.08794   0.31982   0.00000  Uiso   1.00
H68    H     0.25917   0.22066   0.18283   0.00000  Uiso   1.00
H69    H     0.20431   0.24539   0.18018   0.00000  Uiso   1.00
H70    H     0.22514   0.25524   0.22842   0.00000  Uiso   1.00
H71    H     0.02487   0.13507   0.39071   0.00000  Uiso   1.00
H72    H     0.33121   0.12858   0.47214   0.00000  Uiso   1.00
H73    H     0.00213   0.20476   0.02786   0.00000  Uiso   1.00
H74    H     0.20246   0.11512   0.29036   0.00000  Uiso   1.00
H75    H     0.13087   0.21821   0.20964   0.00000  Uiso   1.00
H76    H     0.13674   0.09816   0.07924   0.00000  Uiso   1.00
N77    N     0.11736   0.16668   0.24999   0.00000  Uiso   1.00
N78    N     0.21597   0.16666   0.25001   0.00000  Uiso   1.00
O79    O     0.03958   0.10655   0.25000   0.00000  Uiso   1.00
O80    O     0.29375   0.22678   0.25000   0.00000  Uiso   1.00
O81    O     0.29372   0.10654   0.25001   0.00000  Uiso   1.00
O82    O     0.03961   0.22679   0.24999   0.00000  Uiso   1.00
O83    O     0.01852   0.16668   0.31491   0.00000  Uiso   1.00
O84    O     0.31481   0.16666   0.18509   0.00000  Uiso   1.00
O85    O     0.27267   0.16667   0.31492   0.00000  Uiso   1.00
O86    O     0.06067   0.16667   0.18508   0.00000  Uiso   1.00
C87    C     0.33471   0.08744   0.24888   0.00000  Uiso   1.00
C88    C     0.36968   0.01841   0.21682   0.00000  Uiso   1.00
C89    C     0.66360   0.29060   0.24926   0.00000  Uiso   1.00
C90    C     0.33640   0.04273   0.25074   0.00000  Uiso   1.00
C91    C     0.52039   0.13799   0.27256   0.00000  Uiso   1.00
C92    C     0.47961   0.19534   0.22744   0.00000  Uiso   1.00
C93    C     0.47109   0.13743   0.27262   0.00000  Uiso   1.00
C94    C     0.52891   0.19591   0.22738   0.00000  Uiso   1.00
C95    C     0.63941   0.16684   0.33614   0.00000  Uiso   1.00
C96    C     0.36059   0.16650   0.16386   0.00000  Uiso   1.00
C97    C     0.62424   0.16439   0.38547   0.00000  Uiso   1.00
C98    C     0.66529   0.24589   0.25112   0.00000  Uiso   1.00
C99    C     0.37576   0.16894   0.11453   0.00000  Uiso   1.00
C100   C     0.63939   0.14114   0.45460   0.00000  Uiso   1.00
C101   C     0.36061   0.19219   0.04540   0.00000  Uiso   1.00
C102   C     0.65507   0.14559   0.40835   0.00000  Uiso   1.00
C103   C     0.34493   0.18774   0.09165   0.00000  Uiso   1.00
C104   C     0.57759   0.17945   0.40982   0.00000  Uiso   1.00
C105   C     0.42241   0.15388   0.09018   0.00000  Uiso   1.00
C106   C     0.55820   0.16666   0.45422   0.00000  Uiso   1.00
C107   C     0.44180   0.16667   0.04578   0.00000  Uiso   1.00
C108   C     0.59112   0.15126   0.47764   0.00000  Uiso   1.00
C109   C     0.52768   0.15638   0.04687   0.00000  Uiso   1.00
C110   C     0.40888   0.18208   0.02236   0.00000  Uiso   1.00
C111   C     0.50777   0.16978   0.47655   0.00000  Uiso   1.00
C112   C     0.49223   0.16356   0.02345   0.00000  Uiso   1.00
C113   C     0.44331   0.11572   0.10658   0.00000  Uiso   1.00
C114   C     0.55669   0.21761   0.39342   0.00000  Uiso   1.00
C115   C     0.60363   0.04976   0.32504   0.00000  Uiso   1.00
C116   C     0.39637   0.28357   0.17496   0.00000  Uiso   1.00
C117   C     0.58963   0.29663   0.31806   0.00000  Uiso   1.00
C118   C     0.41037   0.03670   0.18194   0.00000  Uiso   1.00
C119   C     0.44362   0.10245   0.29641   0.00000  Uiso   1.00
C120   C     0.47232   0.17696   0.45313   0.00000  Uiso   1.00
C121   C     0.55638   0.23088   0.20359   0.00000  Uiso   1.00
C122   C     0.57583   0.14776   0.02406   0.00000  Uiso   1.00
C123   C     0.42417   0.18557   0.47594   0.00000  Uiso   1.00
C124   C     0.63492   0.02435   0.28503   0.00000  Uiso   1.00
C125   C     0.36508   0.30898   0.21497   0.00000  Uiso   1.00
C126   C     0.63032   0.31492   0.28318   0.00000  Uiso   1.00
Cu127  Cu    0.38022   0.16667   0.25000   0.00000  Uiso   1.00
Cu128  Cu    0.61978   0.16666   0.25000   0.00000  Uiso   1.00
H129   H     0.60142   0.13932   0.04296   0.00000  Uiso   1.00
H130   H     0.45995   0.12313   0.13409   0.00000  Uiso   1.00
H131   H     0.41361   0.09483   0.11843   0.00000  Uiso   1.00
H132   H     0.54005   0.21021   0.36591   0.00000  Uiso   1.00
H133   H     0.52992   0.23517   0.42076   0.00000  Uiso   1.00
H134   H     0.58639   0.23851   0.38157   0.00000  Uiso   1.00
H135   H     0.51867   0.15683   0.08305   0.00000  Uiso   1.00
H136   H     0.48133   0.17651   0.41695   0.00000  Uiso   1.00
H137   H     0.56531   0.05085   0.32394   0.00000  Uiso   1.00
H138   H     0.60656   0.03619   0.35689   0.00000  Uiso   1.00
H139   H     0.61475   0.08164   0.32712   0.00000  Uiso   1.00
H140   H     0.39858   0.19401   0.45704   0.00000  Uiso   1.00
H141   H     0.43469   0.28248   0.17606   0.00000  Uiso   1.00
H142   H     0.38525   0.25169   0.17288   0.00000  Uiso   1.00
H143   H     0.39345   0.29714   0.14311   0.00000  Uiso   1.00
H144   H     0.58615   0.26352   0.31350   0.00000  Uiso   1.00
H145   H     0.59494   0.30176   0.35191   0.00000  Uiso   1.00
H146   H     0.55451   0.31159   0.31699   0.00000  Uiso   1.00
H147   H     0.41385   0.06981   0.18650   0.00000  Uiso   1.00
H148   H     0.44549   0.02175   0.18301   0.00000  Uiso   1.00
H149   H     0.40506   0.03158   0.14809   0.00000  Uiso   1.00
H150   H     0.40750   0.11268   0.31717   0.00000  Uiso   1.00
H151   H     0.64179   0.19826   0.10929   0.00000  Uiso   1.00
H152   H     0.44152   0.07809   0.27158   0.00000  Uiso   1.00
H153   H     0.46236   0.08794   0.31982   0.00000  Uiso   1.00
H154   H     0.59250   0.22066   0.18283   0.00000  Uiso   1.00
H155   H     0.53764   0.24539   0.18018   0.00000  Uiso   1.00
H156   H     0.55848   0.25524   0.22842   0.00000  Uiso   1.00
H157   H     0.35821   0.13507   0.39071   0.00000  Uiso   1.00
H158   H     0.66454   0.12858   0.47214   0.00000  Uiso   1.00
H159   H     0.33546   0.20476   0.02786   0.00000  Uiso   1.00
H160   H     0.53580   0.11512   0.29036   0.00000  Uiso   1.00
H161   H     0.46420   0.21821   0.20964   0.00000  Uiso   1.00
H162   H     0.47008   0.09816   0.07924   0.00000  Uiso   1.00
N163   N     0.45069   0.16668   0.24999   0.00000  Uiso   1.00
N164   N     0.54931   0.16666   0.25001   0.00000  Uiso   1.00
O165   O     0.37291   0.10655   0.25000   0.00000  Uiso   1.00
O166   O     0.62709   0.22678   0.25000   0.00000  Uiso   1.00
O167   O     0.62706   0.10654   0.25001   0.00000  Uiso   1.00
O168   O     0.37294   0.22679   0.24999   0.00000  Uiso   1.00
O169   O     0.35186   0.16668   0.31491   0.00000  Uiso   1.00
O170   O     0.64814   0.16666   0.18509   0.00000  Uiso   1.00
O171   O     0.60600   0.16667   0.31492   0.00000  Uiso   1.00
O172   O     0.39400   0.16667   0.18508   0.00000  Uiso   1.00
C173   C     0.66804   0.08744   0.24888   0.00000  Uiso   1.00
C174   C     0.70302   0.01841   0.21682   0.00000  Uiso   1.00
C175   C     0.99694   0.29060   0.24926   0.00000  Uiso   1.00
C176   C     0.66973   0.04273   0.25074   0.00000  Uiso   1.00
C177   C     0.85373   0.13799   0.27256   0.00000  Uiso   1.00
C178   C     0.81294   0.19534   0.22744   0.00000  Uiso   1.00
C179   C     0.80442   0.13743   0.27262   0.00000  Uiso   1.00
C180   C     0.86225   0.19591   0.22738   0.00000  Uiso   1.00
C181   C     0.97275   0.16684   0.33614   0.00000  Uiso   1.00
C182   C     0.69392   0.16650   0.16386   0.00000  Uiso   1.00
C183   C     0.95757   0.16439   0.38547   0.00000  Uiso   1.00
C184   C     0.99863   0.24589   0.25112   0.00000  Uiso   1.00
C185   C     0.70909   0.16894   0.11453   0.00000  Uiso   1.00
C186   C     0.97272   0.14114   0.45460   0.00000  Uiso   1.00
C187   C     0.69395   0.19219   0.04540   0.00000  Uiso   1.00
C188   C     0.98840   0.14559   0.40835   0.00000  Uiso   1.00
C189   C     0.67826   0.18774   0.09165   0.00000  Uiso   1.00
C190   C     0.91093   0.17945   0.40982   0.00000  Uiso   1.00
C191   C     0.75574   0.15388   0.09018   0.00000  Uiso   1.00
C192   C     0.89154   0.16666   0.45422   0.00000  Uiso   1.00
C193   C     0.77513   0.16667   0.04578   0.00000  Uiso   1.00
C194   C     0.92445   0.15126   0.47764   0.00000  Uiso   1.00
C195   C     0.86101   0.15638   0.04687   0.00000  Uiso   1.00
C196   C     0.74221   0.18208   0.02236   0.00000  Uiso   1.00
C197   C     0.84111   0.16978   0.47655   0.00000  Uiso   1.00
C198   C     0.82556   0.16356   0.02345   0.00000  Uiso   1.00
C199   C     0.77664   0.11572   0.10658   0.00000  Uiso   1.00
C200   C     0.89002   0.21761   0.39342   0.00000  Uiso   1.00
C201   C     0.93696   0.04976   0.32504   0.00000  Uiso   1.00
C202   C     0.72970   0.28357   0.17496   0.00000  Uiso   1.00
C203   C     0.92297   0.29663   0.31806   0.00000  Uiso   1.00
C204   C     0.74370   0.03670   0.18194   0.00000  Uiso   1.00
C205   C     0.77695   0.10245   0.29641   0.00000  Uiso   1.00
C206   C     0.80566   0.17696   0.45313   0.00000  Uiso   1.00
C207   C     0.88971   0.23088   0.20359   0.00000  Uiso   1.00
C208   C     0.90916   0.14776   0.02406   0.00000  Uiso   1.00
C209   C     0.75750   0.18557   0.47594   0.00000  Uiso   1.00
C210   C     0.96825   0.02435   0.28503   0.00000  Uiso   1.00
C211   C     0.69842   0.30898   0.21497   0.00000  Uiso   1.00
C212   C     0.96365   0.31492   0.28318   0.00000  Uiso   1.00
Cu213  Cu    0.71355   0.16667   0.25000   0.00000  Uiso   1.00
Cu214  Cu    0.95311   0.16666   0.25000   0.00000  Uiso   1.00
H215   H     0.93476   0.13932   0.04296   0.00000  Uiso   1.00
H216   H     0.79329   0.12313   0.13409   0.00000  Uiso   1.00
H217   H     0.74694   0.09483   0.11843   0.00000  Uiso   1.00
H218   H     0.87338   0.21021   0.36591   0.00000  Uiso   1.00
H219   H     0.86325   0.23517   0.42076   0.00000  Uiso   1.00
H220   H     0.91972   0.23851   0.38157   0.00000  Uiso   1.00
H221   H     0.85200   0.15683   0.08305   0.00000  Uiso   1.00
H222   H     0.81466   0.17651   0.41695   0.00000  Uiso   1.00
H223   H     0.89864   0.05085   0.32394   0.00000  Uiso   1.00
H224   H     0.93989   0.03619   0.35689   0.00000  Uiso   1.00
H225   H     0.94809   0.08164   0.32712   0.00000  Uiso   1.00
H226   H     0.73191   0.19401   0.45704   0.00000  Uiso   1.00
H227   H     0.76802   0.28248   0.17606   0.00000  Uiso   1.00
H228   H     0.71858   0.25169   0.17288   0.00000  Uiso   1.00
H229   H     0.72678   0.29714   0.14311   0.00000  Uiso   1.00
H230   H     0.91949   0.26352   0.31350   0.00000  Uiso   1.00
H231   H     0.92827   0.30176   0.35191   0.00000  Uiso   1.00
H232   H     0.88784   0.31159   0.31699   0.00000  Uiso   1.00
H233   H     0.74718   0.06981   0.18650   0.00000  Uiso   1.00
H234   H     0.77882   0.02175   0.18301   0.00000  Uiso   1.00
H235   H     0.73839   0.03158   0.14809   0.00000  Uiso   1.00
H236   H     0.74083   0.11268   0.31717   0.00000  Uiso   1.00
H237   H     0.97513   0.19826   0.10929   0.00000  Uiso   1.00
H238   H     0.77486   0.07809   0.27158   0.00000  Uiso   1.00
H239   H     0.79569   0.08794   0.31982   0.00000  Uiso   1.00
H240   H     0.92583   0.22066   0.18283   0.00000  Uiso   1.00
H241   H     0.87097   0.24539   0.18018   0.00000  Uiso   1.00
H242   H     0.89181   0.25524   0.22842   0.00000  Uiso   1.00
H243   H     0.69154   0.13507   0.39071   0.00000  Uiso   1.00
H244   H     0.99787   0.12858   0.47214   0.00000  Uiso   1.00
H245   H     0.66879   0.20476   0.02786   0.00000  Uiso   1.00
H246   H     0.86913   0.11512   0.29036   0.00000  Uiso   1.00
H247   H     0.79754   0.21821   0.20964   0.00000  Uiso   1.00
H248   H     0.80341   0.09816   0.07924   0.00000  Uiso   1.00
N249   N     0.78403   0.16668   0.24999   0.00000  Uiso   1.00
N250   N     0.88264   0.16666   0.25001   0.00000  Uiso   1.00
O251   O     0.70625   0.10655   0.25000   0.00000  Uiso   1.00
O252   O     0.96042   0.22678   0.25000   0.00000  Uiso   1.00
O253   O     0.96039   0.10654   0.25001   0.00000  Uiso   1.00
O254   O     0.70628   0.22679   0.24999   0.00000  Uiso   1.00
O255   O     0.68519   0.16668   0.31491   0.00000  Uiso   1.00
O256   O     0.98148   0.16666   0.18509   0.00000  Uiso   1.00
O257   O     0.93933   0.16667   0.31492   0.00000  Uiso   1.00
O258   O     0.72733   0.16667   0.18508   0.00000  Uiso   1.00
C259   C     0.00137   0.42078   0.24888   0.00000  Uiso   1.00
C260   C     0.03635   0.35174   0.21682   0.00000  Uiso   1.00
C261   C     0.33027   0.62393   0.24926   0.00000  Uiso   1.00
C262   C     0.00306   0.37607   0.25074   0.00000  Uiso   1.00
C263   C     0.18706   0.47132   0.27256   0.00000  Uiso   1.00
C264   C     0.14627   0.52868   0.22744   0.00000  Uiso   1.00
C265   C     0.13775   0.47076   0.27262   0.00000  Uiso   1.00
C266   C     0.19558   0.52924   0.22738   0.00000  Uiso   1.00
C267   C     0.30608   0.50017   0.33614   0.00000  Uiso   1.00
C268   C     0.02725   0.49983   0.16386   0.00000  Uiso   1.00
C269   C     0.29091   0.49773   0.38547   0.00000  Uiso   1.00
C270   C     0.33196   0.57922   0.25112   0.00000  Uiso   1.00
C271   C     0.04243   0.50227   0.11453   0.00000  Uiso   1.00
C272   C     0.30605   0.47448   0.45460   0.00000  Uiso   1.00
C273   C     0.02728   0.52552   0.04540   0.00000  Uiso   1.00
C274   C     0.32174   0.47892   0.40835   0.00000  Uiso   1.00
C275   C     0.01159   0.52108   0.09165   0.00000  Uiso   1.00
C276   C     0.24426   0.51279   0.40982   0.00000  Uiso   1.00
C277   C     0.08907   0.48721   0.09018   0.00000  Uiso   1.00
C278   C     0.22487   0.50000   0.45422   0.00000  Uiso   1.00
C279   C     0.10846   0.50000   0.04578   0.00000  Uiso   1.00
C280   C     0.25779   0.48459   0.47764   0.00000  Uiso   1.00
C281   C     0.19434   0.48971   0.04687   0.00000  Uiso   1.00
C282   C     0.07555   0.51541   0.02236   0.00000  Uiso   1.00
C283   C     0.17444   0.50311   0.47655   0.00000  Uiso   1.00
C284   C     0.15889   0.49689   0.02345   0.00000  Uiso   1.00
C285   C     0.10998   0.44906   0.10658   0.00000  Uiso   1.00
C286   C     0.22336   0.55094   0.39342   0.00000  Uiso   1.00
C287   C     0.27030   0.38309   0.32504   0.00000  Uiso   1.00
C288   C     0.06304   0.61691   0.17496   0.00000  Uiso   1.00
C289   C     0.25630   0.62996   0.31806   0.00000  Uiso   1.00
C290   C     0.07703   0.37004   0.18194   0.00000  Uiso   1.00
C291   C     0.11029   0.43578   0.29641   0.00000  Uiso   1.00
C292   C     0.13899   0.51029   0.45313   0.00000  Uiso   1.00
C293   C     0.22304   0.56422   0.20359   0.00000  Uiso   1.00
C294   C     0.24249   0.48109   0.02406   0.00000  Uiso   1.00
C295   C     0.09084   0.51891   0.47594   0.00000  Uiso   1.00
C296   C     0.30158   0.35769   0.28503   0.00000  Uiso   1.00
C297   C     0.03175   0.64231   0.21497   0.00000  Uiso   1.00
C298   C     0.29698   0.64826   0.28318   0.00000  Uiso   1.00
Cu299  Cu    0.04689   0.50001   0.25000   0.00000  Uiso   1.00
Cu300  Cu    0.28645   0.49999   0.25000   0.00000  Uiso   1.00
H301   H     0.26809   0.47265   0.04296   0.00000  Uiso   1.00
H302   H     0.12662   0.45646   0.13409   0.00000  Uiso   1.00
H303   H     0.08028   0.42816   0.11843   0.00000  Uiso   1.00
H304   H     0.20671   0.54354   0.36591   0.00000  Uiso   1.00
H305   H     0.19659   0.56851   0.42076   0.00000  Uiso   1.00
H306   H     0.25306   0.57184   0.38157   0.00000  Uiso   1.00
H307   H     0.18534   0.49016   0.08305   0.00000  Uiso   1.00
H308   H     0.14800   0.50984   0.41695   0.00000  Uiso   1.00
H309   H     0.23198   0.38419   0.32394   0.00000  Uiso   1.00
H310   H     0.27322   0.36952   0.35689   0.00000  Uiso   1.00
H311   H     0.28142   0.41497   0.32712   0.00000  Uiso   1.00
H312   H     0.06524   0.52735   0.45704   0.00000  Uiso   1.00
H313   H     0.10136   0.61581   0.17606   0.00000  Uiso   1.00
H314   H     0.05191   0.58503   0.17288   0.00000  Uiso   1.00
H315   H     0.06012   0.63048   0.14311   0.00000  Uiso   1.00
H316   H     0.25282   0.59685   0.31350   0.00000  Uiso   1.00
H317   H     0.26161   0.63509   0.35191   0.00000  Uiso   1.00
H318   H     0.22118   0.64492   0.31699   0.00000  Uiso   1.00
H319   H     0.08051   0.40315   0.18650   0.00000  Uiso   1.00
H320   H     0.11216   0.35508   0.18301   0.00000  Uiso   1.00
H321   H     0.07173   0.36491   0.14809   0.00000  Uiso   1.00
H322   H     0.07417   0.44601   0.31717   0.00000  Uiso   1.00
H323   H     0.30846   0.53160   0.10929   0.00000  Uiso   1.00
H324   H     0.10819   0.41142   0.27158   0.00000  Uiso   1.00
H325   H     0.12903   0.42128   0.31982   0.00000  Uiso   1.00
H326   H     0.25917   0.55399   0.18283   0.00000  Uiso   1.00
H327   H     0.20431   0.57872   0.18018   0.00000  Uiso   1.00
H328   H     0.22514   0.58858   0.22842   0.00000  Uiso   1.00
H329   H     0.02487   0.46840   0.39071   0.00000  Uiso   1.00
H330   H     0.33121   0.46191   0.47214   0.00000  Uiso   1.00
H331   H     0.00213   0.53809   0.02786   0.00000  Uiso   1.00
H332   H     0.20246   0.44846   0.29036   0.00000  Uiso   1.00
H333   H     0.13087   0.55154   0.20964   0.00000  Uiso   1.00
H334   H     0.13674   0.43149   0.07924   0.00000  Uiso   1.00
N335   N     0.11736   0.50001   0.24999   0.00000  Uiso   1.00
N336   N     0.21597   0.49999   0.25001   0.00000  Uiso   1.00
O337   O     0.03958   0.43989   0.25000   0.00000  Uiso   1.00
O338   O     0.29375   0.56011   0.25000   0.00000  Uiso   1.00
O339   O     0.29372   0.43988   0.25001   0.00000  Uiso   1.00
O340   O     0.03961   0.56012   0.24999   0.00000  Uiso   1.00
O341   O     0.01852   0.50001   0.31491   0.00000  Uiso   1.00
O342   O     0.31481   0.49999   0.18509   0.00000  Uiso   1.00
O343   O     0.27267   0.50000   0.31492   0.00000  Uiso   1.00
O344   O     0.06067   0.50000   0.18508   0.00000  Uiso   1.00
C345   C     0.33471   0.42078   0.24888   0.00000  Uiso   1.00
C346   C     0.36968   0.35174   0.21682   0.00000  Uiso   1.00
C347   C     0.66360   0.62393   0.24926   0.00000  Uiso   1.00
C348   C     0.33640   0.37607   0.25074   0.00000  Uiso   1.00
C349   C     0.52039   0.47132   0.27256   0.00000  Uiso   1.00
C350   C     0.47961   0.52868   0.22744   0.00000  Uiso   1.00
C351   C     0.47109   0.47076   0.27262   0.00000  Uiso   1.00
C352   C     0.52891   0.52924   0.22738   0.00000  Uiso   1.00
C353   C     0.63941   0.50017   0.33614   0.00000  Uiso   1.00
C354   C     0.36059   0.49983   0.16386   0.00000  Uiso   1.00
C355   C     0.62424   0.49773   0.38547   0.00000  Uiso   1.00
C356   C     0.66529   0.57922   0.25112   0.00000  Uiso   1.00
C357   C     0.37576   0.50227   0.11453   0.00000  Uiso   1.00
C358   C     0.63939   0.47448   0.45460   0.00000  Uiso   1.00
C359   C     0.36061   0.52552   0.04540   0.00000  Uiso   1.00
C360   C     0.65507   0.47892   0.40835   0.00000  Uiso   1.00
C361   C     0.34493   0.52108   0.09165   0.00000  Uiso   1.00
C362   C     0.57759   0.51279   0.40982   0.00000  Uiso   1.00
C363   C     0.42241   0.48721   0.09018   0.00000  Uiso   1.00
C364   C     0.55820   0.50000   0.45422   0.00000  Uiso   1.00
C365   C     0.44180   0.50000   0.04578   0.00000  Uiso   1.00
C366   C     0.59112   0.48459   0.47764   0.00000  Uiso   1.00
C367   C     0.52768   0.48971   0.04687   0.00000  Uiso   1.00
C368   C     0.40888   0.51541   0.02236   0.00000  Uiso   1.00
C369   C     0.50777   0.50311   0.47655   0.00000  Uiso   1.00
C370   C     0.49223   0.49689   0.02345   0.00000  Uiso   1.00
C371   C     0.44331   0.44906   0.10658   0.00000  Uiso   1.00
C372   C     0.55669   0.55094   0.39342   0.00000  Uiso   1.00
C373   C     0.60363   0.38309   0.32504   0.00000  Uiso   1.00
C374   C     0.39637   0.61691   0.17496   0.00000  Uiso   1.00
C375   C     0.58963   0.62996   0.31806   0.00000  Uiso   1.00
C376   C     0.41037   0.37004   0.18194   0.00000  Uiso   1.00
C377   C     0.44362   0.43578   0.29641   0.00000  Uiso   1.00
C378   C     0.47232   0.51029   0.45313   0.00000  Uiso   1.00
C379   C     0.55638   0.56422   0.20359   0.00000  Uiso   1.00
C380   C     0.57583   0.48109   0.02406   0.00000  Uiso   1.00
C381   C     0.42417   0.51891   0.47594   0.00000  Uiso   1.00
C382   C     0.63492   0.35769   0.28503   0.00000  Uiso   1.00
C383   C     0.36508   0.64231   0.21497   0.00000  Uiso   1.00
C384   C     0.63032   0.64826   0.28318   0.00000  Uiso   1.00
Cu385  Cu    0.38022   0.50001   0.25000   0.00000  Uiso   1.00
Cu386  Cu    0.61978   0.49999   0.25000   0.00000  Uiso   1.00
H387   H     0.60142   0.47265   0.04296   0.00000  Uiso   1.00
H388   H     0.45995   0.45646   0.13409   0.00000  Uiso   1.00
H389   H     0.41361   0.42816   0.11843   0.00000  Uiso   1.00
H390   H     0.54005   0.54354   0.36591   0.00000  Uiso   1.00
H391   H     0.52992   0.56851   0.42076   0.00000  Uiso   1.00
H392   H     0.58639   0.57184   0.38157   0.00000  Uiso   1.00
H393   H     0.51867   0.49016   0.08305   0.00000  Uiso   1.00
H394   H     0.48133   0.50984   0.41695   0.00000  Uiso   1.00
H395   H     0.56531   0.38419   0.32394   0.00000  Uiso   1.00
H396   H     0.60656   0.36952   0.35689   0.00000  Uiso   1.00
H397   H     0.61475   0.41497   0.32712   0.00000  Uiso   1.00
H398   H     0.39858   0.52735   0.45704   0.00000  Uiso   1.00
H399   H     0.43469   0.61581   0.17606   0.00000  Uiso   1.00
H400   H     0.38525   0.58503   0.17288   0.00000  Uiso   1.00
H401   H     0.39345   0.63048   0.14311   0.00000  Uiso   1.00
H402   H     0.58615   0.59685   0.31350   0.00000  Uiso   1.00
H403   H     0.59494   0.63509   0.35191   0.00000  Uiso   1.00
H404   H     0.55451   0.64492   0.31699   0.00000  Uiso   1.00
H405   H     0.41385   0.40315   0.18650   0.00000  Uiso   1.00
H406   H     0.44549   0.35508   0.18301   0.00000  Uiso   1.00
H407   H     0.40506   0.36491   0.14809   0.00000  Uiso   1.00
H408   H     0.40750   0.44601   0.31717   0.00000  Uiso   1.00
H409   H     0.64179   0.53160   0.10929   0.00000  Uiso   1.00
H410   H     0.44152   0.41142   0.27158   0.00000  Uiso   1.00
H411   H     0.46236   0.42128   0.31982   0.00000  Uiso   1.00
H412   H     0.59250   0.55399   0.18283   0.00000  Uiso   1.00
H413   H     0.53764   0.57872   0.18018   0.00000  Uiso   1.00
H414   H     0.55848   0.58858   0.22842   0.00000  Uiso   1.00
H415   H     0.35821   0.46840   0.39071   0.00000  Uiso   1.00
H416   H     0.66454   0.46191   0.47214   0.00000  Uiso   1.00
H417   H     0.33546   0.53809   0.02786   0.00000  Uiso   1.00
H418   H     0.53580   0.44846   0.29036   0.00000  Uiso   1.00
H419   H     0.46420   0.55154   0.20964   0.00000  Uiso   1.00
H420   H     0.47008   0.43149   0.07924   0.00000  Uiso   1.00
N421   N     0.45069   0.50001   0.24999   0.00000  Uiso   1.00
N422   N     0.54931   0.49999   0.25001   0.00000  Uiso   1.00
O423   O     0.37291   0.43989   0.25000   0.00000  Uiso   1.00
O424   O     0.62709   0.56011   0.25000   0.00000  Uiso   1.00
O425   O     0.62706   0.43988   0.25001   0.00000  Uiso   1.00
O426   O     0.37294   0.56012   0.24999   0.00000  Uiso   1.00
O427   O     0.35186   0.50001   0.31491   0.00000  Uiso   1.00
O428   O     0.64814   0.49999   0.18509   0.00000  Uiso   1.00
O429   O     0.60600   0.50000   0.31492   0.00000  Uiso   1.00
O430   O     0.39400   0.50000   0.18508   0.00000  Uiso   1.00
C431   C     0.66804   0.42078   0.24888   0.00000  Uiso   1.00
C432   C     0.70302   0.35174   0.21682   0.00000  Uiso   1.00
C433   C     0.99694   0.62393   0.24926   0.00000  Uiso   1.00
C434   C     0.66973   0.37607   0.25074   0.00000  Uiso   1.00
C435   C     0.85373   0.47132   0.27256   0.00000  Uiso   1.00
C436   C     0.81294   0.52868   0.22744   0.00000  Uiso   1.00
C437   C     0.80442   0.47076   0.27262   0.00000  Uiso   1.00
C438   C     0.86225   0.52924   0.22738   0.00000  Uiso   1.00
C439   C     0.97275   0.50017   0.33614   0.00000  Uiso   1.00
C440   C     0.69392   0.49983   0.16386   0.00000  Uiso   1.00
C441   C     0.95757   0.49773   0.38547   0.00000  Uiso   1.00
C442   C     0.99863   0.57922   0.25112   0.00000  Uiso   1.00
C443   C     0.70909   0.50227   0.11453   0.00000  Uiso   1.00
C444   C     0.97272   0.47448   0.45460   0.00000  Uiso   1.00
C445   C     0.69395   0.52552   0.04540   0.00000  Uiso   1.00
C446   C     0.98840   0.47892   0.40835   0.00000  Uiso   1.00
C447   C     0.67826   0.52108   0.09165   0.00000  Uiso   1.00
C448   C     0.91093   0.51279   0.40982   0.00000  Uiso   1.00
C449   C     0.75574   0.48721   0.09018   0.00000  Uiso   1.00
C450   C     0.89154   0.50000   0.45422   0.00000  Uiso   1.00
C451   C     0.77513   0.50000   0.04578   0.00000  Uiso   1.00
C452   C     0.92445   0.48459   0.47764   0.00000  Uiso   1.00
C453   C     0.86101   0.48971   0.04687   0.00000  Uiso   1.00
C454   C     0.74221   0.51541   0.02236   0.00000  Uiso   1.00
C455   C     0.84111   0.50311   0.47655   0.00000  Uiso   1.00
C456   C     0.82556   0.49689   0.02345   0.00000  Uiso   1.00
C457   C     0.77664   0.44906   0.10658   0.00000  Uiso   1.00
C458   C     0.89002   0.55094   0.39342   0.00000  Uiso   1.00
C459   C     0.93696   0.38309   0.32504   0.00000  Uiso   1.00
C460   C     0.72970   0.61691   0.17496   0.00000  Uiso   1.00
C461   C     0.92297   0.62996   0.31806   0.00000  Uiso   1.00
C462   C     0.74370   0.37004   0.18194   0.00000  Uiso   1.00
C463   C     0.77695   0.43578   0.29641   0.00000  Uiso   1.00
C464   C     0.80566   0.51029   0.45313   0.00000  Uiso   1.00
C465   C     0.88971   0.56422   0.20359   0.00000  Uiso   1.00
C466   C     0.90916   0.48109   0.02406   0.00000  Uiso   1.00
C467   C     0.75750   0.51891   0.47594   0.00000  Uiso   1.00
C468   C     0.96825   0.35769   0.28503   0.00000  Uiso   1.00
C469   C     0.69842   0.64231   0.21497   0.00000  Uiso   1.00
C470   C     0.96365   0.64826   0.28318   0.00000  Uiso   1.00
Cu471  Cu    0.71355   0.50001   0.25000   0.00000  Uiso   1.00
Cu472  Cu    0.95311   0.49999   0.25000   0.00000  Uiso   1.00
H473   H     0.93476   0.47265   0.04296   0.00000  Uiso   1.00
H474   H     0.79329   0.45646   0.13409   0.00000  Uiso   1.00
H475   H     0.74694   0.42816   0.11843   0.00000  Uiso   1.00
H476   H     0.87338   0.54354   0.36591   0.00000  Uiso   1.00
H477   H     0.86325   0.56851   0.42076   0.00000  Uiso   1.00
H478   H     0.91972   0.57184   0.38157   0.00000  Uiso   1.00
H479   H     0.85200   0.49016   0.08305   0.00000  Uiso   1.00
H480   H     0.81466   0.50984   0.41695   0.00000  Uiso   1.00
H481   H     0.89864   0.38419   0.32394   0.00000  Uiso   1.00
H482   H     0.93989   0.36952   0.35689   0.00000  Uiso   1.00
H483   H     0.94809   0.41497   0.32712   0.00000  Uiso   1.00
H484   H     0.73191   0.52735   0.45704   0.00000  Uiso   1.00
H485   H     0.76802   0.61581   0.17606   0.00000  Uiso   1.00
H486   H     0.71858   0.58503   0.17288   0.00000  Uiso   1.00
H487   H     0.72678   0.63048   0.14311   0.00000  Uiso   1.00
H488   H     0.91949   0.59685   0.31350   0.00000  Uiso   1.00
H489   H     0.92827   0.63509   0.35191   0.00000  Uiso   1.00
H490   H     0.88784   0.64492   0.31699   0.00000  Uiso   1.00
H491   H     0.74718   0.40315   0.18650   0.00000  Uiso   1.00
H492   H     0.77882   0.35508   0.18301   0.00000  Uiso   1.00
H493   H     0.73839   0.36491   0.14809   0.00000  Uiso   1.00
H494   H     0.74083   0.44601   0.31717   0.00000  Uiso   1.00
H495   H     0.97513   0.53160   0.10929   0.00000  Uiso   1.00
H496   H     0.77486   0.41142   0.27158   0.00000  Uiso   1.00
H497   H     0.79569   0.42128   0.31982   0.00000  Uiso   1.00
H498   H     0.92583   0.55399   0.18283   0.00000  Uiso   1.00
H499   H     0.87097   0.57872   0.18018   0.00000  Uiso   1.00
H500   H     0.89181   0.58858   0.22842   0.00000  Uiso   1.00
H501   H     0.69154   0.46840   0.39071   0.00000  Uiso   1.00
H502   H     0.99787   0.46191   0.47214   0.00000  Uiso   1.00
H503   H     0.66879   0.53809   0.02786   0.00000  Uiso   1.00
H504   H     0.86913   0.44846   0.29036   0.00000  Uiso   1.00
H505   H     0.79754   0.55154   0.20964   0.00000  Uiso   1.00
H506   H     0.80341   0.43149   0.07924   0.00000  Uiso   1.00
N507   N     0.78403   0.50001   0.24999   0.00000  Uiso   1.00
N508   N     0.88264   0.49999   0.25001   0.00000  Uiso   1.00
O509   O     0.70625   0.43989   0.25000   0.00000  Uiso   1.00
O510   O     0.96042   0.56011   0.25000   0.00000  Uiso   1.00
O511   O     0.96039   0.43988   0.25001   0.00000  Uiso   1.00
O512   O     0.70628   0.56012   0.24999   0.00000  Uiso   1.00
O513   O     0.68519   0.50001   0.31491   0.00000  Uiso   1.00
O514   O     0.98148   0.49999   0.18509   0.00000  Uiso   1.00
O515   O     0.93933   0.50000   0.31492   0.00000  Uiso   1.00
O516   O     0.72733   0.50000   0.18508   0.00000  Uiso   1.00
C517   C     0.00137   0.75411   0.24888   0.00000  Uiso   1.00
C518   C     0.03635   0.68508   0.21682   0.00000  Uiso   1.00
C519   C     0.33027   0.95727   0.24926   0.00000  Uiso   1.00
C520   C     0.00306   0.70940   0.25074   0.00000  Uiso   1.00
C521   C     0.18706   0.80466   0.27256   0.00000  Uiso   1.00
C522   C     0.14627   0.86201   0.22744   0.00000  Uiso   1.00
C523   C     0.13775   0.80409   0.27262   0.00000  Uiso   1.00
C524   C     0.19558   0.86257   0.22738   0.00000  Uiso   1.00
C525   C     0.30608   0.83350   0.33614   0.00000  Uiso   1.00
C526   C     0.02725   0.83316   0.16386   0.00000  Uiso   1.00
C527   C     0.29091   0.83106   0.38547   0.00000  Uiso   1.00
C528   C     0.33196   0.91256   0.25112   0.00000  Uiso   1.00
C529   C     0.04243   0.83561   0.11453   0.00000  Uiso   1.00
C530   C     0.30605   0.80781   0.45460   0.00000  Uiso   1.00
C531   C     0.02728   0.85886   0.04540   0.00000  Uiso   1.00
C532   C     0.32174   0.81226   0.40835   0.00000  Uiso   1.00
C533   C     0.01159   0.85441   0.09165   0.00000  Uiso   1.00
C534   C     0.24426   0.84612   0.40982   0.00000  Uiso   1.00
C535   C     0.08907   0.82055   0.09018   0.00000  Uiso   1.00
C536   C     0.22487   0.83333   0.45422   0.00000  Uiso   1.00
C537   C     0.10846   0.83334   0.04578   0.00000  Uiso   1.00
C538   C     0.25779   0.81792   0.47764   0.00000  Uiso   1.00
C539   C     0.19434   0.82304   0.04687   0.00000  Uiso   1.00
C540   C     0.07555   0.84874   0.02236   0.00000  Uiso   1.00
C541   C     0.17444   0.83644   0.47655   0.00000  Uiso   1.00
C542   C     0.15889   0.83022   0.02345   0.00000  Uiso   1.00
C543   C     0.10998   0.78239   0.10658   0.00000  Uiso   1.00
C544   C     0.22336   0.88428   0.39342   0.00000  Uiso   1.00
C545   C     0.27030   0.71643   0.32504   0.00000  Uiso   1.00
C546   C     0.06304   0.95024   0.17496   0.00000  Uiso   1.00
C547   C     0.25630   0.96330   0.31806   0.00000  Uiso   1.00
C548   C     0.07703   0.70337   0.18194   0.00000  Uiso   1.00
C549   C     0.11029   0.76912   0.29641   0.00000  Uiso   1.00
C550   C     0.13899   0.84362   0.45313   0.00000  Uiso   1.00
C551   C     0.22304   0.89755   0.20359   0.00000  Uiso   1.00
C552   C     0.24249   0.81443   0.02406   0.00000  Uiso   1.00
C553   C     0.09084   0.85224   0.47594   0.00000  Uiso   1.00
C554   C     0.30158   0.69102   0.28503   0.00000  Uiso   1.00
C555   C     0.03175   0.97565   0.21497   0.00000  Uiso   1.00
C556   C     0.29698   0.98159   0.28318   0.00000  Uiso   1.00
Cu557  Cu    0.04689   0.83334   0.25000   0.00000  Uiso   1.00
Cu558  Cu    0.28645   0.83333   0.25000   0.00000  Uiso   1.00
H559   H     0.26809   0.80599   0.04296   0.00000  Uiso   1.00
H560   H     0.12662   0.78979   0.13409   0.00000  Uiso   1.00
H561   H     0.08028   0.76149   0.11843   0.00000  Uiso   1.00
H562   H     0.20671   0.87687   0.36591   0.00000  Uiso   1.00
H563   H     0.19659   0.90184   0.42076   0.00000  Uiso   1.00
H564   H     0.25306   0.90518   0.38157   0.00000  Uiso   1.00
H565   H     0.18534   0.82349   0.08305   0.00000  Uiso   1.00
H566   H     0.14800   0.84317   0.41695   0.00000  Uiso   1.00
H567   H     0.23198   0.71752   0.32394   0.00000  Uiso   1.00
H568   H     0.27322   0.70286   0.35689   0.00000  Uiso   1.00
H569   H     0.28142   0.74831   0.32712   0.00000  Uiso   1.00
H570   H     0.06524   0.86068   0.45704   0.00000  Uiso   1.00
H571   H     0.10136   0.94914   0.17606   0.00000  Uiso   1.00
H572   H     0.05191   0.91836   0.17288   0.00000  Uiso   1.00
H573   H     0.06012   0.96381   0.14311   0.00000  Uiso   1.00
H574   H     0.25282   0.93019   0.31350   0.00000  Uiso   1.00
H575   H     0.26161   0.96842   0.35191   0.00000  Uiso   1.00
H576   H     0.22118   0.97825   0.31699   0.00000  Uiso   1.00
H577   H     0.08051   0.73648   0.18650   0.00000  Uiso   1.00
H578   H     0.11216   0.68841   0.18301   0.00000  Uiso   1.00
H579   H     0.07173   0.69824   0.14809   0.00000  Uiso   1.00
H580   H     0.07417   0.77934   0.31717   0.00000  Uiso   1.00
H581   H     0.30846   0.86493   0.10929   0.00000  Uiso   1.00
H582   H     0.10819   0.74476   0.27158   0.00000  Uiso   1.00
H583   H     0.12903   0.75461   0.31982   0.00000  Uiso   1.00
H584   H     0.25917   0.88732   0.18283   0.00000  Uiso   1.00
H585   H     0.20431   0.91206   0.18018   0.00000  Uiso   1.00
H586   H     0.22514   0.92191   0.22842   0.00000  Uiso   1.00
H587   H     0.02487   0.80174   0.39071   0.00000  Uiso   1.00
H588   H     0.33121   0.79524   0.47214   0.00000  Uiso   1.00
H589   H     0.00213   0.87142   0.02786   0.00000  Uiso   1.00
H590   H     0.20246   0.78179   0.29036   0.00000  Uiso   1.00
H591   H     0.13087   0.88488   0.20964   0.00000  Uiso   1.00
H592   H     0.13674   0.76483   0.07924   0.00000  Uiso   1.00
N593   N     0.11736   0.83334   0.24999   0.00000  Uiso   1.00
N594   N     0.21597   0.83332   0.25001   0.00000  Uiso   1.00
O595   O     0.03958   0.77322   0.25000   0.00000  Uiso   1.00
O596   O     0.29375   0.89345   0.25000   0.00000  Uiso   1.00
O597   O     0.29372   0.77321   0.25001   0.00000  Uiso   1.00
O598   O     0.03961   0.89346   0.24999   0.00000  Uiso   1.00
O599   O     0.01852   0.83334   0.31491   0.00000  Uiso   1.00
O600   O     0.31481   0.83332   0.18509   0.00000  Uiso   1.00
O601   O     0.27267   0.83333   0.31492   0.00000  Uiso   1.00
O602   O     0.06067   0.83333   0.18508   0.00000  Uiso   1.00
C603   C     0.33471   0.75411   0.24888   0.00000  Uiso   1.00
C604   C     0.36968   0.68508   0.21682   0.00000  Uiso   1.00
C605   C     0.66360   0.95727   0.24926   0.00000  Uiso   1.00
C606   C     0.33640   0.70940   0.25074   0.00000  Uiso   1.00
C607   C     0.52039   0.80466   0.27256   0.00000  Uiso   1.00
C608   C     0.47961   0.86201   0.22744   0.00000  Uiso   1.00
C609   C     0.47109   0.80409   0.27262   0.00000  Uiso   1.00
C610   C     0.52891   0.86257   0.22738   0.00000  Uiso   1.00
C611   C     0.63941   0.83350   0.33614   0.00000  Uiso   1.00
C612   C     0.36059   0.83316   0.16386   0.00000  Uiso   1.00
C613   C     0.62424   0.83106   0.38547   0.00000  Uiso   1.00
C614   C     0.66529   0.91256   0.25112   0.00000  Uiso   1.00
C615   C     0.37576   0.83561   0.11453   0.00000  Uiso   1.00
C616   C     0.63939   0.80781   0.45460   0.00000  Uiso   1.00
C617   C     0.36061   0.85886   0.04540   0.00000  Uiso   1.00
C618   C     0.65507   0.81226   0.40835   0.00000  Uiso   1.00
C619   C     0.34493   0.85441   0.09165   0.00000  Uiso   1.00
C620   C     0.57759   0.84612   0.40982   0.00000  Uiso   1.00
C621   C     0.42241   0.82055   0.09018   0.00000  Uiso   1.00
C622   C     0.55820   0.83333   0.45422   0.00000  Uiso   1.00
C623   C     0.44180   0.83334   0.04578   0.00000  Uiso   1.00
C624   C     0.59112   0.81792   0.47764   0.00000  Uiso   1.00
C625   C     0.52768   0.82304   0.04687   0.00000  Uiso   1.00
C626   C     0.40888   0.84874   0.02236   0.00000  Uiso   1.00
C627   C     0.50777   0.83644   0.47655   0.00000  Uiso   1.00
C628   C     0.49223   0.83022   0.02345   0.00000  Uiso   1.00
C629   C     0.44331   0.78239   0.10658   0.00000  Uiso   1.00
C630   C     0.55669   0.88428   0.39342   0.00000  Uiso   1.00
C631   C     0.60363   0.71643   0.32504   0.00000  Uiso   1.00
C632   C     0.39637   0.95024   0.17496   0.00000  Uiso   1.00
C633   C     0.58963   0.96330   0.31806   0.00000  Uiso   1.00
C634   C     0.41037   0.70337   0.18194   0.00000  Uiso   1.00
C635   C     0.44362   0.76912   0.29641   0.00000  Uiso   1.00
C636   C     0.47232   0.84362   0.45313   0.00000  Uiso   1.00
C637   C     0.55638   0.89755   0.20359   0.00000  Uiso   1.00
C638   C     0.57583   0.81443   0.02406   0.00000  Uiso   1.00
C639   C     0.42417   0.85224   0.47594   0.00000  Uiso   1.00
C640   C     0.63492   0.69102   0.28503   0.00000  Uiso   1.00
C641   C     0.36508   0.97565   0.21497   0.00000  Uiso   1.00
C642   C     0.63032   0.98159   0.28318   0.00000  Uiso   1.00
Cu643  Cu    0.38022   0.83334   0.25000   0.00000  Uiso   1.00
Cu644  Cu    0.61978   0.83333   0.25000   0.00000  Uiso   1.00
H645   H     0.60142   0.80599   0.04296   0.00000  Uiso   1.00
H646   H     0.45995   0.78979   0.13409   0.00000  Uiso   1.00
H647   H     0.41361   0.76149   0.11843   0.00000  Uiso   1.00
H648   H     0.54005   0.87687   0.36591   0.00000  Uiso   1.00
H649   H     0.52992   0.90184   0.42076   0.00000  Uiso   1.00
H650   H     0.58639   0.90518   0.38157   0.00000  Uiso   1.00
H651   H     0.51867   0.82349   0.08305   0.00000  Uiso   1.00
H652   H     0.48133   0.84317   0.41695   0.00000  Uiso   1.00
H653   H     0.56531   0.71752   0.32394   0.00000  Uiso   1.00
H654   H     0.60656   0.70286   0.35689   0.00000  Uiso   1.00
H655   H     0.61475   0.74831   0.32712   0.00000  Uiso   1.00
H656   H     0.39858   0.86068   0.45704   0.00000  Uiso   1.00
H657   H     0.43469   0.94914   0.17606   0.00000  Uiso   1.00
H658   H     0.38525   0.91836   0.17288   0.00000  Uiso   1.00
H659   H     0.39345   0.96381   0.14311   0.00000  Uiso   1.00
H660   H     0.58615   0.93019   0.31350   0.00000  Uiso   1.00
H661   H     0.59494   0.96842   0.35191   0.00000  Uiso   1.00
H662   H     0.55451   0.97825   0.31699   0.00000  Uiso   1.00
H663   H     0.41385   0.73648   0.18650   0.00000  Uiso   1.00
H664   H     0.44549   0.68841   0.18301   0.00000  Uiso   1.00
H665   H     0.40506   0.69824   0.14809   0.00000  Uiso   1.00
H666   H     0.40750   0.77934   0.31717   0.00000  Uiso   1.00
H667   H     0.64179   0.86493   0.10929   0.00000  Uiso   1.00
H668   H     0.44152   0.74476   0.27158   0.00000  Uiso   1.00
H669   H     0.46236   0.75461   0.31982   0.00000  Uiso   1.00
H670   H     0.59250   0.88732   0.18283   0.00000  Uiso   1.00
H671   H     0.53764   0.91206   0.18018   0.00000  Uiso   1.00
H672   H     0.55848   0.92191   0.22842   0.00000  Uiso   1.00
H673   H     0.35821   0.80174   0.39071   0.00000  Uiso   1.00
H674   H     0.66454   0.79524   0.47214   0.00000  Uiso   1.00
H675   H     0.33546   0.87142   0.02786   0.00000  Uiso   1.00
H676   H     0.53580   0.78179   0.29036   0.00000  Uiso   1.00
H677   H     0.46420   0.88488   0.20964   0.00000  Uiso   1.00
H678   H     0.47008   0.76483   0.07924   0.00000  Uiso   1.00
N679   N     0.45069   0.83334   0.24999   0.00000  Uiso   1.00
N680   N     0.54931   0.83332   0.25001   0.00000  Uiso   1.00
O681   O     0.37291   0.77322   0.25000   0.00000  Uiso   1.00
O682   O     0.62709   0.89345   0.25000   0.00000  Uiso   1.00
O683   O     0.62706   0.77321   0.25001   0.00000  Uiso   1.00
O684   O     0.37294   0.89346   0.24999   0.00000  Uiso   1.00
O685   O     0.35186   0.83334   0.31491   0.00000  Uiso   1.00
O686   O     0.64814   0.83332   0.18509   0.00000  Uiso   1.00
O687   O     0.60600   0.83333   0.31492   0.00000  Uiso   1.00
O688   O     0.39400   0.83333   0.18508   0.00000  Uiso   1.00
C689   C     0.66804   0.75411   0.24888   0.00000  Uiso   1.00
C690   C     0.70302   0.68508   0.21682   0.00000  Uiso   1.00
C691   C     0.99694   0.95727   0.24926   0.00000  Uiso   1.00
C692   C     0.66973   0.70940   0.25074   0.00000  Uiso   1.00
C693   C     0.85373   0.80466   0.27256   0.00000  Uiso   1.00
C694   C     0.81294   0.86201   0.22744   0.00000  Uiso   1.00
C695   C     0.80442   0.80409   0.27262   0.00000  Uiso   1.00
C696   C     0.86225   0.86257   0.22738   0.00000  Uiso   1.00
C697   C     0.97275   0.83350   0.33614   0.00000  Uiso   1.00
C698   C     0.69392   0.83316   0.16386   0.00000  Uiso   1.00
C699   C     0.95757   0.83106   0.38547   0.00000  Uiso   1.00
C700   C     0.99863   0.91256   0.25112   0.00000  Uiso   1.00
C701   C     0.70909   0.83561   0.11453   0.00000  Uiso   1.00
C702   C     0.97272   0.80781   0.45460   0.00000  Uiso   1.00
C703   C     0.69395   0.85886   0.04540   0.00000  Uiso   1.00
C704   C     0.98840   0.81226   0.40835   0.00000  Uiso   1.00
C705   C     0.67826   0.85441   0.09165   0.00000  Uiso   1.00
C706   C     0.91093   0.84612   0.40982   0.00000  Uiso   1.00
C707   C     0.75574   0.82055   0.09018   0.00000  Uiso   1.00
C708   C     0.89154   0.83333   0.45422   0.00000  Uiso   1.00
C709   C     0.77513   0.83334   0.04578   0.00000  Uiso   1.00
C710   C     0.92445   0.81792   0.47764   0.00000  Uiso   1.00
C711   C     0.86101   0.82304   0.04687   0.00000  Uiso   1.00
C712   C     0.74221   0.84874   0.02236   0.00000  Uiso   1.00
C713   C     0.84111   0.83644   0.47655   0.00000  Uiso   1.00
C714   C     0.82556   0.83022   0.02345   0.00000  Uiso   1.00
C715   C     0.77664   0.78239   0.10658   0.00000  Uiso   1.00
C716   C     0.89002   0.88428   0.39342   0.00000  Uiso   1.00
C717   C     0.93696   0.71643   0.32504   0.00000  Uiso   1.00
C718   C     0.72970   0.95024   0.17496   0.00000  Uiso   1.00
C719   C     0.92297   0.96330   0.31806   0.00000  Uiso   1.00
C720   C     0.74370   0.70337   0.18194   0.00000  Uiso   1.00
C721   C     0.77695   0.76912   0.29641   0.00000  Uiso   1.00
C722   C     0.80566   0.84362   0.45313   0.00000  Uiso   1.00
C723   C     0.88971   0.89755   0.20359   0.00000  Uiso   1.00
C724   C     0.90916   0.81443   0.02406   0.00000  Uiso   1.00
C725   C     0.75750   0.85224   0.47594   0.00000  Uiso   1.00
C726   C     0.96825   0.69102   0.28503   0.00000  Uiso   1.00
C727   C     0.69842   0.97565   0.21497   0.00000  Uiso   1.00
C728   C     0.96365   0.98159   0.28318   0.00000  Uiso   1.00
Cu729  Cu    0.71355   0.83334   0.25000   0.00000  Uiso   1.00
Cu730  Cu    0.95311   0.83333   0.25000   0.00000  Uiso   1.00
H731   H     0.93476   0.80599   0.04296   0.00000  Uiso   1.00
H732   H     0.79329   0.78979   0.13409   0.00000  Uiso   1.00
H733   H     0.74694   0.76149   0.11843   0.00000  Uiso   1.00
H734   H     0.87338   0.87687   0.36591   0.00000  Uiso   1.00
H735   H     0.86325   0.90184   0.42076   0.00000  Uiso   1.00
H736   H     0.91972   0.90518   0.38157   0.00000  Uiso   1.00
H737   H     0.85200   0.82349   0.08305   0.00000  Uiso   1.00
H738   H     0.81466   0.84317   0.41695   0.00000  Uiso   1.00
H739   H     0.89864   0.71752   0.32394   0.00000  Uiso   1.00
H740   H     0.93989   0.70286   0.35689   0.00000  Uiso   1.00
H741   H     0.94809   0.74831   0.32712   0.00000  Uiso   1.00
H742   H     0.73191   0.86068   0.45704   0.00000  Uiso   1.00
H743   H     0.76802   0.94914   0.17606   0.00000  Uiso   1.00
H744   H     0.71858   0.91836   0.17288   0.00000  Uiso   1.00
H745   H     0.72678   0.96381   0.14311   0.00000  Uiso   1.00
H746   H     0.91949   0.93019   0.31350   0.00000  Uiso   1.00
H747   H     0.92827   0.96842   0.35191   0.00000  Uiso   1.00
H748   H     0.88784   0.97825   0.31699   0.00000  Uiso   1.00
H749   H     0.74718   0.73648   0.18650   0.00000  Uiso   1.00
H750   H     0.77882   0.68841   0.18301   0.00000  Uiso   1.00
H751   H     0.73839   0.69824   0.14809   0.00000  Uiso   1.00
H752   H     0.74083   0.77934   0.31717   0.00000  Uiso   1.00
H753   H     0.97513   0.86493   0.10929   0.00000  Uiso   1.00
H754   H     0.77486   0.74476   0.27158   0.00000  Uiso   1.00
H755   H     0.79569   0.75461   0.31982   0.00000  Uiso   1.00
H756   H     0.92583   0.88732   0.18283   0.00000  Uiso   1.00
H757   H     0.87097   0.91206   0.18018   0.00000  Uiso   1.00
H758   H     0.89181   0.92191   0.22842   0.00000  Uiso   1.00
H759   H     0.69154   0.80174   0.39071   0.00000  Uiso   1.00
H760   H     0.99787   0.79524   0.47214   0.00000  Uiso   1.00
H761   H     0.66879   0.87142   0.02786   0.00000  Uiso   1.00
H762   H     0.86913   0.78179   0.29036   0.00000  Uiso   1.00
H763   H     0.79754   0.88488   0.20964   0.00000  Uiso   1.00
H764   H     0.80341   0.76483   0.07924   0.00000  Uiso   1.00
N765   N     0.78403   0.83334   0.24999   0.00000  Uiso   1.00
N766   N     0.88264   0.83332   0.25001   0.00000  Uiso   1.00
O767   O     0.70625   0.77322   0.25000   0.00000  Uiso   1.00
O768   O     0.96042   0.89345   0.25000   0.00000  Uiso   1.00
O769   O     0.96039   0.77321   0.25001   0.00000  Uiso   1.00
O770   O     0.70628   0.89346   0.24999   0.00000  Uiso   1.00
O771   O     0.68519   0.83334   0.31491   0.00000  Uiso   1.00
O772   O     0.98148   0.83332   0.18509   0.00000  Uiso   1.00
O773   O     0.93933   0.83333   0.31492   0.00000  Uiso   1.00
O774   O     0.72733   0.83333   0.18508   0.00000  Uiso   1.00
C775   C     0.00137   0.08744   0.74888   0.00000  Uiso   1.00
C776   C     0.03635   0.01841   0.71682   0.00000  Uiso   1.00
C777   C     0.33027   0.29060   0.74926   0.00000  Uiso   1.00
C778   C     0.00306   0.04273   0.75074   0.00000  Uiso   1.00
C779   C     0.18706   0.13799   0.77256   0.00000  Uiso   1.00
C780   C     0.14627   0.19534   0.72744   0.00000  Uiso   1.00
C781   C     0.13775   0.13743   0.77262   0.00000  Uiso   1.00
C782   C     0.19558   0.19591   0.72738   0.00000  Uiso   1.00
C783   C     0.30608   0.16684   0.83614   0.00000  Uiso   1.00
C784   C     0.02725   0.16650   0.66386   0.00000  Uiso   1.00
C785   C     0.29091   0.16439   0.88547   0.00000  Uiso   1.00
C786   C     0.33196   0.24589   0.75112   0.00000  Uiso   1.00
C787   C     0.04243   0.16894   0.61453   0.00000  Uiso   1.00
C788   C     0.30605   0.14114   0.95460   0.00000  Uiso   1.00
C789   C     0.02728   0.19219   0.54540   0.00000  Uiso   1.00
C790   C     0.32174   0.14559   0.90835   0.00000  Uiso   1.00
C791   C     0.01159   0.18774   0.59165   0.00000  Uiso   1.00
C792   C     0.24426   0.17945   0.90982   0.00000  Uiso   1.00
C793   C     0.08907   0.15388   0.59018   0.00000  Uiso   1.00
C794   C     0.22487   0.16666   0.95422   0.00000  Uiso   1.00
C795   C     0.10846   0.16667   0.54578   0.00000  Uiso   1.00
C796   C     0.25779   0.15126   0.97764   0.00000  Uiso   1.00
C797   C     0.19434   0.15638   0.54687   0.00000  Uiso   1.00
C798   C     0.07555   0.18208   0.52236   0.00000  Uiso   1.00
C799   C     0.17444   0.16978   0.97655   0.00000  Uiso   1.00
C800   C     0.15889   0.16356   0.52345   0.00000  Uiso   1.00
C801   C     0.10998   0.11572   0.60658   0.00000  Uiso   1.00
C802   C     0.22336   0.21761   0.89342   0.00000  Uiso   1.00
C803   C     0.27030   0.04976   0.82504   0.00000  Uiso   1.00
C804   C     0.06304   0.28357   0.67496   0.00000  Uiso   1.00
C805   C     0.25630   0.29663   0.81806   0.00000  Uiso   1.00
C806   C     0.07703   0.03670   0.68194   0.00000  Uiso   1.00
C807   C     0.11029   0.10245   0.79641   0.00000  Uiso   1.00
C808   C     0.13899   0.17696   0.95313   0.00000  Uiso   1.00
C809   C     0.22304   0.23088   0.70359   0.00000  Uiso   1.00
C810   C     0.24249   0.14776   0.52406   0.00000  Uiso   1.00
C811   C     0.09084   0.18557   0.97594   0.00000  Uiso   1.00
C812   C     0.30158   0.02435   0.78503   0.00000  Uiso   1.00
C813   C     0.03175   0.30898   0.71497   0.00000  Uiso   1.00
C814   C     0.29698   0.31492   0.78318   0.00000  Uiso   1.00
Cu815  Cu    0.04689   0.16667   0.75000   0.00000  Uiso   1.00
Cu816  Cu    0.28645   0.16666   0.75000   0.00000  Uiso   1.00
H817   H     0.26809   0.13932   0.54296   0.00000  Uiso   1.00
H818   H     0.12662   0.12313   0.63409   0.00000  Uiso   1.00
H819   H     0.08028   0.09483   0.61843   0.00000  Uiso   1.00
H820   H     0.20671   0.21021   0.86591   0.00000  Uiso   1.00
H821   H     0.19659   0.23517   0.92076   0.00000  Uiso   1.00
H822   H     0.25306   0.23851   0.88157   0.00000  Uiso   1.00
H823   H     0.18534   0.15683   0.58305   0.00000  Uiso   1.00
H824   H     0.14800   0.17651   0.91695   0.00000  Uiso   1.00
H825   H     0.23198   0.05085   0.82394   0.00000  Uiso   1.00
H826   H     0.27322   0.03619   0.85689   0.00000  Uiso   1.00
H827   H     0.28142   0.08164   0.82712   0.00000  Uiso   1.00
H828   H     0.06524   0.19401   0.95704   0.00000  Uiso   1.00
H829   H     0.10136   0.28248   0.67606   0.00000  Uiso   1.00
H830   H     0.05191   0.25169   0.67288   0.00000  Uiso   1.00
H831   H     0.06012   0.29714   0.64311   0.00000  Uiso   1.00
H832   H     0.25282   0.26352   0.81350   0.00000  Uiso   1.00
H833   H     0.26161   0.30176   0.85191   0.00000  Uiso   1.00
H834   H     0.22118   0.31159   0.81699   0.00000  Uiso   1.00
H835   H     0.08051   0.06981   0.68650   0.00000  Uiso   1.00
H836   H     0.11216   0.02175   0.68301   0.00000  Uiso   1.00
H837   H     0.07173   0.03158   0.64809   0.00000  Uiso   1.00
H838   H     0.07417   0.11268   0.81717   0.00000  Uiso   1.00
H839   H     0.30846   0.19826   0.60929   0.00000  Uiso   1.00
H840   H     0.10819   0.07809   0.77158   0.00000  Uiso   1.00
H841   H     0.12903   0.08794   0.81982   0.00000  Uiso   1.00
H842   H     0.25917   0.22066   0.68283   0.00000  Uiso   1.00
H843   H     0.20431   0.24539   0.68018   0.00000  Uiso   1.00
H844   H     0.22514   0.25524   0.72842   0.00000  Uiso   1.00
H845   H     0.02487   0.13507   0.89071   0.00000  Uiso   1.00
H846   H     0.33121   0.12858   0.97214   0.00000  Uiso   1.00
H847   H     0.00213   0.20476   0.52786   0.00000  Uiso   1.00
H848   H     0.20246   0.11512   0.79036   0.00000  Uiso   1.00
H849   H     0.13087   0.21821   0.70964   0.00000  Uiso   1.00
H850   H     0.13674   0.09816   0.57924   0.00000  Uiso   1.00
N851   N     0.11736   0.16668   0.74999   0.00000  Uiso   1.00
N852   N     0.21597   0.16666   0.75001   0.00000  Uiso   1.00
O853   O     0.03958   0.10655   0.75000   0.00000  Uiso   1.00
O854   O     0.29375   0.22678   0.75000   0.00000  Uiso   1.00
O855   O     0.29372   0.10654   0.75001   0.00000  Uiso   1.00
O856   O     0.03961   0.22679   0.74999   0.00000  Uiso   1.00
O857   O     0.01852   0.16668   0.81491   0.00000  Uiso   1.00
O858   O     0.31481   0.16666   0.68509   0.00000  Uiso   1.00
O859   O     0.27267   0.16667   0.81492   0.00000  Uiso   1.00
O860   O     0.06067   0.16667   0.68508   0.00000  Uiso   1.00
C861   C     0.33471   0.08744   0.74888   0.00000  Uiso   1.00
C862   C     0.36968   0.01841   0.71682   0.00000  Uiso   1.00
C863   C     0.66360   0.29060   0.74926   0.00000  Uiso   1.00
C864   C     0.33640   0.04273   0.75074   0.00000  Uiso   1.00
C865   C     0.52039   0.13799   0.77256   0.00000  Uiso   1.00
C866   C     0.47961   0.19534   0.72744   0.00000  Uiso   1.00
C867   C     0.47109   0.13743   0.77262   0.00000  Uiso   1.00
C868   C     0.52891   0.19591   0.72738   0.00000  Uiso   1.00
C869   C     0.63941   0.16684   0.83614   0.00000  Uiso   1.00
C870   C     0.36059   0.16650   0.66386   0.00000  Uiso   1.00
C871   C     0.62424   0.16439   0.88547   0.00000  Uiso   1.00
C872   C     0.66529   0.24589   0.75112   0.00000  Uiso   1.00
C873   C     0.37576   0.16894   0.61453   0.00000  Uiso   1.00
C874   C     0.63939   0.14114   0.95460   0.00000  Uiso   1.00
C875   C     0.36061   0.19219   0.54540   0.00000  Uiso   1.00
C876   C     0.65507   0.14559   0.90835   0.00000  Uiso   1.00
C877   C     0.34493   0.18774   0.59165   0.00000  Uiso   1.00
C878   C     0.57759   0.17945   0.90982   0.00000  Uiso   1.00
C879   C     0.42241   0.15388   0.59018   0.00000  Uiso   1.00
C880   C     0.55820   0.16666   0.95422   0.00000  Uiso   1.00
C881   C     0.44180   0.16667   0.54578   0.00000  Uiso   1.00
C882   C     0.59112   0.15126   0.97764   0.00000  Uiso   1.00
C883   C     0.52768   0.15638   0.54687   0.00000  Uiso   1.00
C884   C     0.40888   0.18208   0.52236   0.00000  Uiso   1.00
C885   C     0.50777   0.16978   0.97655   0.00000  Uiso   1.00
C886   C     0.49223   0.16356   0.52345   0.00000  Uiso   1.00
C887   C     0.44331   0.11572   0.60658   0.00000  Uiso   1.00
C888   C     0.55669   0.21761   0.89342   0.00000  Uiso   1.00
C889   C     0.60363   0.04976   0.82504   0.00000  Uiso   1.00
C890   C     0.39637   0.28357   0.67496   0.00000  Uiso   1.00
C891   C     0.58963   0.29663   0.81806   0.00000  Uiso   1.00
C892   C     0.41037   0.03670   0.68194   0.00000  Uiso   1.00
C893   C     0.44362   0.10245   0.79641   0.00000  Uiso   1.00
C894   C     0.47232   0.17696   0.95313   0.00000  Uiso   1.00
C895   C     0.55638   0.23088   0.70359   0.00000  Uiso   1.00
C896   C     0.57583   0.14776   0.52406   0.00000  Uiso   1.00
C897   C     0.42417   0.18557   0.97594   0.00000  Uiso   1.00
C898   C     0.63492   0.02435   0.78503   0.00000  Uiso   1.00
C899   C     0.36508   0.30898   0.71497   0.00000  Uiso   1.00
C900   C     0.63032   0.31492   0.78318   0.00000  Uiso   1.00
Cu901  Cu    0.38022   0.16667   0.75000   0.00000  Uiso   1.00
Cu902  Cu    0.61978   0.16666   0.75000   0.00000  Uiso   1.00
H903   H     0.60142   0.13932   0.54296   0.00000  Uiso   1.00
H904   H     0.45995   0.12313   0.63409   0.00000  Uiso   1.00
H905   H     0.41361   0.09483   0.61843   0.00000  Uiso   1.00
H906   H     0.54005   0.21021   0.86591   0.00000  Uiso   1.00
H907   H     0.52992   0.23517   0.92076   0.00000  Uiso   1.00
H908   H     0.58639   0.23851   0.88157   0.00000  Uiso   1.00
H909   H     0.51867   0.15683   0.58305   0.00000  Uiso   1.00
H910   H     0.48133   0.17651   0.91695   0.00000  Uiso   1.00
H911   H     0.56531   0.05085   0.82394   0.00000  Uiso   1.00
H912   H     0.60656   0.03619   0.85689   0.00000  Uiso   1.00
H913   H     0.61475   0.08164   0.82712   0.00000  Uiso   1.00
H914   H     0.39858   0.19401   0.95704   0.00000  Uiso   1.00
H915   H     0.43469   0.28248   0.67606   0.00000  Uiso   1.00
H916   H     0.38525   0.25169   0.67288   0.00000  Uiso   1.00
H917   H     0.39345   0.29714   0.64311   0.00000  Uiso   1.00
H918   H     0.58615   0.26352   0.81350   0.00000  Uiso   1.00
H919   H     0.59494   0.30176   0.85191   0.00000  Uiso   1.00
H920   H     0.55451   0.31159   0.81699   0.00000  Uiso   1.00
H921   H     0.41385   0.06981   0.68650   0.00000  Uiso   1.00
H922   H     0.44549   0.02175   0.68301   0.00000  Uiso   1.00
H923   H     0.40506   0.03158   0.64809   0.00000  Uiso   1.00
H924   H     0.40750   0.11268   0.81717   0.00000  Uiso   1.00
H925   H     0.64179   0.19826   0.60929   0.00000  Uiso   1.00
H926   H     0.44152   0.07809   0.77158   0.00000  Uiso   1.00
H927   H     0.46236   0.08794   0.81982   0.00000  Uiso   1.00
H928   H     0.59250   0.22066   0.68283   0.00000  Uiso   1.00
H929   H     0.53764   0.24539   0.68018   0.00000  Uiso   1.00
H930   H     0.55848   0.25524   0.72842   0.00000  Uiso   1.00
H931   H     0.35821   0.13507   0.89071   0.00000  Uiso   1.00
H932   H     0.66454   0.12858   0.97214   0.00000  Uiso   1.00
H933   H     0.33546   0.20476   0.52786   0.00000  Uiso   1.00
H934   H     0.53580   0.11512   0.79036   0.00000  Uiso   1.00
H935   H     0.46420   0.21821   0.70964   0.00000  Uiso   1.00
H936   H     0.47008   0.09816   0.57924   0.00000  Uiso   1.00
N937   N     0.45069   0.16668   0.74999   0.00000  Uiso   1.00
N938   N     0.54931   0.16666   0.75001   0.00000  Uiso   1.00
O939   O     0.37291   0.10655   0.75000   0.00000  Uiso   1.00
O940   O     0.62709   0.22678   0.75000   0.00000  Uiso   1.00
O941   O     0.62706   0.10654   0.75001   0.00000  Uiso   1.00
O942   O     0.37294   0.22679   0.74999   0.00000  Uiso   1.00
O943   O     0.35186   0.16668   0.81491   0.00000  Uiso   1.00
O944   O     0.64814   0.16666   0.68509   0.00000  Uiso   1.00
O945   O     0.60600   0.16667   0.81492   0.00000  Uiso   1.00
O946   O     0.39400   0.16667   0.68508   0.00000  Uiso   1.00
C947   C     0.66804   0.08744   0.74888   0.00000  Uiso   1.00
C948   C     0.70302   0.01841   0.71682   0.00000  Uiso   1.00
C949   C     0.99694   0.29060   0.74926   0.00000  Uiso   1.00
C950   C     0.66973   0.04273   0.75074   0.00000  Uiso   1.00
C951   C     0.85373   0.13799   0.77256   0.00000  Uiso   1.00
C952   C     0.81294   0.19534   0.72744   0.00000  Uiso   1.00
C953   C     0.80442   0.13743   0.77262   0.00000  Uiso   1.00
C954   C     0.86225   0.19591   0.72738   0.00000  Uiso   1.00
C955   C     0.97275   0.16684   0.83614   0.00000  Uiso   1.00
C956   C     0.69392   0.16650   0.66386   0.00000  Uiso   1.00
C957   C     0.95757   0.16439   0.88547   0.00000  Uiso   1.00
C958   C     0.99863   0.24589   0.75112   0.00000  Uiso   1.00
C959   C     0.70909   0.16894   0.61453   0.00000  Uiso   1.00
C960   C     0.97272   0.14114   0.95460   0.00000  Uiso   1.00
C961   C     0.69395   0.19219   0.54540   0.00000  Uiso   1.00
C962   C     0.98840   0.14559   0.90835   0.00000  Uiso   1.00
C963   C     0.67826   0.18774   0.59165   0.00000  Uiso   1.00
C964   C     0.91093   0.17945   0.90982   0.00000  Uiso   1.00
C965   C     0.75574   0.15388   0.59018   0.00000  Uiso   1.00
C966   C     0.89154   0.16666   0.95422   0.00000  Uiso   1.00
C967   C     0.77513   0.16667   0.54578   0.00000  Uiso   1.00
C968   C     0.92445   0.15126   0.97764   0.00000  Uiso   1.00
C969   C     0.86101   0.15638   0.54687   0.00000  Uiso   1.00
C970   C     0.74221   0.18208   0.52236   0.00000  Uiso   1.00
C971   C     0.84111   0.16978   0.97655   0.00000  Uiso   1.00
C972   C     0.82556   0.16356   0.52345   0.00000  Uiso   1.00
C973   C     0.77664   0.11572   0.60658   0.00000  Uiso   1.00
C974   C     0.89002   0.21761   0.89342   0.00000  Uiso   1.00
C975   C     0.93696   0.04976   0.82504   0.00000  Uiso   1.00
C976   C     0.72970   0.28357   0.67496   0.00000  Uiso   1.00
C977   C     0.92297   0.29663   0.81806   0.00000  Uiso   1.00
C978   C     0.74370   0.03670   0.68194   0.00000  Uiso   1.00
C979   C     0.77695   0.10245   0.79641   0.00000  Uiso   1.00
C980   C     0.80566   0.17696   0.95313   0.00000  Uiso   1.00
C981   C     0.88971   0.23088   0.70359   0.00000  Uiso   1.00
C982   C     0.90916   0.14776   0.52406   0.00000  Uiso   1.00
C983   C     0.75750   0.18557   0.97594   0.00000  Uiso   1.00
C984   C     0.96825   0.02435   0.78503   0.00000  Uiso   1.00
C985   C     0.69842   0.30898   0.71497   0.00000  Uiso   1.00
C986   C     0.96365   0.31492   0.78318   0.00000  Uiso   1.00
Cu987  Cu    0.71355   0.16667   0.75000   0.00000  Uiso   1.00
Cu988  Cu    0.95311   0.16666   0.75000   0.00000  Uiso   1.00
H989   H     0.93476   0.13932   0.54296   0.00000  Uiso   1.00
H990   H     0.79329   0.12313   0.63409   0.00000  Uiso   1.00
H991   H     0.74694   0.09483   0.61843   0.00000  Uiso   1.00
H992   H     0.87338   0.21021   0.86591   0.00000  Uiso   1.00
H993   H     0.86325   0.23517   0.92076   0.00000  Uiso   1.00
H994   H     0.91972   0.23851   0.88157   0.00000  Uiso   1.00
H995   H     0.85200   0.15683   0.58305   0.00000  Uiso   1.00
H996   H     0.81466   0.17651   0.91695   0.00000  Uiso   1.00
H997   H     0.89864   0.05085   0.82394   0.00000  Uiso   1.00
H998   H     0.93989   0.03619   0.85689   0.00000  Uiso   1.00
H999   H     0.94809   0.08164   0.82712   0.00000  Uiso   1.00
H1000  H     0.73191   0.19401   0.95704   0.00000  Uiso   1.00
H1001  H     0.76802   0.28248   0.67606   0.00000  Uiso   1.00
H1002  H     0.71858   0.25169   0.67288   0.00000  Uiso   1.00
H1003  H     0.72678   0.29714   0.64311   0.00000  Uiso   1.00
H1004  H     0.91949   0.26352   0.81350   0.00000  Uiso   1.00
H1005  H     0.92827   0.30176   0.85191   0.00000  Uiso   1.00
H1006  H     0.88784   0.31159   0.81699   0.00000  Uiso   1.00
H1007  H     0.74718   0.06981   0.68650   0.00000  Uiso   1.00
H1008  H     0.77882   0.02175   0.68301   0.00000  Uiso   1.00
H1009  H     0.73839   0.03158   0.64809   0.00000  Uiso   1.00
H1010  H     0.74083   0.11268   0.81717   0.00000  Uiso   1.00
H1011  H     0.97513   0.19826   0.60929   0.00000  Uiso   1.00
H1012  H     0.77486   0.07809   0.77158   0.00000  Uiso   1.00
H1013  H     0.79569   0.08794   0.81982   0.00000  Uiso   1.00
H1014  H     0.92583   0.22066   0.68283   0.00000  Uiso   1.00
H1015  H     0.87097   0.24539   0.68018   0.00000  Uiso   1.00
H1016  H     0.89181   0.25524   0.72842   0.00000  Uiso   1.00
H1017  H     0.69154   0.13507   0.89071   0.00000  Uiso   1.00
H1018  H     0.99787   0.12858   0.97214   0.00000  Uiso   1.00
H1019  H     0.66879   0.20476   0.52786   0.00000  Uiso   1.00
H1020  H     0.86913   0.11512   0.79036   0.00000  Uiso   1.00
H1021  H     0.79754   0.21821   0.70964   0.00000  Uiso   1.00
H1022  H     0.80341   0.09816   0.57924   0.00000  Uiso   1.00
N1023  N     0.78403   0.16668   0.74999   0.00000  Uiso   1.00
N1024  N     0.88264   0.16666   0.75001   0.00000  Uiso   1.00
O1025  O     0.70625   0.10655   0.75000   0.00000  Uiso   1.00
O1026  O     0.96042   0.22678   0.75000   0.00000  Uiso   1.00
O1027  O     0.96039   0.10654   0.75001   0.00000  Uiso   1.00
O1028  O     0.70628   0.22679   0.74999   0.00000  Uiso   1.00
O1029  O     0.68519   0.16668   0.81491   0.00000  Uiso   1.00
O1030  O     0.98148   0.16666   0.68509   0.00000  Uiso   1.00
O1031  O     0.93933   0.16667   0.81492   0.00000  Uiso   1.00
O1032  O     0.72733   0.16667   0.68508   0.00000  Uiso   1.00
C1033  C     0.00137   0.42078   0.74888   0.00000  Uiso   1.00
C1034  C     0.03635   0.35174   0.71682   0.00000  Uiso   1.00
C1035  C     0.33027   0.62393   0.74926   0.00000  Uiso   1.00
C1036  C     0.00306   0.37607   0.75074   0.00000  Uiso   1.00
C1037  C     0.18706   0.47132   0.77256   0.00000  Uiso   1.00
C1038  C     0.14627   0.52868   0.72744   0.00000  Uiso   1.00
C1039  C     0.13775   0.47076   0.77262   0.00000  Uiso   1.00
C1040  C     0.19558   0.52924   0.72738   0.00000  Uiso   1.00
C1041  C     0.30608   0.50017   0.83614   0.00000  Uiso   1.00
C1042  C     0.02725   0.49983   0.66386   0.00000  Uiso   1.00
C1043  C     0.29091   0.49773   0.88547   0.00000  Uiso   1.00
C1044  C     0.33196   0.57922   0.75112   0.00000  Uiso   1.00
C1045  C     0.04243   0.50227   0.61453   0.00000  Uiso   1.00
C1046  C     0.30605   0.47448   0.95460   0.00000  Uiso   1.00
C1047  C     0.02728   0.52552   0.54540   0.00000  Uiso   1.00
C1048  C     0.32174   0.47892   0.90835   0.00000  Uiso   1.00
C1049  C     0.01159   0.52108   0.59165   0.00000  Uiso   1.00
C1050  C     0.24426   0.51279   0.90982   0.00000  Uiso   1.00
C1051  C     0.08907   0.48721   0.59018   0.00000  Uiso   1.00
C1052  C     0.22487   0.50000   0.95422   0.00000  Uiso   1.00
C1053  C     0.10846   0.50000   0.54578   0.00000  Uiso   1.00
C1054  C     0.25779   0.48459   0.97764   0.00000  Uiso   1.00
C1055  C     0.19434   0.48971   0.54687   0.00000  Uiso   1.00
C1056  C     0.07555   0.51541   0.52236   0.00000  Uiso   1.00
C1057  C     0.17444   0.50311   0.97655   0.00000  Uiso   1.00
C1058  C     0.15889   0.49689   0.52345   0.00000  Uiso   1.00
C1059  C     0.10998   0.44906   0.60658   0.00000  Uiso   1.00
C1060  C     0.22336   0.55094   0.89342   0.00000  Uiso   1.00
C1061  C     0.27030   0.38309   0.82504   0.00000  Uiso   1.00
C1062  C     0.06304   0.61691   0.67496   0.00000  Uiso   1.00
C1063  C     0.25630   0.62996   0.81806   0.00000  Uiso   1.00
C1064  C     0.07703   0.37004   0.68194   0.00000  Uiso   1.00
C1065  C     0.11029   0.43578   0.79641   0.00000  Uiso   1.00
C1066  C     0.13899   0.51029   0.95313   0.00000  Uiso   1.00
C1067  C     0.22304   0.56422   0.70359   0.00000  Uiso   1.00
C1068  C     0.24249   0.48109   0.52406   0.00000  Uiso   1.00
C1069  C     0.09084   0.51891   0.97594   0.00000  Uiso   1.00
C1070  C     0.30158   0.35769   0.78503   0.00000  Uiso   1.00
C1071  C     0.03175   0.64231   0.71497   0.00000  Uiso   1.00
C1072  C     0.29698   0.64826   0.78318   0.00000  Uiso   1.00
Cu1073 Cu    0.04689   0.50001   0.75000   0.00000  Uiso   1.00
Cu1074 Cu    0.28645   0.49999   0.75000   0.00000  Uiso   1.00
H1075  H     0.26809   0.47265   0.54296   0.00000  Uiso   1.00
H1076  H     0.12662   0.45646   0.63409   0.00000  Uiso   1.00
H1077  H     0.08028   0.42816   0.61843   0.00000  Uiso   1.00
H1078  H     0.20671   0.54354   0.86591   0.00000  Uiso   1.00
H1079  H     0.19659   0.56851   0.92076   0.00000  Uiso   1.00
H1080  H     0.25306   0.57184   0.88157   0.00000  Uiso   1.00
H1081  H     0.18534   0.49016   0.58305   0.00000  Uiso   1.00
H1082  H     0.14800   0.50984   0.91695   0.00000  Uiso   1.00
H1083  H     0.23198   0.38419   0.82394   0.00000  Uiso   1.00
H1084  H     0.27322   0.36952   0.85689   0.00000  Uiso   1.00
H1085  H     0.28142   0.41497   0.82712   0.00000  Uiso   1.00
H1086  H     0.06524   0.52735   0.95704   0.00000  Uiso   1.00
H1087  H     0.10136   0.61581   0.67606   0.00000  Uiso   1.00
H1088  H     0.05191   0.58503   0.67288   0.00000  Uiso   1.00
H1089  H     0.06012   0.63048   0.64311   0.00000  Uiso   1.00
H1090  H     0.25282   0.59685   0.81350   0.00000  Uiso   1.00
H1091  H     0.26161   0.63509   0.85191   0.00000  Uiso   1.00
H1092  H     0.22118   0.64492   0.81699   0.00000  Uiso   1.00
H1093  H     0.08051   0.40315   0.68650   0.00000  Uiso   1.00
H1094  H     0.11216   0.35508   0.68301   0.00000  Uiso   1.00
H1095  H     0.07173   0.36491   0.64809   0.00000  Uiso   1.00
H1096  H     0.07417   0.44601   0.81717   0.00000  Uiso   1.00
H1097  H     0.30846   0.53160   0.60929   0.00000  Uiso   1.00
H1098  H     0.10819   0.41142   0.77158   0.00000  Uiso   1.00
H1099  H     0.12903   0.42128   0.81982   0.00000  Uiso   1.00
H1100  H     0.25917   0.55399   0.68283   0.00000  Uiso   1.00
H1101  H     0.20431   0.57872   0.68018   0.00000  Uiso   1.00
H1102  H     0.22514   0.58858   0.72842   0.00000  Uiso   1.00
H1103  H     0.02487   0.46840   0.89071   0.00000  Uiso   1.00
H1104  H     0.33121   0.46191   0.97214   0.00000  Uiso   1.00
H1105  H     0.00213   0.53809   0.52786   0.00000  Uiso   1.00
H1106  H     0.20246   0.44846   0.79036   0.00000  Uiso   1.00
H1107  H     0.13087   0.55154   0.70964   0.00000  Uiso   1.00
H1108  H     0.13674   0.43149   0.57924   0.00000  Uiso   1.00
N1109  N     0.11736   0.50001   0.74999   0.00000  Uiso   1.00
N1110  N     0.21597   0.49999   0.75001   0.00000  Uiso   1.00
O1111  O     0.03958   0.43989   0.75000   0.00000  Uiso   1.00
O1112  O     0.29375   0.56011   0.75000   0.00000  Uiso   1.00
O1113  O     0.29372   0.43988   0.75001   0.00000  Uiso   1.00
O1114  O     0.03961   0.56012   0.74999   0.00000  Uiso   1.00
O1115  O     0.01852   0.50001   0.81491   0.00000  Uiso   1.00
O1116  O     0.31481   0.49999   0.68509   0.00000  Uiso   1.00
O1117  O     0.27267   0.50000   0.81492   0.00000  Uiso   1.00
O1118  O     0.06067   0.50000   0.68508   0.00000  Uiso   1.00
C1119  C     0.33471   0.42078   0.74888   0.00000  Uiso   1.00
C1120  C     0.36968   0.35174   0.71682   0.00000  Uiso   1.00
C1121  C     0.66360   0.62393   0.74926   0.00000  Uiso   1.00
C1122  C     0.33640   0.37607   0.75074   0.00000  Uiso   1.00
C1123  C     0.52039   0.47132   0.77256   0.00000  Uiso   1.00
C1124  C     0.47961   0.52868   0.72744   0.00000  Uiso   1.00
C1125  C     0.47109   0.47076   0.77262   0.00000  Uiso   1.00
C1126  C     0.52891   0.52924   0.72738   0.00000  Uiso   1.00
C1127  C     0.63941   0.50017   0.83614   0.00000  Uiso   1.00
C1128  C     0.36059   0.49983   0.66386   0.00000  Uiso   1.00
C1129  C     0.62424   0.49773   0.88547   0.00000  Uiso   1.00
C1130  C     0.66529   0.57922   0.75112   0.00000  Uiso   1.00
C1131  C     0.37576   0.50227   0.61453   0.00000  Uiso   1.00
C1132  C     0.63939   0.47448   0.95460   0.00000  Uiso   1.00
C1133  C     0.36061   0.52552   0.54540   0.00000  Uiso   1.00
C1134  C     0.65507   0.47892   0.90835   0.00000  Uiso   1.00
C1135  C     0.34493   0.52108   0.59165   0.00000  Uiso   1.00
C1136  C     0.57759   0.51279   0.90982   0.00000  Uiso   1.00
C1137  C     0.42241   0.48721   0.59018   0.00000  Uiso   1.00
C1138  C     0.55820   0.50000   0.95422   0.00000  Uiso   1.00
C1139  C     0.44180   0.50000   0.54578   0.00000  Uiso   1.00
C1140  C     0.59112   0.48459   0.97764   0.00000  Uiso   1.00
C1141  C     0.52768   0.48971   0.54687   0.00000  Uiso   1.00
C1142  C     0.40888   0.51541   0.52236   0.00000  Uiso   1.00
C1143  C     0.50777   0.50311   0.97655   0.00000  Uiso   1.00
C1144  C     0.49223   0.49689   0.52345   0.00000  Uiso   1.00
C1145  C     0.44331   0.44906   0.60658   0.00000  Uiso   1.00
C1146  C     0.55669   0.55094   0.89342   0.00000  Uiso   1.00
C1147  C     0.60363   0.38309   0.82504   0.00000  Uiso   1.00
C1148  C     0.39637   0.61691   0.67496   0.00000  Uiso   1.00
C1149  C     0.58963   0.62996   0.81806   0.00000  Uiso   1.00
C1150  C     0.41037   0.37004   0.68194   0.00000  Uiso   1.00
C1151  C     0.44362   0.43578   0.79641   0.00000  Uiso   1.00
C1152  C     0.47232   0.51029   0.95313   0.00000  Uiso   1.00
C1153  C     0.55638   0.56422   0.70359   0.00000  Uiso   1.00
C1154  C     0.57583   0.48109   0.52406   0.00000  Uiso   1.00
C1155  C     0.42417   0.51891   0.97594   0.00000  Uiso   1.00
C1156  C     0.63492   0.35769   0.78503   0.00000  Uiso   1.00
C1157  C     0.36508   0.64231   0.71497   0.00000  Uiso   1.00
C1158  C     0.63032   0.64826   0.78318   0.00000  Uiso   1.00
Cu1159 Cu    0.38022   0.50001   0.75000   0.00000  Uiso   1.00
Cu1160 Cu    0.61978   0.49999   0.75000   0.00000  Uiso   1.00
H1161  H     0.60142   0.47265   0.54296   0.00000  Uiso   1.00
H1162  H     0.45995   0.45646   0.63409   0.00000  Uiso   1.00
H1163  H     0.41361   0.42816   0.61843   0.00000  Uiso   1.00
H1164  H     0.54005   0.54354   0.86591   0.00000  Uiso   1.00
H1165  H     0.52992   0.56851   0.92076   0.00000  Uiso   1.00
H1166  H     0.58639   0.57184   0.88157   0.00000  Uiso   1.00
H1167  H     0.51867   0.49016   0.58305   0.00000  Uiso   1.00
H1168  H     0.48133   0.50984   0.91695   0.00000  Uiso   1.00
H1169  H     0.56531   0.38419   0.82394   0.00000  Uiso   1.00
H1170  H     0.60656   0.36952   0.85689   0.00000  Uiso   1.00
H1171  H     0.61475   0.41497   0.82712   0.00000  Uiso   1.00
H1172  H     0.39858   0.52735   0.95704   0.00000  Uiso   1.00
H1173  H     0.43469   0.61581   0.67606   0.00000  Uiso   1.00
H1174  H     0.38525   0.58503   0.67288   0.00000  Uiso   1.00
H1175  H     0.39345   0.63048   0.64311   0.00000  Uiso   1.00
H1176  H     0.58615   0.59685   0.81350   0.00000  Uiso   1.00
H1177  H     0.59494   0.63509   0.85191   0.00000  Uiso   1.00
H1178  H     0.55451   0.64492   0.81699   0.00000  Uiso   1.00
H1179  H     0.41385   0.40315   0.68650   0.00000  Uiso   1.00
H1180  H     0.44549   0.35508   0.68301   0.00000  Uiso   1.00
H1181  H     0.40506   0.36491   0.64809   0.00000  Uiso   1.00
H1182  H     0.40750   0.44601   0.81717   0.00000  Uiso   1.00
H1183  H     0.64179   0.53160   0.60929   0.00000  Uiso   1.00
H1184  H     0.44152   0.41142   0.77158   0.00000  Uiso   1.00
H1185  H     0.46236   0.42128   0.81982   0.00000  Uiso   1.00
H1186  H     0.59250   0.55399   0.68283   0.00000  Uiso   1.00
H1187  H     0.53764   0.57872   0.68018   0.00000  Uiso   1.00
H1188  H     0.55848   0.58858   0.72842   0.00000  Uiso   1.00
H1189  H     0.35821   0.46840   0.89071   0.00000  Uiso   1.00
H1190  H     0.66454   0.46191   0.97214   0.00000  Uiso   1.00
H1191  H     0.33546   0.53809   0.52786   0.00000  Uiso   1.00
H1192  H     0.53580   0.44846   0.79036   0.00000  Uiso   1.00
H1193  H     0.46420   0.55154   0.70964   0.00000  Uiso   1.00
H1194  H     0.47008   0.43149   0.57924   0.00000  Uiso   1.00
N1195  N     0.45069   0.50001   0.74999   0.00000  Uiso   1.00
N1196  N     0.54931   0.49999   0.75001   0.00000  Uiso   1.00
O1197  O     0.37291   0.43989   0.75000   0.00000  Uiso   1.00
O1198  O     0.62709   0.56011   0.75000   0.00000  Uiso   1.00
O1199  O     0.62706   0.43988   0.75001   0.00000  Uiso   1.00
O1200  O     0.37294   0.56012   0.74999   0.00000  Uiso   1.00
O1201  O     0.35186   0.50001   0.81491   0.00000  Uiso   1.00
O1202  O     0.64814   0.49999   0.68509   0.00000  Uiso   1.00
O1203  O     0.60600   0.50000   0.81492   0.00000  Uiso   1.00
O1204  O     0.39400   0.50000   0.68508   0.00000  Uiso   1.00
C1205  C     0.66804   0.42078   0.74888   0.00000  Uiso   1.00
C1206  C     0.70302   0.35174   0.71682   0.00000  Uiso   1.00
C1207  C     0.99694   0.62393   0.74926   0.00000  Uiso   1.00
C1208  C     0.66973   0.37607   0.75074   0.00000  Uiso   1.00
C1209  C     0.85373   0.47132   0.77256   0.00000  Uiso   1.00
C1210  C     0.81294   0.52868   0.72744   0.00000  Uiso   1.00
C1211  C     0.80442   0.47076   0.77262   0.00000  Uiso   1.00
C1212  C     0.86225   0.52924   0.72738   0.00000  Uiso   1.00
C1213  C     0.97275   0.50017   0.83614   0.00000  Uiso   1.00
C1214  C     0.69392   0.49983   0.66386   0.00000  Uiso   1.00
C1215  C     0.95757   0.49773   0.88547   0.00000  Uiso   1.00
C1216  C     0.99863   0.57922   0.75112   0.00000  Uiso   1.00
C1217  C     0.70909   0.50227   0.61453   0.00000  Uiso   1.00
C1218  C     0.97272   0.47448   0.95460   0.00000  Uiso   1.00
C1219  C     0.69395   0.52552   0.54540   0.00000  Uiso   1.00
C1220  C     0.98840   0.47892   0.90835   0.00000  Uiso   1.00
C1221  C     0.67826   0.52108   0.59165   0.00000  Uiso   1.00
C1222  C     0.91093   0.51279   0.90982   0.00000  Uiso   1.00
C1223  C     0.75574   0.48721   0.59018   0.00000  Uiso   1.00
C1224  C     0.89154   0.50000   0.95422   0.00000  Uiso   1.00
C1225  C     0.77513   0.50000   0.54578   0.00000  Uiso   1.00
C1226  C     0.92445   0.48459   0.97764   0.00000  Uiso   1.00
C1227  C     0.86101   0.48971   0.54687   0.00000  Uiso   1.00
C1228  C     0.74221   0.51541   0.52236   0.00000  Uiso   1.00
C1229  C     0.84111   0.50311   0.97655   0.00000  Uiso   1.00
C1230  C     0.82556   0.49689   0.52345   0.00000  Uiso   1.00
C1231  C     0.77664   0.44906   0.60658   0.00000  Uiso   1.00
C1232  C     0.89002   0.55094   0.89342   0.00000  Uiso   1.00
C1233  C     0.93696   0.38309   0.82504   0.00000  Uiso   1.00
C1234  C     0.72970   0.61691   0.67496   0.00000  Uiso   1.00
C1235  C     0.92297   0.62996   0.81806   0.00000  Uiso   1.00
C1236  C     0.74370   0.37004   0.68194   0.00000  Uiso   1.00
C1237  C     0.77695   0.43578   0.79641   0.00000  Uiso   1.00
C1238  C     0.80566   0.51029   0.95313   0.00000  Uiso   1.00
C1239  C     0.88971   0.56422   0.70359   0.00000  Uiso   1.00
C1240  C     0.90916   0.48109   0.52406   0.00000  Uiso   1.00
C1241  C     0.75750   0.51891   0.97594   0.00000  Uiso   1.00
C1242  C     0.96825   0.35769   0.78503   0.00000  Uiso   1.00
C1243  C     0.69842   0.64231   0.71497   0.00000  Uiso   1.00
C1244  C     0.96365   0.64826   0.78318   0.00000  Uiso   1.00
Cu1245 Cu    0.71355   0.50001   0.75000   0.00000  Uiso   1.00
Cu1246 Cu    0.95311   0.49999   0.75000   0.00000  Uiso   1.00
H1247  H     0.93476   0.47265   0.54296   0.00000  Uiso   1.00
H1248  H     0.79329   0.45646   0.63409   0.00000  Uiso   1.00
H1249  H     0.74694   0.42816   0.61843   0.00000  Uiso   1.00
H1250  H     0.87338   0.54354   0.86591   0.00000  Uiso   1.00
H1251  H     0.86325   0.56851   0.92076   0.00000  Uiso   1.00
H1252  H     0.91972   0.57184   0.88157   0.00000  Uiso   1.00
H1253  H     0.85200   0.49016   0.58305   0.00000  Uiso   1.00
H1254  H     0.81466   0.50984   0.91695   0.00000  Uiso   1.00
H1255  H     0.89864   0.38419   0.82394   0.00000  Uiso   1.00
H1256  H     0.93989   0.36952   0.85689   0.00000  Uiso   1.00
H1257  H     0.94809   0.41497   0.82712   0.00000  Uiso   1.00
H1258  H     0.73191   0.52735   0.95704   0.00000  Uiso   1.00
H1259  H     0.76802   0.61581   0.67606   0.00000  Uiso   1.00
H1260  H     0.71858   0.58503   0.67288   0.00000  Uiso   1.00
H1261  H     0.72678   0.63048   0.64311   0.00000  Uiso   1.00
H1262  H     0.91949   0.59685   0.81350   0.00000  Uiso   1.00
H1263  H     0.92827   0.63509   0.85191   0.00000  Uiso   1.00
H1264  H     0.88784   0.64492   0.81699   0.00000  Uiso   1.00
H1265  H     0.74718   0.40315   0.68650   0.00000  Uiso   1.00
H1266  H     0.77882   0.35508   0.68301   0.00000  Uiso   1.00
H1267  H     0.73839   0.36491   0.64809   0.00000  Uiso   1.00
H1268  H     0.74083   0.44601   0.81717   0.00000  Uiso   1.00
H1269  H     0.97513   0.53160   0.60929   0.00000  Uiso   1.00
H1270  H     0.77486   0.41142   0.77158   0.00000  Uiso   1.00
H1271  H     0.79569   0.42128   0.81982   0.00000  Uiso   1.00
H1272  H     0.92583   0.55399   0.68283   0.00000  Uiso   1.00
H1273  H     0.87097   0.57872   0.68018   0.00000  Uiso   1.00
H1274  H     0.89181   0.58858   0.72842   0.00000  Uiso   1.00
H1275  H     0.69154   0.46840   0.89071   0.00000  Uiso   1.00
H1276  H     0.99787   0.46191   0.97214   0.00000  Uiso   1.00
H1277  H     0.66879   0.53809   0.52786   0.00000  Uiso   1.00
H1278  H     0.86913   0.44846   0.79036   0.00000  Uiso   1.00
H1279  H     0.79754   0.55154   0.70964   0.00000  Uiso   1.00
H1280  H     0.80341   0.43149   0.57924   0.00000  Uiso   1.00
N1281  N     0.78403   0.50001   0.74999   0.00000  Uiso   1.00
N1282  N     0.88264   0.49999   0.75001   0.00000  Uiso   1.00
O1283  O     0.70625   0.43989   0.75000   0.00000  Uiso   1.00
O1284  O     0.96042   0.56011   0.75000   0.00000  Uiso   1.00
O1285  O     0.96039   0.43988   0.75001   0.00000  Uiso   1.00
O1286  O     0.70628   0.56012   0.74999   0.00000  Uiso   1.00
O1287  O     0.68519   0.50001   0.81491   0.00000  Uiso   1.00
O1288  O     0.98148   0.49999   0.68509   0.00000  Uiso   1.00
O1289  O     0.93933   0.50000   0.81492   0.00000  Uiso   1.00
O1290  O     0.72733   0.50000   0.68508   0.00000  Uiso   1.00
C1291  C     0.00137   0.75411   0.74888   0.00000  Uiso   1.00
C1292  C     0.03635   0.68508   0.71682   0.00000  Uiso   1.00
C1293  C     0.33027   0.95727   0.74926   0.00000  Uiso   1.00
C1294  C     0.00306   0.70940   0.75074   0.00000  Uiso   1.00
C1295  C     0.18706   0.80466   0.77256   0.00000  Uiso   1.00
C1296  C     0.14627   0.86201   0.72744   0.00000  Uiso   1.00
C1297  C     0.13775   0.80409   0.77262   0.00000  Uiso   1.00
C1298  C     0.19558   0.86257   0.72738   0.00000  Uiso   1.00
C1299  C     0.30608   0.83350   0.83614   0.00000  Uiso   1.00
C1300  C     0.02725   0.83316   0.66386   0.00000  Uiso   1.00
C1301  C     0.29091   0.83106   0.88547   0.00000  Uiso   1.00
C1302  C     0.33196   0.91256   0.75112   0.00000  Uiso   1.00
C1303  C     0.04243   0.83561   0.61453   0.00000  Uiso   1.00
C1304  C     0.30605   0.80781   0.95460   0.00000  Uiso   1.00
C1305  C     0.02728   0.85886   0.54540   0.00000  Uiso   1.00
C1306  C     0.32174   0.81226   0.90835   0.00000  Uiso   1.00
C1307  C     0.01159   0.85441   0.59165   0.00000  Uiso   1.00
C1308  C     0.24426   0.84612   0.90982   0.00000  Uiso   1.00
C1309  C     0.08907   0.82055   0.59018   0.00000  Uiso   1.00
C1310  C     0.22487   0.83333   0.95422   0.00000  Uiso   1.00
C1311  C     0.10846   0.83334   0.54578   0.00000  Uiso   1.00
C1312  C     0.25779   0.81792   0.97764   0.00000  Uiso   1.00
C1313  C     0.19434   0.82304   0.54687   0.00000  Uiso   1.00
C1314  C     0.07555   0.84874   0.52236   0.00000  Uiso   1.00
C1315  C     0.17444   0.83644   0.97655   0.00000  Uiso   1.00
C1316  C     0.15889   0.83022   0.52345   0.00000  Uiso   1.00
C1317  C     0.10998   0.78239   0.60658   0.00000  Uiso   1.00
C1318  C     0.22336   0.88428   0.89342   0.00000  Uiso   1.00
C1319  C     0.27030   0.71643   0.82504   0.00000  Uiso   1.00
C1320  C     0.06304   0.95024   0.67496   0.00000  Uiso   1.00
C1321  C     0.25630   0.96330   0.81806   0.00000  Uiso   1.00
C1322  C     0.07703   0.70337   0.68194   0.00000  Uiso   1.00
C1323  C     0.11029   0.76912   0.79641   0.00000  Uiso   1.00
C1324  C     0.13899   0.84362   0.95313   0.00000  Uiso   1.00
C1325  C     0.22304   0.89755   0.70359   0.00000  Uiso   1.00
C1326  C     0.24249   0.81443   0.52406   0.00000  Uiso   1.00
C1327  C     0.09084   0.85224   0.97594   0.00000  Uiso   1.00
C1328  C     0.30158   0.69102   0.78503   0.00000  Uiso   1.00
C1329  C     0.03175   0.97565   0.71497   0.00000  Uiso   1.00
C1330  C     0.29698   0.98159   0.78318   0.00000  Uiso   1.00
Cu1331 Cu    0.04689   0.83334   0.75000   0.00000  Uiso   1.00
Cu1332 Cu    0.28645   0.83333   0.75000   0.00000  Uiso   1.00
H1333  H     0.26809   0.80599   0.54296   0.00000  Uiso   1.00
H1334  H     0.12662   0.78979   0.63409   0.00000  Uiso   1.00
H1335  H     0.08028   0.76149   0.61843   0.00000  Uiso   1.00
H1336  H     0.20671   0.87687   0.86591   0.00000  Uiso   1.00
H1337  H     0.19659   0.90184   0.92076   0.00000  Uiso   1.00
H1338  H     0.25306   0.90518   0.88157   0.00000  Uiso   1.00
H1339  H     0.18534   0.82349   0.58305   0.00000  Uiso   1.00
H1340  H     0.14800   0.84317   0.91695   0.00000  Uiso   1.00
H1341  H     0.23198   0.71752   0.82394   0.00000  Uiso   1.00
H1342  H     0.27322   0.70286   0.85689   0.00000  Uiso   1.00
H1343  H     0.28142   0.74831   0.82712   0.00000  Uiso   1.00
H1344  H     0.06524   0.86068   0.95704   0.00000  Uiso   1.00
H1345  H     0.10136   0.94914   0.67606   0.00000  Uiso   1.00
H1346  H     0.05191   0.91836   0.67288   0.00000  Uiso   1.00
H1347  H     0.06012   0.96381   0.64311   0.00000  Uiso   1.00
H1348  H     0.25282   0.93019   0.81350   0.00000  Uiso   1.00
H1349  H     0.26161   0.96842   0.85191   0.00000  Uiso   1.00
H1350  H     0.22118   0.97825   0.81699   0.00000  Uiso   1.00
H1351  H     0.08051   0.73648   0.68650   0.00000  Uiso   1.00
H1352  H     0.11216   0.68841   0.68301   0.00000  Uiso   1.00
H1353  H     0.07173   0.69824   0.64809   0.00000  Uiso   1.00
H1354  H     0.07417   0.77934   0.81717   0.00000  Uiso   1.00
H1355  H     0.30846   0.86493   0.60929   0.00000  Uiso   1.00
H1356  H     0.10819   0.74476   0.77158   0.00000  Uiso   1.00
H1357  H     0.12903   0.75461   0.81982   0.00000  Uiso   1.00
H1358  H     0.25917   0.88732   0.68283   0.00000  Uiso   1.00
H1359  H     0.20431   0.91206   0.68018   0.00000  Uiso   1.00
H1360  H     0.22514   0.92191   0.72842   0.00000  Uiso   1.00
H1361  H     0.02487   0.80174   0.89071   0.00000  Uiso   1.00
H1362  H     0.33121   0.79524   0.97214   0.00000  Uiso   1.00
H1363  H     0.00213   0.87142   0.52786   0.00000  Uiso   1.00
H1364  H     0.20246   0.78179   0.79036   0.00000  Uiso   1.00
H1365  H     0.13087   0.88488   0.70964   0.00000  Uiso   1.00
H1366  H     0.13674   0.76483   0.57924   0.00000  Uiso   1.00
N1367  N     0.11736   0.83334   0.74999   0.00000  Uiso   1.00
N1368  N     0.21597   0.83332   0.75001   0.00000  Uiso   1.00
O1369  O     0.03958   0.77322   0.75000   0.00000  Uiso   1.00
O1370  O     0.29375   0.89345   0.75000   0.00000  Uiso   1.00
O1371  O     0.29372   0.77321   0.75001   0.00000  Uiso   1.00
O1372  O     0.03961   0.89346   0.74999   0.00000  Uiso   1.00
O1373  O     0.01852   0.83334   0.81491   0.00000  Uiso   1.00
O1374  O     0.31481   0.83332   0.68509   0.00000  Uiso   1.00
O1375  O     0.27267   0.83333   0.81492   0.00000  Uiso   1.00
O1376  O     0.06067   0.83333   0.68508   0.00000  Uiso   1.00
C1377  C     0.33471   0.75411   0.74888   0.00000  Uiso   1.00
C1378  C     0.36968   0.68508   0.71682   0.00000  Uiso   1.00
C1379  C     0.66360   0.95727   0.74926   0.00000  Uiso   1.00
C1380  C     0.33640   0.70940   0.75074   0.00000  Uiso   1.00
C1381  C     0.52039   0.80466   0.77256   0.00000  Uiso   1.00
C1382  C     0.47961   0.86201   0.72744   0.00000  Uiso   1.00
C1383  C     0.47109   0.80409   0.77262   0.00000  Uiso   1.00
C1384  C     0.52891   0.86257   0.72738   0.00000  Uiso   1.00
C1385  C     0.63941   0.83350   0.83614   0.00000  Uiso   1.00
C1386  C     0.36059   0.83316   0.66386   0.00000  Uiso   1.00
C1387  C     0.62424   0.83106   0.88547   0.00000  Uiso   1.00
C1388  C     0.66529   0.91256   0.75112   0.00000  Uiso   1.00
C1389  C     0.37576   0.83561   0.61453   0.00000  Uiso   1.00
C1390  C     0.63939   0.80781   0.95460   0.00000  Uiso   1.00
C1391  C     0.36061   0.85886   0.54540   0.00000  Uiso   1.00
C1392  C     0.65507   0.81226   0.90835   0.00000  Uiso   1.00
C1393  C     0.34493   0.85441   0.59165   0.00000  Uiso   1.00
C1394  C     0.57759   0.84612   0.90982   0.00000  Uiso   1.00
C1395  C     0.42241   0.82055   0.59018   0.00000  Uiso   1.00
C1396  C     0.55820   0.83333   0.95422   0.00000  Uiso   1.00
C1397  C     0.44180   0.83334   0.54578   0.00000  Uiso   1.00
C1398  C     0.59112   0.81792   0.97764   0.00000  Uiso   1.00
C1399  C     0.52768   0.82304   0.54687   0.00000  Uiso   1.00
C1400  C     0.40888   0.84874   0.52236   0.00000  Uiso   1.00
C1401  C     0.50777   0.83644   0.97655   0.00000  Uiso   1.00
C1402  C     0.49223   0.83022   0.52345   0.00000  Uiso   1.00
C1403  C     0.44331   0.78239   0.60658   0.00000  Uiso   1.00
C1404  C     0.55669   0.88428   0.89342   0.00000  Uiso   1.00
C1405  C     0.60363   0.71643   0.82504   0.00000  Uiso   1.00
C1406  C     0.39637   0.95024   0.67496   0.00000  Uiso   1.00
C1407  C     0.58963   0.96330   0.81806   0.00000  Uiso   1.00
C1408  C     0.41037   0.70337   0.68194   0.00000  Uiso   1.00
C1409  C     0.44362   0.76912   0.79641   0.00000  Uiso   1.00
C1410  C     0.47232   0.84362   0.95313   0.00000  Uiso   1.00
C1411  C     0.55638   0.89755   0.70359   0.00000  Uiso   1.00
C1412  C     0.57583   0.81443   0.52406   0.00000  Uiso   1.00
C1413  C     0.42417   0.85224   0.97594   0.00000  Uiso   1.00
C1414  C     0.63492   0.69102   0.78503   0.00000  Uiso   1.00
C1415  C     0.36508   0.97565   0.71497   0.00000  Uiso   1.00
C1416  C     0.63032   0.98159   0.78318   0.00000  Uiso   1.00
Cu1417 Cu    0.38022   0.83334   0.75000   0.00000  Uiso   1.00
Cu1418 Cu    0.61978   0.83333   0.75000   0.00000  Uiso   1.00
H1419  H     0.60142   0.80599   0.54296   0.00000  Uiso   1.00
H1420  H     0.45995   0.78979   0.63409   0.00000  Uiso   1.00
H1421  H     0.41361   0.76149   0.61843   0.00000  Uiso   1.00
H1422  H     0.54005   0.87687   0.86591   0.00000  Uiso   1.00
H1423  H     0.52992   0.90184   0.92076   0.00000  Uiso   1.00
H1424  H     0.58639   0.90518   0.88157   0.00000  Uiso   1.00
H1425  H     0.51867   0.82349   0.58305   0.00000  Uiso   1.00
H1426  H     0.48133   0.84317   0.91695   0.00000  Uiso   1.00
H1427  H     0.56531   0.71752   0.82394   0.00000  Uiso   1.00
H1428  H     0.60656   0.70286   0.85689   0.00000  Uiso   1.00
H1429  H     0.61475   0.74831   0.82712   0.00000  Uiso   1.00
H1430  H     0.39858   0.86068   0.95704   0.00000  Uiso   1.00
H1431  H     0.43469   0.94914   0.67606   0.00000  Uiso   1.00
H1432  H     0.38525   0.91836   0.67288   0.00000  Uiso   1.00
H1433  H     0.39345   0.96381   0.64311   0.00000  Uiso   1.00
H1434  H     0.58615   0.93019   0.81350   0.00000  Uiso   1.00
H1435  H     0.59494   0.96842   0.85191   0.00000  Uiso   1.00
H1436  H     0.55451   0.97825   0.81699   0.00000  Uiso   1.00
H1437  H     0.41385   0.73648   0.68650   0.00000  Uiso   1.00
H1438  H     0.44549   0.68841   0.68301   0.00000  Uiso   1.00
H1439  H     0.40506   0.69824   0.64809   0.00000  Uiso   1.00
H1440  H     0.40750   0.77934   0.81717   0.00000  Uiso   1.00
H1441  H     0.64179   0.86493   0.60929   0.00000  Uiso   1.00
H1442  H     0.44152   0.74476   0.77158   0.00000  Uiso   1.00
H1443  H     0.46236   0.75461   0.81982   0.00000  Uiso   1.00
H1444  H     0.59250   0.88732   0.68283   0.00000  Uiso   1.00
H1445  H     0.53764   0.91206   0.68018   0.00000  Uiso   1.00
H1446  H     0.55848   0.92191   0.72842   0.00000  Uiso   1.00
H1447  H     0.35821   0.80174   0.89071   0.00000  Uiso   1.00
H1448  H     0.66454   0.79524   0.97214   0.00000  Uiso   1.00
H1449  H     0.33546   0.87142   0.52786   0.00000  Uiso   1.00
H1450  H     0.53580   0.78179   0.79036   0.00000  Uiso   1.00
H1451  H     0.46420   0.88488   0.70964   0.00000  Uiso   1.00
H1452  H     0.47008   0.76483   0.57924   0.00000  Uiso   1.00
N1453  N     0.45069   0.83334   0.74999   0.00000  Uiso   1.00
N1454  N     0.54931   0.83332   0.75001   0.00000  Uiso   1.00
O1455  O     0.37291   0.77322   0.75000   0.00000  Uiso   1.00
O1456  O     0.62709   0.89345   0.75000   0.00000  Uiso   1.00
O1457  O     0.62706   0.77321   0.75001   0.00000  Uiso   1.00
O1458  O     0.37294   0.89346   0.74999   0.00000  Uiso   1.00
O1459  O     0.35186   0.83334   0.81491   0.00000  Uiso   1.00
O1460  O     0.64814   0.83332   0.68509   0.00000  Uiso   1.00
O1461  O     0.60600   0.83333   0.81492   0.00000  Uiso   1.00
O1462  O     0.39400   0.83333   0.68508   0.00000  Uiso   1.00
C1463  C     0.66804   0.75411   0.74888   0.00000  Uiso   1.00
C1464  C     0.70302   0.68508   0.71682   0.00000  Uiso   1.00
C1465  C     0.99694   0.95727   0.74926   0.00000  Uiso   1.00
C1466  C     0.66973   0.70940   0.75074   0.00000  Uiso   1.00
C1467  C     0.85373   0.80466   0.77256   0.00000  Uiso   1.00
C1468  C     0.81294   0.86201   0.72744   0.00000  Uiso   1.00
C1469  C     0.80442   0.80409   0.77262   0.00000  Uiso   1.00
C1470  C     0.86225   0.86257   0.72738   0.00000  Uiso   1.00
C1471  C     0.97275   0.83350   0.83614   0.00000  Uiso   1.00
C1472  C     0.69392   0.83316   0.66386   0.00000  Uiso   1.00
C1473  C     0.95757   0.83106   0.88547   0.00000  Uiso   1.00
C1474  C     0.99863   0.91256   0.75112   0.00000  Uiso   1.00
C1475  C     0.70909   0.83561   0.61453   0.00000  Uiso   1.00
C1476  C     0.97272   0.80781   0.95460   0.00000  Uiso   1.00
C1477  C     0.69395   0.85886   0.54540   0.00000  Uiso   1.00
C1478  C     0.98840   0.81226   0.90835   0.00000  Uiso   1.00
C1479  C     0.67826   0.85441   0.59165   0.00000  Uiso   1.00
C1480  C     0.91093   0.84612   0.90982   0.00000  Uiso   1.00
C1481  C     0.75574   0.82055   0.59018   0.00000  Uiso   1.00
C1482  C     0.89154   0.83333   0.95422   0.00000  Uiso   1.00
C1483  C     0.77513   0.83334   0.54578   0.00000  Uiso   1.00
C1484  C     0.92445   0.81792   0.97764   0.00000  Uiso   1.00
C1485  C     0.86101   0.82304   0.54687   0.00000  Uiso   1.00
C1486  C     0.74221   0.84874   0.52236   0.00000  Uiso   1.00
C1487  C     0.84111   0.83644   0.97655   0.00000  Uiso   1.00
C1488  C     0.82556   0.83022   0.52345   0.00000  Uiso   1.00
C1489  C     0.77664   0.78239   0.60658   0.00000  Uiso   1.00
C1490  C     0.89002   0.88428   0.89342   0.00000  Uiso   1.00
C1491  C     0.93696   0.71643   0.82504   0.00000  Uiso   1.00
C1492  C     0.72970   0.95024   0.67496   0.00000  Uiso   1.00
C1493  C     0.92297   0.96330   0.81806   0.00000  Uiso   1.00
C1494  C     0.74370   0.70337   0.68194   0.00000  Uiso   1.00
C1495  C     0.77695   0.76912   0.79641   0.00000  Uiso   1.00
C1496  C     0.80566   0.84362   0.95313   0.00000  Uiso   1.00
C1497  C     0.88971   0.89755   0.70359   0.00000  Uiso   1.00
C1498  C     0.90916   0.81443   0.52406   0.00000  Uiso   1.00
C1499  C     0.75750   0.85224   0.97594   0.00000  Uiso   1.00
C1500  C     0.96825   0.69102   0.78503   0.00000  Uiso   1.00
C1501  C     0.69842   0.97565   0.71497   0.00000  Uiso   1.00
C1502  C     0.96365   0.98159   0.78318   0.00000  Uiso   1.00
Cu1503 Cu    0.71355   0.83334   0.75000   0.00000  Uiso   1.00
Cu1504 Cu    0.95311   0.83333   0.75000   0.00000  Uiso   1.00
H1505  H     0.93476   0.80599   0.54296   0.00000  Uiso   1.00
H1506  H     0.79329   0.78979   0.63409   0.00000  Uiso   1.00
H1507  H     0.74694   0.76149   0.61843   0.00000  Uiso   1.00
H1508  H     0.87338   0.87687   0.86591   0.00000  Uiso   1.00
H1509  H     0.86325   0.90184   0.92076   0.00000  Uiso   1.00
H1510  H     0.91972   0.90518   0.88157   0.00000  Uiso   1.00
H1511  H     0.85200   0.82349   0.58305   0.00000  Uiso   1.00
H1512  H     0.81466   0.84317   0.91695   0.00000  Uiso   1.00
H1513  H     0.89864   0.71752   0.82394   0.00000  Uiso   1.00
H1514  H     0.93989   0.70286   0.85689   0.00000  Uiso   1.00
H1515  H     0.94809   0.74831   0.82712   0.00000  Uiso   1.00
H1516  H     0.73191   0.86068   0.95704   0.00000  Uiso   1.00
H1517  H     0.76802   0.94914   0.67606   0.00000  Uiso   1.00
H1518  H     0.71858   0.91836   0.67288   0.00000  Uiso   1.00
H1519  H     0.72678   0.96381   0.64311   0.00000  Uiso   1.00
H1520  H     0.91949   0.93019   0.81350   0.00000  Uiso   1.00
H1521  H     0.92827   0.96842   0.85191   0.00000  Uiso   1.00
H1522  H     0.88784   0.97825   0.81699   0.00000  Uiso   1.00
H1523  H     0.74718   0.73648   0.68650   0.00000  Uiso   1.00
H1524  H     0.77882   0.68841   0.68301   0.00000  Uiso   1.00
H1525  H     0.73839   0.69824   0.64809   0.00000  Uiso   1.00
H1526  H     0.74083   0.77934   0.81717   0.00000  Uiso   1.00
H1527  H     0.97513   0.86493   0.60929   0.00000  Uiso   1.00
H1528  H     0.77486   0.74476   0.77158   0.00000  Uiso   1.00
H1529  H     0.79569   0.75461   0.81982   0.00000  Uiso   1.00
H1530  H     0.92583   0.88732   0.68283   0.00000  Uiso   1.00
H1531  H     0.87097   0.91206   0.68018   0.00000  Uiso   1.00
H1532  H     0.89181   0.92191   0.72842   0.00000  Uiso   1.00
H1533  H     0.69154   0.80174   0.89071   0.00000  Uiso   1.00
H1534  H     0.99787   0.79524   0.97214   0.00000  Uiso   1.00
H1535  H     0.66879   0.87142   0.52786   0.00000  Uiso   1.00
H1536  H     0.86913   0.78179   0.79036   0.00000  Uiso   1.00
H1537  H     0.79754   0.88488   0.70964   0.00000  Uiso   1.00
H1538  H     0.80341   0.76483   0.57924   0.00000  Uiso   1.00
N1539  N     0.78403   0.83334   0.74999   0.00000  Uiso   1.00
N1540  N     0.88264   0.83332   0.75001   0.00000  Uiso   1.00
O1541  O     0.70625   0.77322   0.75000   0.00000  Uiso   1.00
O1542  O     0.96042   0.89345   0.75000   0.00000  Uiso   1.00
O1543  O     0.96039   0.77321   0.75001   0.00000  Uiso   1.00
O1544  O     0.70628   0.89346   0.74999   0.00000  Uiso   1.00
O1545  O     0.68519   0.83334   0.81491   0.00000  Uiso   1.00
O1546  O     0.98148   0.83332   0.68509   0.00000  Uiso   1.00
O1547  O     0.93933   0.83333   0.81492   0.00000  Uiso   1.00
O1548  O     0.72733   0.83333   0.68508   0.00000  Uiso   1.00
loop_
_geom_bond_atom_site_label_1
_geom_bond_atom_site_label_2
_geom_bond_distance
_geom_bond_site_symmetry_2
_ccdc_geom_bond_type
C1     O79     1.294   .     A
C1     C4      1.458   .     S
C1     O253    1.299   1_455 S
C2     C32     1.516   .     S
C2     C4      1.418   .     A
C2     C555    1.406   1_545 S
C3     C12     1.458   .     S
C3     C40     1.418   .     A
C3     C125    1.412   .     S
C4     C210    1.412   1_455 S
C5     H74     1.082   .     S
C5     C7      1.417   .     A
C5     N78     1.353   .     A
C6     H75     1.082   .     S
C6     N77     1.353   .     A
C6     C8      1.417   .     A
C7     N77     1.391   .     A
C7     C33     1.504   .     S
C8     N78     1.391   .     A
C8     C35     1.504   .     S
C9     O85     1.299   .     A
C9     C11     1.476   .     S
C9     O169    1.304   .     S
C10    O86     1.299   .     A
C10    C13     1.476   .     S
C10    O256    1.304   1_455 S
C11    C18     1.413   .     A
C11    C16     1.401   .     A
C12    O80     1.294   .     A
C12    O168    1.299   .     S
C13    C19     1.413   .     A
C13    C17     1.401   .     A
C14    C16     1.393   .     A
C14    H72     1.084   .     S
C14    C22     1.402   .     A
C15    C24     1.402   .     A
C15    H73     1.084   .     S
C15    C17     1.393   .     A
C16    H157    1.082   .     S
C17    H237    1.082   1_455 S
C18    C28     1.511   .     S
C18    C20     1.416   .     A
C19    C21     1.416   .     A
C19    C27     1.511   .     S
C20    C25     1.428   .     A
C20    C22     1.417   .     A
C21    C26     1.428   .     A
C21    C24     1.417   .     A
C22    C810    1.393   .     S
C23    H49     1.079   .     S
C23    C26     1.413   .     A
C23    C36     1.389   .     A
C24    C811    1.393   1_554 S
C25    C34     1.413   .     A
C25    C800    1.421   .     S
C26    C799    1.421   1_554 S
C27    H44     1.109   .     S
C27    H45     1.104   .     S
C27    H76     1.109   .     S
C28    H47     1.109   .     S
C28    H46     1.109   .     S
C28    H48     1.104   .     S
C29    C38     1.526   .     S
C29    H51     1.110   .     S
C29    H53     1.105   .     S
C29    H52     1.109   .     S
C30    H57     1.109   .     S
C30    H56     1.105   .     S
C30    H55     1.110   .     S
C30    C39     1.526   .     S
C31    H58     1.097   .     S
C31    C40     1.516   .     S
C31    H59     1.108   .     S
C31    H60     1.110   .     S
C32    H61     1.097   .     S
C32    H63     1.108   .     S
C32    H62     1.110   .     S
C33    H66     1.109   .     S
C33    H67     1.111   .     S
C33    H64     1.099   .     S
C34    C37     1.389   .     A
C34    H50     1.079   .     S
C35    H70     1.109   .     S
C35    H68     1.099   .     S
C35    H69     1.111   .     S
C36    H43     1.084   .     S
C36    C796    1.393   1_554 S
C37    H54     1.084   .     S
C37    C798    1.393   .     S
C38    C90     1.412   .     S
C38    C556    1.406   1_545 S
C39    C175    1.412   1_455 S
C39    C260    1.406   .     S
C40    C296    1.406   .     S
Cu41   O86     1.940   .     S
Cu41   N77     2.025   .     S
Cu41   O83     1.955   .     S
Cu41   O79     1.978   .     S
Cu41   O82     1.960   .     S
Cu41   Cu214   2.695   1_455 S
Cu42   O80     1.978   .     S
Cu42   O81     1.960   .     S
Cu42   O84     1.955   .     S
Cu42   O85     1.940   .     S
Cu42   N78     2.025   .     S
Cu42   Cu127   2.695   .     S
H65    C103    1.082   .     S
H71    C188    1.082   1_455 S
O81    C87     1.299   .     S
O82    C184    1.299   1_455 S
O83    C181    1.304   1_455 S
O84    C96     1.304   .     S
C87    O165    1.294   .     A
C87    C90     1.458   .     S
C88    C118    1.516   .     S
C88    C90     1.418   .     A
C88    C641    1.406   1_545 S
C89    C98     1.458   .     S
C89    C126    1.418   .     A
C89    C211    1.412   .     S
C91    H160    1.082   .     S
C91    C93     1.417   .     A
C91    N164    1.353   .     A
C92    H161    1.082   .     S
C92    N163    1.353   .     A
C92    C94     1.417   .     A
C93    N163    1.391   .     A
C93    C119    1.504   .     S
C94    N164    1.391   .     A
C94    C121    1.504   .     S
C95    O171    1.299   .     A
C95    C97     1.476   .     S
C95    O255    1.304   .     S
C96    O172    1.299   .     A
C96    C99     1.476   .     S
C97    C104    1.413   .     A
C97    C102    1.401   .     A
C98    O166    1.294   .     A
C98    O254    1.299   .     S
C99    C105    1.413   .     A
C99    C103    1.401   .     A
C100   C102    1.393   .     A
C100   H158    1.084   .     S
C100   C108    1.402   .     A
C101   C110    1.402   .     A
C101   H159    1.084   .     S
C101   C103    1.393   .     A
C102   H243    1.082   .     S
C104   C114    1.511   .     S
C104   C106    1.416   .     A
C105   C107    1.416   .     A
C105   C113    1.511   .     S
C106   C111    1.428   .     A
C106   C108    1.417   .     A
C107   C112    1.428   .     A
C107   C110    1.417   .     A
C108   C896    1.393   .     S
C109   H135    1.079   .     S
C109   C112    1.413   .     A
C109   C122    1.389   .     A
C110   C897    1.393   1_554 S
C111   C120    1.413   .     A
C111   C886    1.421   .     S
C112   C885    1.421   1_554 S
C113   H130    1.109   .     S
C113   H131    1.104   .     S
C113   H162    1.109   .     S
C114   H133    1.109   .     S
C114   H132    1.109   .     S
C114   H134    1.104   .     S
C115   C124    1.526   .     S
C115   H137    1.110   .     S
C115   H139    1.105   .     S
C115   H138    1.109   .     S
C116   H143    1.109   .     S
C116   H142    1.105   .     S
C116   H141    1.110   .     S
C116   C125    1.526   .     S
C117   H144    1.097   .     S
C117   C126    1.516   .     S
C117   H145    1.108   .     S
C117   H146    1.110   .     S
C118   H147    1.097   .     S
C118   H149    1.108   .     S
C118   H148    1.110   .     S
C119   H152    1.109   .     S
C119   H153    1.111   .     S
C119   H150    1.099   .     S
C120   C123    1.389   .     A
C120   H136    1.079   .     S
C121   H156    1.109   .     S
C121   H154    1.099   .     S
C121   H155    1.111   .     S
C122   H129    1.084   .     S
C122   C882    1.393   1_554 S
C123   H140    1.084   .     S
C123   C884    1.393   .     S
C124   C176    1.412   .     S
C124   C642    1.406   1_545 S
C125   C346    1.406   .     S
C126   C382    1.406   .     S
Cu127  O172    1.940   .     S
Cu127  N163    2.025   .     S
Cu127  O169    1.955   .     S
Cu127  O165    1.978   .     S
Cu127  O168    1.960   .     S
Cu128  O166    1.978   .     S
Cu128  O167    1.960   .     S
Cu128  O170    1.955   .     S
Cu128  O171    1.940   .     S
Cu128  N164    2.025   .     S
Cu128  Cu213   2.695   .     S
H151   C189    1.082   .     S
O167   C173    1.299   .     S
O170   C182    1.304   .     S
C173   O251    1.294   .     A
C173   C176    1.458   .     S
C174   C204    1.516   .     S
C174   C176    1.418   .     A
C174   C727    1.406   1_545 S
C175   C184    1.458   .     S
C175   C212    1.418   .     A
C175   C39     1.412   1_655 S
C177   H246    1.082   .     S
C177   C179    1.417   .     A
C177   N250    1.353   .     A
C178   H247    1.082   .     S
C178   N249    1.353   .     A
C178   C180    1.417   .     A
C179   N249    1.391   .     A
C179   C205    1.504   .     S
C180   N250    1.391   .     A
C180   C207    1.504   .     S
C181   O257    1.299   .     A
C181   C183    1.476   .     S
C181   O83     1.304   1_655 S
C182   O258    1.299   .     A
C182   C185    1.476   .     S
C183   C190    1.413   .     A
C183   C188    1.401   .     A
C184   O252    1.294   .     A
C184   O82     1.299   1_655 S
C185   C191    1.413   .     A
C185   C189    1.401   .     A
C186   C188    1.393   .     A
C186   H244    1.084   .     S
C186   C194    1.402   .     A
C187   C196    1.402   .     A
C187   H245    1.084   .     S
C187   C189    1.393   .     A
C188   H71     1.082   1_655 S
C190   C200    1.511   .     S
C190   C192    1.416   .     A
C191   C193    1.416   .     A
C191   C199    1.511   .     S
C192   C197    1.428   .     A
C192   C194    1.417   .     A
C193   C198    1.428   .     A
C193   C196    1.417   .     A
C194   C982    1.393   .     S
C195   H221    1.079   .     S
C195   C198    1.413   .     A
C195   C208    1.389   .     A
C196   C983    1.393   1_554 S
C197   C206    1.413   .     A
C197   C972    1.421   .     S
C198   C971    1.421   1_554 S
C199   H216    1.109   .     S
C199   H217    1.104   .     S
C199   H248    1.109   .     S
C200   H219    1.109   .     S
C200   H218    1.109   .     S
C200   H220    1.104   .     S
C201   C210    1.526   .     S
C201   H223    1.110   .     S
C201   H225    1.105   .     S
C201   H224    1.109   .     S
C202   H229    1.109   .     S
C202   H228    1.105   .     S
C202   H227    1.110   .     S
C202   C211    1.526   .     S
C203   H230    1.097   .     S
C203   C212    1.516   .     S
C203   H231    1.108   .     S
C203   H232    1.110   .     S
C204   H233    1.097   .     S
C204   H235    1.108   .     S
C204   H234    1.110   .     S
C205   H238    1.109   .     S
C205   H239    1.111   .     S
C205   H236    1.099   .     S
C206   C209    1.389   .     A
C206   H222    1.079   .     S
C207   H242    1.109   .     S
C207   H240    1.099   .     S
C207   H241    1.111   .     S
C208   H215    1.084   .     S
C208   C968    1.393   1_554 S
C209   H226    1.084   .     S
C209   C970    1.393   .     S
C210   C4      1.412   1_655 S
C210   C728    1.406   1_545 S
C211   C432    1.406   .     S
C212   C468    1.406   .     S
Cu213  O258    1.940   .     S
Cu213  N249    2.025   .     S
Cu213  O255    1.955   .     S
Cu213  O251    1.978   .     S
Cu213  O254    1.960   .     S
Cu214  O252    1.978   .     S
Cu214  O253    1.960   .     S
Cu214  O256    1.955   .     S
Cu214  O257    1.940   .     S
Cu214  N250    2.025   .     S
Cu214  Cu41    2.695   1_655 S
H237   C17     1.082   1_655 S
O253   C1      1.299   1_655 S
O256   C10     1.304   1_655 S
C259   O337    1.294   .     A
C259   C262    1.458   .     S
C259   O511    1.299   1_455 S
C260   C290    1.516   .     S
C260   C262    1.418   .     A
C261   C270    1.458   .     S
C261   C298    1.418   .     A
C261   C383    1.412   .     S
C262   C468    1.412   1_455 S
C263   H332    1.082   .     S
C263   C265    1.417   .     A
C263   N336    1.353   .     A
C264   H333    1.082   .     S
C264   N335    1.353   .     A
C264   C266    1.417   .     A
C265   N335    1.391   .     A
C265   C291    1.504   .     S
C266   N336    1.391   .     A
C266   C293    1.504   .     S
C267   O343    1.299   .     A
C267   C269    1.476   .     S
C267   O427    1.304   .     S
C268   O344    1.299   .     A
C268   C271    1.476   .     S
C268   O514    1.304   1_455 S
C269   C276    1.413   .     A
C269   C274    1.401   .     A
C270   O338    1.294   .     A
C270   O426    1.299   .     S
C271   C277    1.413   .     A
C271   C275    1.401   .     A
C272   C274    1.393   .     A
C272   H330    1.084   .     S
C272   C280    1.402   .     A
C273   C282    1.402   .     A
C273   H331    1.084   .     S
C273   C275    1.393   .     A
C274   H415    1.082   .     S
C275   H495    1.082   1_455 S
C276   C286    1.511   .     S
C276   C278    1.416   .     A
C277   C279    1.416   .     A
C277   C285    1.511   .     S
C278   C283    1.428   .     A
C278   C280    1.417   .     A
C279   C284    1.428   .     A
C279   C282    1.417   .     A
C280   C1068   1.393   .     S
C281   H307    1.079   .     S
C281   C284    1.413   .     A
C281   C294    1.389   .     A
C282   C1069   1.393   1_554 S
C283   C292    1.413   .     A
C283   C1058   1.421   .     S
C284   C1057   1.421   1_554 S
C285   H302    1.109   .     S
C285   H303    1.104   .     S
C285   H334    1.109   .     S
C286   H305    1.109   .     S
C286   H304    1.109   .     S
C286   H306    1.104   .     S
C287   C296    1.526   .     S
C287   H309    1.110   .     S
C287   H311    1.105   .     S
C287   H310    1.109   .     S
C288   H315    1.109   .     S
C288   H314    1.105   .     S
C288   H313    1.110   .     S
C288   C297    1.526   .     S
C289   H316    1.097   .     S
C289   C298    1.516   .     S
C289   H317    1.108   .     S
C289   H318    1.110   .     S
C290   H319    1.097   .     S
C290   H321    1.108   .     S
C290   H320    1.110   .     S
C291   H324    1.109   .     S
C291   H325    1.111   .     S
C291   H322    1.099   .     S
C292   C295    1.389   .     A
C292   H308    1.079   .     S
C293   H328    1.109   .     S
C293   H326    1.099   .     S
C293   H327    1.111   .     S
C294   H301    1.084   .     S
C294   C1054   1.393   1_554 S
C295   H312    1.084   .     S
C295   C1056   1.393   .     S
C296   C348    1.412   .     S
C297   C433    1.412   1_455 S
C297   C518    1.406   .     S
C298   C554    1.406   .     S
Cu299  O344    1.940   .     S
Cu299  N335    2.025   .     S
Cu299  O341    1.955   .     S
Cu299  O337    1.978   .     S
Cu299  O340    1.960   .     S
Cu299  Cu472   2.695   1_455 S
Cu300  O338    1.978   .     S
Cu300  O339    1.960   .     S
Cu300  O342    1.955   .     S
Cu300  O343    1.940   .     S
Cu300  N336    2.025   .     S
Cu300  Cu385   2.695   .     S
H323   C361    1.082   .     S
H329   C446    1.082   1_455 S
O339   C345    1.299   .     S
O340   C442    1.299   1_455 S
O341   C439    1.304   1_455 S
O342   C354    1.304   .     S
C345   O423    1.294   .     A
C345   C348    1.458   .     S
C346   C376    1.516   .     S
C346   C348    1.418   .     A
C347   C356    1.458   .     S
C347   C384    1.418   .     A
C347   C469    1.412   .     S
C349   H418    1.082   .     S
C349   C351    1.417   .     A
C349   N422    1.353   .     A
C350   H419    1.082   .     S
C350   N421    1.353   .     A
C350   C352    1.417   .     A
C351   N421    1.391   .     A
C351   C377    1.504   .     S
C352   N422    1.391   .     A
C352   C379    1.504   .     S
C353   O429    1.299   .     A
C353   C355    1.476   .     S
C353   O513    1.304   .     S
C354   O430    1.299   .     A
C354   C357    1.476   .     S
C355   C362    1.413   .     A
C355   C360    1.401   .     A
C356   O424    1.294   .     A
C356   O512    1.299   .     S
C357   C363    1.413   .     A
C357   C361    1.401   .     A
C358   C360    1.393   .     A
C358   H416    1.084   .     S
C358   C366    1.402   .     A
C359   C368    1.402   .     A
C359   H417    1.084   .     S
C359   C361    1.393   .     A
C360   H501    1.082   .     S
C362   C372    1.511   .     S
C362   C364    1.416   .     A
C363   C365    1.416   .     A
C363   C371    1.511   .     S
C364   C369    1.428   .     A
C364   C366    1.417   .     A
C365   C370    1.428   .     A
C365   C368    1.417   .     A
C366   C1154   1.393   .     S
C367   H393    1.079   .     S
C367   C370    1.413   .     A
C367   C380    1.389   .     A
C368   C1155   1.393   1_554 S
C369   C378    1.413   .     A
C369   C1144   1.421   .     S
C370   C1143   1.421   1_554 S
C371   H388    1.109   .     S
C371   H389    1.104   .     S
C371   H420    1.109   .     S
C372   H391    1.109   .     S
C372   H390    1.109   .     S
C372   H392    1.104   .     S
C373   C382    1.526   .     S
C373   H395    1.110   .     S
C373   H397    1.105   .     S
C373   H396    1.109   .     S
C374   H401    1.109   .     S
C374   H400    1.105   .     S
C374   H399    1.110   .     S
C374   C383    1.526   .     S
C375   H402    1.097   .     S
C375   C384    1.516   .     S
C375   H403    1.108   .     S
C375   H404    1.110   .     S
C376   H405    1.097   .     S
C376   H407    1.108   .     S
C376   H406    1.110   .     S
C377   H410    1.109   .     S
C377   H411    1.111   .     S
C377   H408    1.099   .     S
C378   C381    1.389   .     A
C378   H394    1.079   .     S
C379   H414    1.109   .     S
C379   H412    1.099   .     S
C379   H413    1.111   .     S
C380   H387    1.084   .     S
C380   C1140   1.393   1_554 S
C381   H398    1.084   .     S
C381   C1142   1.393   .     S
C382   C434    1.412   .     S
C383   C604    1.406   .     S
C384   C640    1.406   .     S
Cu385  O430    1.940   .     S
Cu385  N421    2.025   .     S
Cu385  O427    1.955   .     S
Cu385  O423    1.978   .     S
Cu385  O426    1.960   .     S
Cu386  O424    1.978   .     S
Cu386  O425    1.960   .     S
Cu386  O428    1.955   .     S
Cu386  O429    1.940   .     S
Cu386  N422    2.025   .     S
Cu386  Cu471   2.695   .     S
H409   C447    1.082   .     S
O425   C431    1.299   .     S
O428   C440    1.304   .     S
C431   O509    1.294   .     A
C431   C434    1.458   .     S
C432   C462    1.516   .     S
C432   C434    1.418   .     A
C433   C442    1.458   .     S
C433   C470    1.418   .     A
C433   C297    1.412   1_655 S
C435   H504    1.082   .     S
C435   C437    1.417   .     A
C435   N508    1.353   .     A
C436   H505    1.082   .     S
C436   N507    1.353   .     A
C436   C438    1.417   .     A
C437   N507    1.391   .     A
C437   C463    1.504   .     S
C438   N508    1.391   .     A
C438   C465    1.504   .     S
C439   O515    1.299   .     A
C439   C441    1.476   .     S
C439   O341    1.304   1_655 S
C440   O516    1.299   .     A
C440   C443    1.476   .     S
C441   C448    1.413   .     A
C441   C446    1.401   .     A
C442   O510    1.294   .     A
C442   O340    1.299   1_655 S
C443   C449    1.413   .     A
C443   C447    1.401   .     A
C444   C446    1.393   .     A
C444   H502    1.084   .     S
C444   C452    1.402   .     A
C445   C454    1.402   .     A
C445   H503    1.084   .     S
C445   C447    1.393   .     A
C446   H329    1.082   1_655 S
C448   C458    1.511   .     S
C448   C450    1.416   .     A
C449   C451    1.416   .     A
C449   C457    1.511   .     S
C450   C455    1.428   .     A
C450   C452    1.417   .     A
C451   C456    1.428   .     A
C451   C454    1.417   .     A
C452   C1240   1.393   .     S
C453   H479    1.079   .     S
C453   C456    1.413   .     A
C453   C466    1.389   .     A
C454   C1241   1.393   1_554 S
C455   C464    1.413   .     A
C455   C1230   1.421   .     S
C456   C1229   1.421   1_554 S
C457   H474    1.109   .     S
C457   H475    1.104   .     S
C457   H506    1.109   .     S
C458   H477    1.109   .     S
C458   H476    1.109   .     S
C458   H478    1.104   .     S
C459   C468    1.526   .     S
C459   H481    1.110   .     S
C459   H483    1.105   .     S
C459   H482    1.109   .     S
C460   H487    1.109   .     S
C460   H486    1.105   .     S
C460   H485    1.110   .     S
C460   C469    1.526   .     S
C461   H488    1.097   .     S
C461   C470    1.516   .     S
C461   H489    1.108   .     S
C461   H490    1.110   .     S
C462   H491    1.097   .     S
C462   H493    1.108   .     S
C462   H492    1.110   .     S
C463   H496    1.109   .     S
C463   H497    1.111   .     S
C463   H494    1.099   .     S
C464   C467    1.389   .     A
C464   H480    1.079   .     S
C465   H500    1.109   .     S
C465   H498    1.099   .     S
C465   H499    1.111   .     S
C466   H473    1.084   .     S
C466   C1226   1.393   1_554 S
C467   H484    1.084   .     S
C467   C1228   1.393   .     S
C468   C262    1.412   1_655 S
C469   C690    1.406   .     S
C470   C726    1.406   .     S
Cu471  O516    1.940   .     S
Cu471  N507    2.025   .     S
Cu471  O513    1.955   .     S
Cu471  O509    1.978   .     S
Cu471  O512    1.960   .     S
Cu472  O510    1.978   .     S
Cu472  O511    1.960   .     S
Cu472  O514    1.955   .     S
Cu472  O515    1.940   .     S
Cu472  N508    2.025   .     S
Cu472  Cu299   2.695   1_655 S
H495   C275    1.082   1_655 S
O511   C259    1.299   1_655 S
O514   C268    1.304   1_655 S
C517   O595    1.294   .     A
C517   C520    1.458   .     S
C517   O769    1.299   1_455 S
C518   C548    1.516   .     S
C518   C520    1.418   .     A
C519   C528    1.458   .     S
C519   C556    1.418   .     A
C519   C641    1.412   .     S
C520   C726    1.412   1_455 S
C521   H590    1.082   .     S
C521   C523    1.417   .     A
C521   N594    1.353   .     A
C522   H591    1.082   .     S
C522   N593    1.353   .     A
C522   C524    1.417   .     A
C523   N593    1.391   .     A
C523   C549    1.504   .     S
C524   N594    1.391   .     A
C524   C551    1.504   .     S
C525   O601    1.299   .     A
C525   C527    1.476   .     S
C525   O685    1.304   .     S
C526   O602    1.299   .     A
C526   C529    1.476   .     S
C526   O772    1.304   1_455 S
C527   C534    1.413   .     A
C527   C532    1.401   .     A
C528   O596    1.294   .     A
C528   O684    1.299   .     S
C529   C535    1.413   .     A
C529   C533    1.401   .     A
C530   C532    1.393   .     A
C530   H588    1.084   .     S
C530   C538    1.402   .     A
C531   C540    1.402   .     A
C531   H589    1.084   .     S
C531   C533    1.393   .     A
C532   H673    1.082   .     S
C533   H753    1.082   1_455 S
C534   C544    1.511   .     S
C534   C536    1.416   .     A
C535   C537    1.416   .     A
C535   C543    1.511   .     S
C536   C541    1.428   .     A
C536   C538    1.417   .     A
C537   C542    1.428   .     A
C537   C540    1.417   .     A
C538   C1326   1.393   .     S
C539   H565    1.079   .     S
C539   C542    1.413   .     A
C539   C552    1.389   .     A
C540   C1327   1.393   1_554 S
C541   C550    1.413   .     A
C541   C1316   1.421   .     S
C542   C1315   1.421   1_554 S
C543   H560    1.109   .     S
C543   H561    1.104   .     S
C543   H592    1.109   .     S
C544   H563    1.109   .     S
C544   H562    1.109   .     S
C544   H564    1.104   .     S
C545   C554    1.526   .     S
C545   H567    1.110   .     S
C545   H569    1.105   .     S
C545   H568    1.109   .     S
C546   H573    1.109   .     S
C546   H572    1.105   .     S
C546   H571    1.110   .     S
C546   C555    1.526   .     S
C547   H574    1.097   .     S
C547   C556    1.516   .     S
C547   H575    1.108   .     S
C547   H576    1.110   .     S
C548   H577    1.097   .     S
C548   H579    1.108   .     S
C548   H578    1.110   .     S
C549   H582    1.109   .     S
C549   H583    1.111   .     S
C549   H580    1.099   .     S
C550   C553    1.389   .     A
C550   H566    1.079   .     S
C551   H586    1.109   .     S
C551   H584    1.099   .     S
C551   H585    1.111   .     S
C552   H559    1.084   .     S
C552   C1312   1.393   1_554 S
C553   H570    1.084   .     S
C553   C1314   1.393   .     S
C554   C606    1.412   .     S
C555   C691    1.412   1_455 S
C555   C2      1.406   1_565 S
C556   C38     1.406   1_565 S
Cu557  O602    1.940   .     S
Cu557  N593    2.025   .     S
Cu557  O599    1.955   .     S
Cu557  O595    1.978   .     S
Cu557  O598    1.960   .     S
Cu557  Cu730   2.695   1_455 S
Cu558  O596    1.978   .     S
Cu558  O597    1.960   .     S
Cu558  O600    1.955   .     S
Cu558  O601    1.940   .     S
Cu558  N594    2.025   .     S
Cu558  Cu643   2.695   .     S
H581   C619    1.082   .     S
H587   C704    1.082   1_455 S
O597   C603    1.299   .     S
O598   C700    1.299   1_455 S
O599   C697    1.304   1_455 S
O600   C612    1.304   .     S
C603   O681    1.294   .     A
C603   C606    1.458   .     S
C604   C634    1.516   .     S
C604   C606    1.418   .     A
C605   C614    1.458   .     S
C605   C642    1.418   .     A
C605   C727    1.412   .     S
C607   H676    1.082   .     S
C607   C609    1.417   .     A
C607   N680    1.353   .     A
C608   H677    1.082   .     S
C608   N679    1.353   .     A
C608   C610    1.417   .     A
C609   N679    1.391   .     A
C609   C635    1.504   .     S
C610   N680    1.391   .     A
C610   C637    1.504   .     S
C611   O687    1.299   .     A
C611   C613    1.476   .     S
C611   O771    1.304   .     S
C612   O688    1.299   .     A
C612   C615    1.476   .     S
C613   C620    1.413   .     A
C613   C618    1.401   .     A
C614   O682    1.294   .     A
C614   O770    1.299   .     S
C615   C621    1.413   .     A
C615   C619    1.401   .     A
C616   C618    1.393   .     A
C616   H674    1.084   .     S
C616   C624    1.402   .     A
C617   C626    1.402   .     A
C617   H675    1.084   .     S
C617   C619    1.393   .     A
C618   H759    1.082   .     S
C620   C630    1.511   .     S
C620   C622    1.416   .     A
C621   C623    1.416   .     A
C621   C629    1.511   .     S
C622   C627    1.428   .     A
C622   C624    1.417   .     A
C623   C628    1.428   .     A
C623   C626    1.417   .     A
C624   C1412   1.393   .     S
C625   H651    1.079   .     S
C625   C628    1.413   .     A
C625   C638    1.389   .     A
C626   C1413   1.393   1_554 S
C627   C636    1.413   .     A
C627   C1402   1.421   .     S
C628   C1401   1.421   1_554 S
C629   H646    1.109   .     S
C629   H647    1.104   .     S
C629   H678    1.109   .     S
C630   H649    1.109   .     S
C630   H648    1.109   .     S
C630   H650    1.104   .     S
C631   C640    1.526   .     S
C631   H653    1.110   .     S
C631   H655    1.105   .     S
C631   H654    1.109   .     S
C632   H659    1.109   .     S
C632   H658    1.105   .     S
C632   H657    1.110   .     S
C632   C641    1.526   .     S
C633   H660    1.097   .     S
C633   C642    1.516   .     S
C633   H661    1.108   .     S
C633   H662    1.110   .     S
C634   H663    1.097   .     S
C634   H665    1.108   .     S
C634   H664    1.110   .     S
C635   H668    1.109   .     S
C635   H669    1.111   .     S
C635   H666    1.099   .     S
C636   C639    1.389   .     A
C636   H652    1.079   .     S
C637   H672    1.109   .     S
C637   H670    1.099   .     S
C637   H671    1.111   .     S
C638   H645    1.084   .     S
C638   C1398   1.393   1_554 S
C639   H656    1.084   .     S
C639   C1400   1.393   .     S
C640   C692    1.412   .     S
C641   C88     1.406   1_565 S
C642   C124    1.406   1_565 S
Cu643  O688    1.940   .     S
Cu643  N679    2.025   .     S
Cu643  O685    1.955   .     S
Cu643  O681    1.978   .     S
Cu643  O684    1.960   .     S
Cu644  O682    1.978   .     S
Cu644  O683    1.960   .     S
Cu644  O686    1.955   .     S
Cu644  O687    1.940   .     S
Cu644  N680    2.025   .     S
Cu644  Cu729   2.695   .     S
H667   C705    1.082   .     S
O683   C689    1.299   .     S
O686   C698    1.304   .     S
C689   O767    1.294   .     A
C689   C692    1.458   .     S
C690   C720    1.516   .     S
C690   C692    1.418   .     A
C691   C700    1.458   .     S
C691   C728    1.418   .     A
C691   C555    1.412   1_655 S
C693   H762    1.082   .     S
C693   C695    1.417   .     A
C693   N766    1.353   .     A
C694   H763    1.082   .     S
C694   N765    1.353   .     A
C694   C696    1.417   .     A
C695   N765    1.391   .     A
C695   C721    1.504   .     S
C696   N766    1.391   .     A
C696   C723    1.504   .     S
C697   O773    1.299   .     A
C697   C699    1.476   .     S
C697   O599    1.304   1_655 S
C698   O774    1.299   .     A
C698   C701    1.476   .     S
C699   C706    1.413   .     A
C699   C704    1.401   .     A
C700   O768    1.294   .     A
C700   O598    1.299   1_655 S
C701   C707    1.413   .     A
C701   C705    1.401   .     A
C702   C704    1.393   .     A
C702   H760    1.084   .     S
C702   C710    1.402   .     A
C703   C712    1.402   .     A
C703   H761    1.084   .     S
C703   C705    1.393   .     A
C704   H587    1.082   1_655 S
C706   C716    1.511   .     S
C706   C708    1.416   .     A
C707   C709    1.416   .     A
C707   C715    1.511   .     S
C708   C713    1.428   .     A
C708   C710    1.417   .     A
C709   C714    1.428   .     A
C709   C712    1.417   .     A
C710   C1498   1.393   .     S
C711   H737    1.079   .     S
C711   C714    1.413   .     A
C711   C724    1.389   .     A
C712   C1499   1.393   1_554 S
C713   C722    1.413   .     A
C713   C1488   1.421   .     S
C714   C1487   1.421   1_554 S
C715   H732    1.109   .     S
C715   H733    1.104   .     S
C715   H764    1.109   .     S
C716   H735    1.109   .     S
C716   H734    1.109   .     S
C716   H736    1.104   .     S
C717   C726    1.526   .     S
C717   H739    1.110   .     S
C717   H741    1.105   .     S
C717   H740    1.109   .     S
C718   H745    1.109   .     S
C718   H744    1.105   .     S
C718   H743    1.110   .     S
C718   C727    1.526   .     S
C719   H746    1.097   .     S
C719   C728    1.516   .     S
C719   H747    1.108   .     S
C719   H748    1.110   .     S
C720   H749    1.097   .     S
C720   H751    1.108   .     S
C720   H750    1.110   .     S
C721   H754    1.109   .     S
C721   H755    1.111   .     S
C721   H752    1.099   .     S
C722   C725    1.389   .     A
C722   H738    1.079   .     S
C723   H758    1.109   .     S
C723   H756    1.099   .     S
C723   H757    1.111   .     S
C724   H731    1.084   .     S
C724   C1484   1.393   1_554 S
C725   H742    1.084   .     S
C725   C1486   1.393   .     S
C726   C520    1.412   1_655 S
C727   C174    1.406   1_565 S
C728   C210    1.406   1_565 S
Cu729  O774    1.940   .     S
Cu729  N765    2.025   .     S
Cu729  O771    1.955   .     S
Cu729  O767    1.978   .     S
Cu729  O770    1.960   .     S
Cu730  O768    1.978   .     S
Cu730  O769    1.960   .     S
Cu730  O772    1.955   .     S
Cu730  O773    1.940   .     S
Cu730  N766    2.025   .     S
Cu730  Cu557   2.695   1_655 S
H753   C533    1.082   1_655 S
O769   C517    1.299   1_655 S
O772   C526    1.304   1_655 S
C775   O853    1.294   .     A
C775   C778    1.458   .     S
C775   O1027   1.299   1_455 S
C776   C806    1.516   .     S
C776   C778    1.418   .     A
C776   C1329   1.406   1_545 S
C777   C786    1.458   .     S
C777   C814    1.418   .     A
C777   C899    1.412   .     S
C778   C984    1.412   1_455 S
C779   H848    1.082   .     S
C779   C781    1.417   .     A
C779   N852    1.353   .     A
C780   H849    1.082   .     S
C780   N851    1.353   .     A
C780   C782    1.417   .     A
C781   N851    1.391   .     A
C781   C807    1.504   .     S
C782   N852    1.391   .     A
C782   C809    1.504   .     S
C783   O859    1.299   .     A
C783   C785    1.476   .     S
C783   O943    1.304   .     S
C784   O860    1.299   .     A
C784   C787    1.476   .     S
C784   O1030   1.304   1_455 S
C785   C792    1.413   .     A
C785   C790    1.401   .     A
C786   O854    1.294   .     A
C786   O942    1.299   .     S
C787   C793    1.413   .     A
C787   C791    1.401   .     A
C788   C790    1.393   .     A
C788   H846    1.084   .     S
C788   C796    1.402   .     A
C789   C798    1.402   .     A
C789   H847    1.084   .     S
C789   C791    1.393   .     A
C790   H931    1.082   .     S
C791   H1011   1.082   1_455 S
C792   C802    1.511   .     S
C792   C794    1.416   .     A
C793   C795    1.416   .     A
C793   C801    1.511   .     S
C794   C799    1.428   .     A
C794   C796    1.417   .     A
C795   C800    1.428   .     A
C795   C798    1.417   .     A
C796   C36     1.393   1_556 S
C797   H823    1.079   .     S
C797   C800    1.413   .     A
C797   C810    1.389   .     A
C799   C808    1.413   .     A
C799   C26     1.421   1_556 S
C801   H818    1.109   .     S
C801   H819    1.104   .     S
C801   H850    1.109   .     S
C802   H821    1.109   .     S
C802   H820    1.109   .     S
C802   H822    1.104   .     S
C803   C812    1.526   .     S
C803   H825    1.110   .     S
C803   H827    1.105   .     S
C803   H826    1.109   .     S
C804   H831    1.109   .     S
C804   H830    1.105   .     S
C804   H829    1.110   .     S
C804   C813    1.526   .     S
C805   H832    1.097   .     S
C805   C814    1.516   .     S
C805   H833    1.108   .     S
C805   H834    1.110   .     S
C806   H835    1.097   .     S
C806   H837    1.108   .     S
C806   H836    1.110   .     S
C807   H840    1.109   .     S
C807   H841    1.111   .     S
C807   H838    1.099   .     S
C808   C811    1.389   .     A
C808   H824    1.079   .     S
C809   H844    1.109   .     S
C809   H842    1.099   .     S
C809   H843    1.111   .     S
C810   H817    1.084   .     S
C811   H828    1.084   .     S
C811   C24     1.393   1_556 S
C812   C864    1.412   .     S
C812   C1330   1.406   1_545 S
C813   C949    1.412   1_455 S
C813   C1034   1.406   .     S
C814   C1070   1.406   .     S
Cu815  O860    1.940   .     S
Cu815  N851    2.025   .     S
Cu815  O857    1.955   .     S
Cu815  O853    1.978   .     S
Cu815  O856    1.960   .     S
Cu815  Cu988   2.695   1_455 S
Cu816  O854    1.978   .     S
Cu816  O855    1.960   .     S
Cu816  O858    1.955   .     S
Cu816  O859    1.940   .     S
Cu816  N852    2.025   .     S
Cu816  Cu901   2.695   .     S
H839   C877    1.082   .     S
H845   C962    1.082   1_455 S
O855   C861    1.299   .     S
O856   C958    1.299   1_455 S
O857   C955    1.304   1_455 S
O858   C870    1.304   .     S
C861   O939    1.294   .     A
C861   C864    1.458   .     S
C862   C892    1.516   .     S
C862   C864    1.418   .     A
C862   C1415   1.406   1_545 S
C863   C872    1.458   .     S
C863   C900    1.418   .     A
C863   C985    1.412   .     S
C865   H934    1.082   .     S
C865   C867    1.417   .     A
C865   N938    1.353   .     A
C866   H935    1.082   .     S
C866   N937    1.353   .     A
C866   C868    1.417   .     A
C867   N937    1.391   .     A
C867   C893    1.504   .     S
C868   N938    1.391   .     A
C868   C895    1.504   .     S
C869   O945    1.299   .     A
C869   C871    1.476   .     S
C869   O1029   1.304   .     S
C870   O946    1.299   .     A
C870   C873    1.476   .     S
C871   C878    1.413   .     A
C871   C876    1.401   .     A
C872   O940    1.294   .     A
C872   O1028   1.299   .     S
C873   C879    1.413   .     A
C873   C877    1.401   .     A
C874   C876    1.393   .     A
C874   H932    1.084   .     S
C874   C882    1.402   .     A
C875   C884    1.402   .     A
C875   H933    1.084   .     S
C875   C877    1.393   .     A
C876   H1017   1.082   .     S
C878   C888    1.511   .     S
C878   C880    1.416   .     A
C879   C881    1.416   .     A
C879   C887    1.511   .     S
C880   C885    1.428   .     A
C880   C882    1.417   .     A
C881   C886    1.428   .     A
C881   C884    1.417   .     A
C882   C122    1.393   1_556 S
C883   H909    1.079   .     S
C883   C886    1.413   .     A
C883   C896    1.389   .     A
C885   C894    1.413   .     A
C885   C112    1.421   1_556 S
C887   H904    1.109   .     S
C887   H905    1.104   .     S
C887   H936    1.109   .     S
C888   H907    1.109   .     S
C888   H906    1.109   .     S
C888   H908    1.104   .     S
C889   C898    1.526   .     S
C889   H911    1.110   .     S
C889   H913    1.105   .     S
C889   H912    1.109   .     S
C890   H917    1.109   .     S
C890   H916    1.105   .     S
C890   H915    1.110   .     S
C890   C899    1.526   .     S
C891   H918    1.097   .     S
C891   C900    1.516   .     S
C891   H919    1.108   .     S
C891   H920    1.110   .     S
C892   H921    1.097   .     S
C892   H923    1.108   .     S
C892   H922    1.110   .     S
C893   H926    1.109   .     S
C893   H927    1.111   .     S
C893   H924    1.099   .     S
C894   C897    1.389   .     A
C894   H910    1.079   .     S
C895   H930    1.109   .     S
C895   H928    1.099   .     S
C895   H929    1.111   .     S
C896   H903    1.084   .     S
C897   H914    1.084   .     S
C897   C110    1.393   1_556 S
C898   C950    1.412   .     S
C898   C1416   1.406   1_545 S
C899   C1120   1.406   .     S
C900   C1156   1.406   .     S
Cu901  O946    1.940   .     S
Cu901  N937    2.025   .     S
Cu901  O943    1.955   .     S
Cu901  O939    1.978   .     S
Cu901  O942    1.960   .     S
Cu902  O940    1.978   .     S
Cu902  O941    1.960   .     S
Cu902  O944    1.955   .     S
Cu902  O945    1.940   .     S
Cu902  N938    2.025   .     S
Cu902  Cu987   2.695   .     S
H925   C963    1.082   .     S
O941   C947    1.299   .     S
O944   C956    1.304   .     S
C947   O1025   1.294   .     A
C947   C950    1.458   .     S
C948   C978    1.516   .     S
C948   C950    1.418   .     A
C948   C1501   1.406   1_545 S
C949   C958    1.458   .     S
C949   C986    1.418   .     A
C949   C813    1.412   1_655 S
C951   H1020   1.082   .     S
C951   C953    1.417   .     A
C951   N1024   1.353   .     A
C952   H1021   1.082   .     S
C952   N1023   1.353   .     A
C952   C954    1.417   .     A
C953   N1023   1.391   .     A
C953   C979    1.504   .     S
C954   N1024   1.391   .     A
C954   C981    1.504   .     S
C955   O1031   1.299   .     A
C955   C957    1.476   .     S
C955   O857    1.304   1_655 S
C956   O1032   1.299   .     A
C956   C959    1.476   .     S
C957   C964    1.413   .     A
C957   C962    1.401   .     A
C958   O1026   1.294   .     A
C958   O856    1.299   1_655 S
C959   C965    1.413   .     A
C959   C963    1.401   .     A
C960   C962    1.393   .     A
C960   H1018   1.084   .     S
C960   C968    1.402   .     A
C961   C970    1.402   .     A
C961   H1019   1.084   .     S
C961   C963    1.393   .     A
C962   H845    1.082   1_655 S
C964   C974    1.511   .     S
C964   C966    1.416   .     A
C965   C967    1.416   .     A
C965   C973    1.511   .     S
C966   C971    1.428   .     A
C966   C968    1.417   .     A
C967   C972    1.428   .     A
C967   C970    1.417   .     A
C968   C208    1.393   1_556 S
C969   H995    1.079   .     S
C969   C972    1.413   .     A
C969   C982    1.389   .     A
C971   C980    1.413   .     A
C971   C198    1.421   1_556 S
C973   H990    1.109   .     S
C973   H991    1.104   .     S
C973   H1022   1.109   .     S
C974   H993    1.109   .     S
C974   H992    1.109   .     S
C974   H994    1.104   .     S
C975   C984    1.526   .     S
C975   H997    1.110   .     S
C975   H999    1.105   .     S
C975   H998    1.109   .     S
C976   H1003   1.109   .     S
C976   H1002   1.105   .     S
C976   H1001   1.110   .     S
C976   C985    1.526   .     S
C977   H1004   1.097   .     S
C977   C986    1.516   .     S
C977   H1005   1.108   .     S
C977   H1006   1.110   .     S
C978   H1007   1.097   .     S
C978   H1009   1.108   .     S
C978   H1008   1.110   .     S
C979   H1012   1.109   .     S
C979   H1013   1.111   .     S
C979   H1010   1.099   .     S
C980   C983    1.389   .     A
C980   H996    1.079   .     S
C981   H1016   1.109   .     S
C981   H1014   1.099   .     S
C981   H1015   1.111   .     S
C982   H989    1.084   .     S
C983   H1000   1.084   .     S
C983   C196    1.393   1_556 S
C984   C778    1.412   1_655 S
C984   C1502   1.406   1_545 S
C985   C1206   1.406   .     S
C986   C1242   1.406   .     S
Cu987  O1032   1.940   .     S
Cu987  N1023   2.025   .     S
Cu987  O1029   1.955   .     S
Cu987  O1025   1.978   .     S
Cu987  O1028   1.960   .     S
Cu988  O1026   1.978   .     S
Cu988  O1027   1.960   .     S
Cu988  O1030   1.955   .     S
Cu988  O1031   1.940   .     S
Cu988  N1024   2.025   .     S
Cu988  Cu815   2.695   1_655 S
H1011  C791    1.082   1_655 S
O1027  C775    1.299   1_655 S
O1030  C784    1.304   1_655 S
C1033  O1111   1.294   .     A
C1033  C1036   1.458   .     S
C1033  O1285   1.299   1_455 S
C1034  C1064   1.516   .     S
C1034  C1036   1.418   .     A
C1035  C1044   1.458   .     S
C1035  C1072   1.418   .     A
C1035  C1157   1.412   .     S
C1036  C1242   1.412   1_455 S
C1037  H1106   1.082   .     S
C1037  C1039   1.417   .     A
C1037  N1110   1.353   .     A
C1038  H1107   1.082   .     S
C1038  N1109   1.353   .     A
C1038  C1040   1.417   .     A
C1039  N1109   1.391   .     A
C1039  C1065   1.504   .     S
C1040  N1110   1.391   .     A
C1040  C1067   1.504   .     S
C1041  O1117   1.299   .     A
C1041  C1043   1.476   .     S
C1041  O1201   1.304   .     S
C1042  O1118   1.299   .     A
C1042  C1045   1.476   .     S
C1042  O1288   1.304   1_455 S
C1043  C1050   1.413   .     A
C1043  C1048   1.401   .     A
C1044  O1112   1.294   .     A
C1044  O1200   1.299   .     S
C1045  C1051   1.413   .     A
C1045  C1049   1.401   .     A
C1046  C1048   1.393   .     A
C1046  H1104   1.084   .     S
C1046  C1054   1.402   .     A
C1047  C1056   1.402   .     A
C1047  H1105   1.084   .     S
C1047  C1049   1.393   .     A
C1048  H1189   1.082   .     S
C1049  H1269   1.082   1_455 S
C1050  C1060   1.511   .     S
C1050  C1052   1.416   .     A
C1051  C1053   1.416   .     A
C1051  C1059   1.511   .     S
C1052  C1057   1.428   .     A
C1052  C1054   1.417   .     A
C1053  C1058   1.428   .     A
C1053  C1056   1.417   .     A
C1054  C294    1.393   1_556 S
C1055  H1081   1.079   .     S
C1055  C1058   1.413   .     A
C1055  C1068   1.389   .     A
C1057  C1066   1.413   .     A
C1057  C284    1.421   1_556 S
C1059  H1076   1.109   .     S
C1059  H1077   1.104   .     S
C1059  H1108   1.109   .     S
C1060  H1079   1.109   .     S
C1060  H1078   1.109   .     S
C1060  H1080   1.104   .     S
C1061  C1070   1.526   .     S
C1061  H1083   1.110   .     S
C1061  H1085   1.105   .     S
C1061  H1084   1.109   .     S
C1062  H1089   1.109   .     S
C1062  H1088   1.105   .     S
C1062  H1087   1.110   .     S
C1062  C1071   1.526   .     S
C1063  H1090   1.097   .     S
C1063  C1072   1.516   .     S
C1063  H1091   1.108   .     S
C1063  H1092   1.110   .     S
C1064  H1093   1.097   .     S
C1064  H1095   1.108   .     S
C1064  H1094   1.110   .     S
C1065  H1098   1.109   .     S
C1065  H1099   1.111   .     S
C1065  H1096   1.099   .     S
C1066  C1069   1.389   .     A
C1066  H1082   1.079   .     S
C1067  H1102   1.109   .     S
C1067  H1100   1.099   .     S
C1067  H1101   1.111   .     S
C1068  H1075   1.084   .     S
C1069  H1086   1.084   .     S
C1069  C282    1.393   1_556 S
C1070  C1122   1.412   .     S
C1071  C1207   1.412   1_455 S
C1071  C1292   1.406   .     S
C1072  C1328   1.406   .     S
Cu1073 O1118   1.940   .     S
Cu1073 N1109   2.025   .     S
Cu1073 O1115   1.955   .     S
Cu1073 O1111   1.978   .     S
Cu1073 O1114   1.960   .     S
Cu1073 Cu1246  2.695   1_455 S
Cu1074 O1112   1.978   .     S
Cu1074 O1113   1.960   .     S
Cu1074 O1116   1.955   .     S
Cu1074 O1117   1.940   .     S
Cu1074 N1110   2.025   .     S
Cu1074 Cu1159  2.695   .     S
H1097  C1135   1.082   .     S
H1103  C1220   1.082   1_455 S
O1113  C1119   1.299   .     S
O1114  C1216   1.299   1_455 S
O1115  C1213   1.304   1_455 S
O1116  C1128   1.304   .     S
C1119  O1197   1.294   .     A
C1119  C1122   1.458   .     S
C1120  C1150   1.516   .     S
C1120  C1122   1.418   .     A
C1121  C1130   1.458   .     S
C1121  C1158   1.418   .     A
C1121  C1243   1.412   .     S
C1123  H1192   1.082   .     S
C1123  C1125   1.417   .     A
C1123  N1196   1.353   .     A
C1124  H1193   1.082   .     S
C1124  N1195   1.353   .     A
C1124  C1126   1.417   .     A
C1125  N1195   1.391   .     A
C1125  C1151   1.504   .     S
C1126  N1196   1.391   .     A
C1126  C1153   1.504   .     S
C1127  O1203   1.299   .     A
C1127  C1129   1.476   .     S
C1127  O1287   1.304   .     S
C1128  O1204   1.299   .     A
C1128  C1131   1.476   .     S
C1129  C1136   1.413   .     A
C1129  C1134   1.401   .     A
C1130  O1198   1.294   .     A
C1130  O1286   1.299   .     S
C1131  C1137   1.413   .     A
C1131  C1135   1.401   .     A
C1132  C1134   1.393   .     A
C1132  H1190   1.084   .     S
C1132  C1140   1.402   .     A
C1133  C1142   1.402   .     A
C1133  H1191   1.084   .     S
C1133  C1135   1.393   .     A
C1134  H1275   1.082   .     S
C1136  C1146   1.511   .     S
C1136  C1138   1.416   .     A
C1137  C1139   1.416   .     A
C1137  C1145   1.511   .     S
C1138  C1143   1.428   .     A
C1138  C1140   1.417   .     A
C1139  C1144   1.428   .     A
C1139  C1142   1.417   .     A
C1140  C380    1.393   1_556 S
C1141  H1167   1.079   .     S
C1141  C1144   1.413   .     A
C1141  C1154   1.389   .     A
C1143  C1152   1.413   .     A
C1143  C370    1.421   1_556 S
C1145  H1162   1.109   .     S
C1145  H1163   1.104   .     S
C1145  H1194   1.109   .     S
C1146  H1165   1.109   .     S
C1146  H1164   1.109   .     S
C1146  H1166   1.104   .     S
C1147  C1156   1.526   .     S
C1147  H1169   1.110   .     S
C1147  H1171   1.105   .     S
C1147  H1170   1.109   .     S
C1148  H1175   1.109   .     S
C1148  H1174   1.105   .     S
C1148  H1173   1.110   .     S
C1148  C1157   1.526   .     S
C1149  H1176   1.097   .     S
C1149  C1158   1.516   .     S
C1149  H1177   1.108   .     S
C1149  H1178   1.110   .     S
C1150  H1179   1.097   .     S
C1150  H1181   1.108   .     S
C1150  H1180   1.110   .     S
C1151  H1184   1.109   .     S
C1151  H1185   1.111   .     S
C1151  H1182   1.099   .     S
C1152  C1155   1.389   .     A
C1152  H1168   1.079   .     S
C1153  H1188   1.109   .     S
C1153  H1186   1.099   .     S
C1153  H1187   1.111   .     S
C1154  H1161   1.084   .     S
C1155  H1172   1.084   .     S
C1155  C368    1.393   1_556 S
C1156  C1208   1.412   .     S
C1157  C1378   1.406   .     S
C1158  C1414   1.406   .     S
Cu1159 O1204   1.940   .     S
Cu1159 N1195   2.025   .     S
Cu1159 O1201   1.955   .     S
Cu1159 O1197   1.978   .     S
Cu1159 O1200   1.960   .     S
Cu1160 O1198   1.978   .     S
Cu1160 O1199   1.960   .     S
Cu1160 O1202   1.955   .     S
Cu1160 O1203   1.940   .     S
Cu1160 N1196   2.025   .     S
Cu1160 Cu1245  2.695   .     S
H1183  C1221   1.082   .     S
O1199  C1205   1.299   .     S
O1202  C1214   1.304   .     S
C1205  O1283   1.294   .     A
C1205  C1208   1.458   .     S
C1206  C1236   1.516   .     S
C1206  C1208   1.418   .     A
C1207  C1216   1.458   .     S
C1207  C1244   1.418   .     A
C1207  C1071   1.412   1_655 S
C1209  H1278   1.082   .     S
C1209  C1211   1.417   .     A
C1209  N1282   1.353   .     A
C1210  H1279   1.082   .     S
C1210  N1281   1.353   .     A
C1210  C1212   1.417   .     A
C1211  N1281   1.391   .     A
C1211  C1237   1.504   .     S
C1212  N1282   1.391   .     A
C1212  C1239   1.504   .     S
C1213  O1289   1.299   .     A
C1213  C1215   1.476   .     S
C1213  O1115   1.304   1_655 S
C1214  O1290   1.299   .     A
C1214  C1217   1.476   .     S
C1215  C1222   1.413   .     A
C1215  C1220   1.401   .     A
C1216  O1284   1.294   .     A
C1216  O1114   1.299   1_655 S
C1217  C1223   1.413   .     A
C1217  C1221   1.401   .     A
C1218  C1220   1.393   .     A
C1218  H1276   1.084   .     S
C1218  C1226   1.402   .     A
C1219  C1228   1.402   .     A
C1219  H1277   1.084   .     S
C1219  C1221   1.393   .     A
C1220  H1103   1.082   1_655 S
C1222  C1232   1.511   .     S
C1222  C1224   1.416   .     A
C1223  C1225   1.416   .     A
C1223  C1231   1.511   .     S
C1224  C1229   1.428   .     A
C1224  C1226   1.417   .     A
C1225  C1230   1.428   .     A
C1225  C1228   1.417   .     A
C1226  C466    1.393   1_556 S
C1227  H1253   1.079   .     S
C1227  C1230   1.413   .     A
C1227  C1240   1.389   .     A
C1229  C1238   1.413   .     A
C1229  C456    1.421   1_556 S
C1231  H1248   1.109   .     S
C1231  H1249   1.104   .     S
C1231  H1280   1.109   .     S
C1232  H1251   1.109   .     S
C1232  H1250   1.109   .     S
C1232  H1252   1.104   .     S
C1233  C1242   1.526   .     S
C1233  H1255   1.110   .     S
C1233  H1257   1.105   .     S
C1233  H1256   1.109   .     S
C1234  H1261   1.109   .     S
C1234  H1260   1.105   .     S
C1234  H1259   1.110   .     S
C1234  C1243   1.526   .     S
C1235  H1262   1.097   .     S
C1235  C1244   1.516   .     S
C1235  H1263   1.108   .     S
C1235  H1264   1.110   .     S
C1236  H1265   1.097   .     S
C1236  H1267   1.108   .     S
C1236  H1266   1.110   .     S
C1237  H1270   1.109   .     S
C1237  H1271   1.111   .     S
C1237  H1268   1.099   .     S
C1238  C1241   1.389   .     A
C1238  H1254   1.079   .     S
C1239  H1274   1.109   .     S
C1239  H1272   1.099   .     S
C1239  H1273   1.111   .     S
C1240  H1247   1.084   .     S
C1241  H1258   1.084   .     S
C1241  C454    1.393   1_556 S
C1242  C1036   1.412   1_655 S
C1243  C1464   1.406   .     S
C1244  C1500   1.406   .     S
Cu1245 O1290   1.940   .     S
Cu1245 N1281   2.025   .     S
Cu1245 O1287   1.955   .     S
Cu1245 O1283   1.978   .     S
Cu1245 O1286   1.960   .     S
Cu1246 O1284   1.978   .     S
Cu1246 O1285   1.960   .     S
Cu1246 O1288   1.955   .     S
Cu1246 O1289   1.940   .     S
Cu1246 N1282   2.025   .     S
Cu1246 Cu1073  2.695   1_655 S
H1269  C1049   1.082   1_655 S
O1285  C1033   1.299   1_655 S
O1288  C1042   1.304   1_655 S
C1291  O1369   1.294   .     A
C1291  C1294   1.458   .     S
C1291  O1543   1.299   1_455 S
C1292  C1322   1.516   .     S
C1292  C1294   1.418   .     A
C1293  C1302   1.458   .     S
C1293  C1330   1.418   .     A
C1293  C1415   1.412   .     S
C1294  C1500   1.412   1_455 S
C1295  H1364   1.082   .     S
C1295  C1297   1.417   .     A
C1295  N1368   1.353   .     A
C1296  H1365   1.082   .     S
C1296  N1367   1.353   .     A
C1296  C1298   1.417   .     A
C1297  N1367   1.391   .     A
C1297  C1323   1.504   .     S
C1298  N1368   1.391   .     A
C1298  C1325   1.504   .     S
C1299  O1375   1.299   .     A
C1299  C1301   1.476   .     S
C1299  O1459   1.304   .     S
C1300  O1376   1.299   .     A
C1300  C1303   1.476   .     S
C1300  O1546   1.304   1_455 S
C1301  C1308   1.413   .     A
C1301  C1306   1.401   .     A
C1302  O1370   1.294   .     A
C1302  O1458   1.299   .     S
C1303  C1309   1.413   .     A
C1303  C1307   1.401   .     A
C1304  C1306   1.393   .     A
C1304  H1362   1.084   .     S
C1304  C1312   1.402   .     A
C1305  C1314   1.402   .     A
C1305  H1363   1.084   .     S
C1305  C1307   1.393   .     A
C1306  H1447   1.082   .     S
C1307  H1527   1.082   1_455 S
C1308  C1318   1.511   .     S
C1308  C1310   1.416   .     A
C1309  C1311   1.416   .     A
C1309  C1317   1.511   .     S
C1310  C1315   1.428   .     A
C1310  C1312   1.417   .     A
C1311  C1316   1.428   .     A
C1311  C1314   1.417   .     A
C1312  C552    1.393   1_556 S
C1313  H1339   1.079   .     S
C1313  C1316   1.413   .     A
C1313  C1326   1.389   .     A
C1315  C1324   1.413   .     A
C1315  C542    1.421   1_556 S
C1317  H1334   1.109   .     S
C1317  H1335   1.104   .     S
C1317  H1366   1.109   .     S
C1318  H1337   1.109   .     S
C1318  H1336   1.109   .     S
C1318  H1338   1.104   .     S
C1319  C1328   1.526   .     S
C1319  H1341   1.110   .     S
C1319  H1343   1.105   .     S
C1319  H1342   1.109   .     S
C1320  H1347   1.109   .     S
C1320  H1346   1.105   .     S
C1320  H1345   1.110   .     S
C1320  C1329   1.526   .     S
C1321  H1348   1.097   .     S
C1321  C1330   1.516   .     S
C1321  H1349   1.108   .     S
C1321  H1350   1.110   .     S
C1322  H1351   1.097   .     S
C1322  H1353   1.108   .     S
C1322  H1352   1.110   .     S
C1323  H1356   1.109   .     S
C1323  H1357   1.111   .     S
C1323  H1354   1.099   .     S
C1324  C1327   1.389   .     A
C1324  H1340   1.079   .     S
C1325  H1360   1.109   .     S
C1325  H1358   1.099   .     S
C1325  H1359   1.111   .     S
C1326  H1333   1.084   .     S
C1327  H1344   1.084   .     S
C1327  C540    1.393   1_556 S
C1328  C1380   1.412   .     S
C1329  C1465   1.412   1_455 S
C1329  C776    1.406   1_565 S
C1330  C812    1.406   1_565 S
Cu1331 O1376   1.940   .     S
Cu1331 N1367   2.025   .     S
Cu1331 O1373   1.955   .     S
Cu1331 O1369   1.978   .     S
Cu1331 O1372   1.960   .     S
Cu1331 Cu1504  2.695   1_455 S
Cu1332 O1370   1.978   .     S
Cu1332 O1371   1.960   .     S
Cu1332 O1374   1.955   .     S
Cu1332 O1375   1.940   .     S
Cu1332 N1368   2.025   .     S
Cu1332 Cu1417  2.695   .     S
H1355  C1393   1.082   .     S
H1361  C1478   1.082   1_455 S
O1371  C1377   1.299   .     S
O1372  C1474   1.299   1_455 S
O1373  C1471   1.304   1_455 S
O1374  C1386   1.304   .     S
C1377  O1455   1.294   .     A
C1377  C1380   1.458   .     S
C1378  C1408   1.516   .     S
C1378  C1380   1.418   .     A
C1379  C1388   1.458   .     S
C1379  C1416   1.418   .     A
C1379  C1501   1.412   .     S
C1381  H1450   1.082   .     S
C1381  C1383   1.417   .     A
C1381  N1454   1.353   .     A
C1382  H1451   1.082   .     S
C1382  N1453   1.353   .     A
C1382  C1384   1.417   .     A
C1383  N1453   1.391   .     A
C1383  C1409   1.504   .     S
C1384  N1454   1.391   .     A
C1384  C1411   1.504   .     S
C1385  O1461   1.299   .     A
C1385  C1387   1.476   .     S
C1385  O1545   1.304   .     S
C1386  O1462   1.299   .     A
C1386  C1389   1.476   .     S
C1387  C1394   1.413   .     A
C1387  C1392   1.401   .     A
C1388  O1456   1.294   .     A
C1388  O1544   1.299   .     S
C1389  C1395   1.413   .     A
C1389  C1393   1.401   .     A
C1390  C1392   1.393   .     A
C1390  H1448   1.084   .     S
C1390  C1398   1.402   .     A
C1391  C1400   1.402   .     A
C1391  H1449   1.084   .     S
C1391  C1393   1.393   .     A
C1392  H1533   1.082   .     S
C1394  C1404   1.511   .     S
C1394  C1396   1.416   .     A
C1395  C1397   1.416   .     A
C1395  C1403   1.511   .     S
C1396  C1401   1.428   .     A
C1396  C1398   1.417   .     A
C1397  C1402   1.428   .     A
C1397  C1400   1.417   .     A
C1398  C638    1.393   1_556 S
C1399  H1425   1.079   .     S
C1399  C1402   1.413   .     A
C1399  C1412   1.389   .     A
C1401  C1410   1.413   .     A
C1401  C628    1.421   1_556 S
C1403  H1420   1.109   .     S
C1403  H1421   1.104   .     S
C1403  H1452   1.109   .     S
C1404  H1423   1.109   .     S
C1404  H1422   1.109   .     S
C1404  H1424   1.104   .     S
C1405  C1414   1.526   .     S
C1405  H1427   1.110   .     S
C1405  H1429   1.105   .     S
C1405  H1428   1.109   .     S
C1406  H1433   1.109   .     S
C1406  H1432   1.105   .     S
C1406  H1431   1.110   .     S
C1406  C1415   1.526   .     S
C1407  H1434   1.097   .     S
C1407  C1416   1.516   .     S
C1407  H1435   1.108   .     S
C1407  H1436   1.110   .     S
C1408  H1437   1.097   .     S
C1408  H1439   1.108   .     S
C1408  H1438   1.110   .     S
C1409  H1442   1.109   .     S
C1409  H1443   1.111   .     S
C1409  H1440   1.099   .     S
C1410  C1413   1.389   .     A
C1410  H1426   1.079   .     S
C1411  H1446   1.109   .     S
C1411  H1444   1.099   .     S
C1411  H1445   1.111   .     S
C1412  H1419   1.084   .     S
C1413  H1430   1.084   .     S
C1413  C626    1.393   1_556 S
C1414  C1466   1.412   .     S
C1415  C862    1.406   1_565 S
C1416  C898    1.406   1_565 S
Cu1417 O1462   1.940   .     S
Cu1417 N1453   2.025   .     S
Cu1417 O1459   1.955   .     S
Cu1417 O1455   1.978   .     S
Cu1417 O1458   1.960   .     S
Cu1418 O1456   1.978   .     S
Cu1418 O1457   1.960   .     S
Cu1418 O1460   1.955   .     S
Cu1418 O1461   1.940   .     S
Cu1418 N1454   2.025   .     S
Cu1418 Cu1503  2.695   .     S
H1441  C1479   1.082   .     S
O1457  C1463   1.299   .     S
O1460  C1472   1.304   .     S
C1463  O1541   1.294   .     A
C1463  C1466   1.458   .     S
C1464  C1494   1.516   .     S
C1464  C1466   1.418   .     A
C1465  C1474   1.458   .     S
C1465  C1502   1.418   .     A
C1465  C1329   1.412   1_655 S
C1467  H1536   1.082   .     S
C1467  C1469   1.417   .     A
C1467  N1540   1.353   .     A
C1468  H1537   1.082   .     S
C1468  N1539   1.353   .     A
C1468  C1470   1.417   .     A
C1469  N1539   1.391   .     A
C1469  C1495   1.504   .     S
C1470  N1540   1.391   .     A
C1470  C1497   1.504   .     S
C1471  O1547   1.299   .     A
C1471  C1473   1.476   .     S
C1471  O1373   1.304   1_655 S
C1472  O1548   1.299   .     A
C1472  C1475   1.476   .     S
C1473  C1480   1.413   .     A
C1473  C1478   1.401   .     A
C1474  O1542   1.294   .     A
C1474  O1372   1.299   1_655 S
C1475  C1481   1.413   .     A
C1475  C1479   1.401   .     A
C1476  C1478   1.393   .     A
C1476  H1534   1.084   .     S
C1476  C1484   1.402   .     A
C1477  C1486   1.402   .     A
C1477  H1535   1.084   .     S
C1477  C1479   1.393   .     A
C1478  H1361   1.082   1_655 S
C1480  C1490   1.511   .     S
C1480  C1482   1.416   .     A
C1481  C1483   1.416   .     A
C1481  C1489   1.511   .     S
C1482  C1487   1.428   .     A
C1482  C1484   1.417   .     A
C1483  C1488   1.428   .     A
C1483  C1486   1.417   .     A
C1484  C724    1.393   1_556 S
C1485  H1511   1.079   .     S
C1485  C1488   1.413   .     A
C1485  C1498   1.389   .     A
C1487  C1496   1.413   .     A
C1487  C714    1.421   1_556 S
C1489  H1506   1.109   .     S
C1489  H1507   1.104   .     S
C1489  H1538   1.109   .     S
C1490  H1509   1.109   .     S
C1490  H1508   1.109   .     S
C1490  H1510   1.104   .     S
C1491  C1500   1.526   .     S
C1491  H1513   1.110   .     S
C1491  H1515   1.105   .     S
C1491  H1514   1.109   .     S
C1492  H1519   1.109   .     S
C1492  H1518   1.105   .     S
C1492  H1517   1.110   .     S
C1492  C1501   1.526   .     S
C1493  H1520   1.097   .     S
C1493  C1502   1.516   .     S
C1493  H1521   1.108   .     S
C1493  H1522   1.110   .     S
C1494  H1523   1.097   .     S
C1494  H1525   1.108   .     S
C1494  H1524   1.110   .     S
C1495  H1528   1.109   .     S
C1495  H1529   1.111   .     S
C1495  H1526   1.099   .     S
C1496  C1499   1.389   .     A
C1496  H1512   1.079   .     S
C1497  H1532   1.109   .     S
C1497  H1530   1.099   .     S
C1497  H1531   1.111   .     S
C1498  H1505   1.084   .     S
C1499  H1516   1.084   .     S
C1499  C712    1.393   1_556 S
C1500  C1294   1.412   1_655 S
C1501  C948    1.406   1_565 S
C1502  C984    1.406   1_565 S
Cu1503 O1548   1.940   .     S
Cu1503 N1539   2.025   .     S
Cu1503 O1545   1.955   .     S
Cu1503 O1541   1.978   .     S
Cu1503 O1544   1.960   .     S
Cu1504 O1542   1.978   .     S
Cu1504 O1543   1.960   .     S
Cu1504 O1546   1.955   .     S
Cu1504 O1547   1.940   .     S
Cu1504 N1540   2.025   .     S
Cu1504 Cu1331  2.695   1_655 S
H1527  C1307   1.082   1_655 S
O1543  C1291   1.299   1_655 S
O1546  C1300   1.304   1_655 S
