data_str_m2_o10_o18_pcu_sym.54
_audit_creation_date              2020-01-03
_audit_creation_method            'Materials Studio'
_symmetry_space_group_name_H-M    'P1'
_symmetry_Int_Tables_number       1
_symmetry_cell_setting            triclinic
loop_
_symmetry_equiv_pos_as_xyz
  x,y,z
_cell_length_a                    22.4918
_cell_length_b                    26.0437
_cell_length_c                    31.6516
_cell_angle_alpha                 94.8556
_cell_angle_beta                  75.7392
_cell_angle_gamma                 102.7936
loop_
_atom_site_label
_atom_site_type_symbol
_atom_site_fract_x
_atom_site_fract_y
_atom_site_fract_z
_atom_site_U_iso_or_equiv
_atom_site_adp_type
_atom_site_occupancy
C1     C     0.18156   0.26660   0.25136   0.00000  Uiso   1.00
C2     C     0.20487   0.17066   0.16711   0.00000  Uiso   1.00
C3     C     0.10563   0.15888   0.38039   0.00000  Uiso   1.00
C4     C     0.22768   0.17808   0.12004   0.00000  Uiso   1.00
C5     C     0.02438   0.12807   0.44385   0.00000  Uiso   1.00
C6     C     0.30546   0.21925   0.05871   0.00000  Uiso   1.00
C7     C     0.04288   0.13727   0.39935   0.00000  Uiso   1.00
C8     C     0.28849   0.20557   0.10228   0.00000  Uiso   1.00
C9     C     0.14875   0.17378   0.40662   0.00000  Uiso   1.00
C10    C     0.18513   0.16232   0.09351   0.00000  Uiso   1.00
C11    C     0.13118   0.16585   0.45174   0.00000  Uiso   1.00
C12    C     0.15178   0.06673   0.24863   0.00000  Uiso   1.00
C13    C     0.20010   0.17734   0.04991   0.00000  Uiso   1.00
C14    C     0.06817   0.14117   0.46992   0.00000  Uiso   1.00
C15    C     0.26172   0.20588   0.03260   0.00000  Uiso   1.00
C16    C     0.17482   0.18002   0.47887   0.00000  Uiso   1.00
C17    C     0.15556   0.16553   0.02337   0.00000  Uiso   1.00
C18    C     0.31371   0.23447   0.32042   0.00000  Uiso   1.00
C19    C     0.01999   0.09909   0.17943   0.00000  Uiso   1.00
C20    C     0.09212   0.14078   0.04003   0.00000  Uiso   1.00
C21    C     0.23672   0.20883   0.46316   0.00000  Uiso   1.00
C22    C     0.04950   0.12915   0.01378   0.00000  Uiso   1.00
C23    C     0.27902   0.22149   0.48961   0.00000  Uiso   1.00
C24    C     0.18987   0.32257   0.25208   0.00000  Uiso   1.00
C25    C     0.14347   0.01076   0.24790   0.00000  Uiso   1.00
C26    C     0.12848   0.16306   0.33295   0.00000  Uiso   1.00
Cu27   Cu    0.10737   0.16108   0.24516   0.00000  Uiso   1.00
Cu28   Cu    0.22596   0.17225   0.25483   0.00000  Uiso   1.00
H29    H     0.00138   0.11037   0.02802   0.00000  Uiso   1.00
H30    H     0.25402   0.22366   0.43073   0.00000  Uiso   1.00
H31    H     0.23462   0.01284   0.25609   0.00000  Uiso   1.00
H32    H     0.09873   0.32050   0.24388   0.00000  Uiso   1.00
H33    H     0.30155   0.19803   0.33951   0.00000  Uiso   1.00
H34    H     0.27156   0.25046   0.32170   0.00000  Uiso   1.00
H35    H     0.01203   0.26441   0.33628   0.00000  Uiso   1.00
H36    H     0.06178   0.08267   0.17835   0.00000  Uiso   1.00
H37    H     0.03283   0.13567   0.16045   0.00000  Uiso   1.00
H38    H     0.32169   0.06951   0.16329   0.00000  Uiso   1.00
H39    H     0.32585   0.24372   0.47620   0.00000  Uiso   1.00
H40    H     0.14026   0.13876   0.10819   0.00000  Uiso   1.00
H41    H     0.19646   0.18973   0.39058   0.00000  Uiso   1.00
H42    H     0.32209   0.21803   0.12235   0.00000  Uiso   1.00
H43    H     0.00873   0.12567   0.37962   0.00000  Uiso   1.00
H44    H     0.30929   0.10989   0.45781   0.00000  Uiso   1.00
H45    H     0.01923   0.24111   0.04556   0.00000  Uiso   1.00
H46    H     0.07291   0.13066   0.07360   0.00000  Uiso   1.00
N47    N     0.31506   0.18068   0.26212   0.00000  Uiso   1.00
N48    N     0.01827   0.15265   0.23788   0.00000  Uiso   1.00
O49    O     0.12815   0.23809   0.24686   0.00000  Uiso   1.00
O50    O     0.32126   0.10722   0.22268   0.00000  Uiso   1.00
O51    O     0.20518   0.09524   0.25314   0.00000  Uiso   1.00
O52    O     0.22829   0.24753   0.25502   0.00000  Uiso   1.00
O53    O     0.10504   0.08580   0.24497   0.00000  Uiso   1.00
O54    O     0.08851   0.15930   0.30854   0.00000  Uiso   1.00
O55    O     0.24482   0.17403   0.19145   0.00000  Uiso   1.00
O56    O     0.18866   0.16874   0.31671   0.00000  Uiso   1.00
O57    O     0.14468   0.16460   0.18329   0.00000  Uiso   1.00
O58    O     0.01209   0.22626   0.27709   0.00000  Uiso   1.00
C59    C     0.51489   0.26660   0.25136   0.00000  Uiso   1.00
C60    C     0.53821   0.17066   0.16711   0.00000  Uiso   1.00
C61    C     0.43896   0.15888   0.38039   0.00000  Uiso   1.00
C62    C     0.56102   0.17808   0.12004   0.00000  Uiso   1.00
C63    C     0.35771   0.12807   0.44385   0.00000  Uiso   1.00
C64    C     0.63879   0.21925   0.05871   0.00000  Uiso   1.00
C65    C     0.37621   0.13727   0.39935   0.00000  Uiso   1.00
C66    C     0.62182   0.20557   0.10228   0.00000  Uiso   1.00
C67    C     0.48208   0.17378   0.40662   0.00000  Uiso   1.00
C68    C     0.51847   0.16232   0.09351   0.00000  Uiso   1.00
C69    C     0.46451   0.16585   0.45174   0.00000  Uiso   1.00
C70    C     0.48512   0.06673   0.24863   0.00000  Uiso   1.00
C71    C     0.53343   0.17734   0.04991   0.00000  Uiso   1.00
C72    C     0.40150   0.14117   0.46992   0.00000  Uiso   1.00
C73    C     0.59505   0.20588   0.03260   0.00000  Uiso   1.00
C74    C     0.50815   0.18002   0.47887   0.00000  Uiso   1.00
C75    C     0.48889   0.16553   0.02337   0.00000  Uiso   1.00
C76    C     0.64705   0.23447   0.32042   0.00000  Uiso   1.00
C77    C     0.35333   0.09909   0.17943   0.00000  Uiso   1.00
C78    C     0.42545   0.14078   0.04003   0.00000  Uiso   1.00
C79    C     0.57006   0.20883   0.46316   0.00000  Uiso   1.00
C80    C     0.38283   0.12915   0.01378   0.00000  Uiso   1.00
C81    C     0.61235   0.22149   0.48961   0.00000  Uiso   1.00
C82    C     0.52321   0.32257   0.25208   0.00000  Uiso   1.00
C83    C     0.47680   0.01076   0.24790   0.00000  Uiso   1.00
C84    C     0.46181   0.16306   0.33295   0.00000  Uiso   1.00
Cu85   Cu    0.44071   0.16108   0.24516   0.00000  Uiso   1.00
Cu86   Cu    0.55929   0.17225   0.25483   0.00000  Uiso   1.00
H87    H     0.33471   0.11037   0.02802   0.00000  Uiso   1.00
H88    H     0.58735   0.22366   0.43073   0.00000  Uiso   1.00
H89    H     0.56795   0.01284   0.25609   0.00000  Uiso   1.00
H90    H     0.43206   0.32050   0.24388   0.00000  Uiso   1.00
H91    H     0.63488   0.19803   0.33951   0.00000  Uiso   1.00
H92    H     0.60490   0.25046   0.32170   0.00000  Uiso   1.00
H93    H     0.34536   0.26441   0.33628   0.00000  Uiso   1.00
H94    H     0.39511   0.08267   0.17835   0.00000  Uiso   1.00
H95    H     0.36616   0.13567   0.16045   0.00000  Uiso   1.00
H96    H     0.65502   0.06951   0.16329   0.00000  Uiso   1.00
H97    H     0.65918   0.24372   0.47620   0.00000  Uiso   1.00
H98    H     0.47360   0.13876   0.10819   0.00000  Uiso   1.00
H99    H     0.52979   0.18973   0.39058   0.00000  Uiso   1.00
H100   H     0.65543   0.21803   0.12235   0.00000  Uiso   1.00
H101   H     0.34207   0.12567   0.37962   0.00000  Uiso   1.00
H102   H     0.64262   0.10989   0.45781   0.00000  Uiso   1.00
H103   H     0.35256   0.24111   0.04556   0.00000  Uiso   1.00
H104   H     0.40624   0.13066   0.07360   0.00000  Uiso   1.00
N105   N     0.64839   0.18068   0.26212   0.00000  Uiso   1.00
N106   N     0.35161   0.15265   0.23788   0.00000  Uiso   1.00
O107   O     0.46148   0.23809   0.24686   0.00000  Uiso   1.00
O108   O     0.65459   0.10722   0.22268   0.00000  Uiso   1.00
O109   O     0.53852   0.09524   0.25314   0.00000  Uiso   1.00
O110   O     0.56163   0.24753   0.25502   0.00000  Uiso   1.00
O111   O     0.43837   0.08580   0.24497   0.00000  Uiso   1.00
O112   O     0.42185   0.15930   0.30854   0.00000  Uiso   1.00
O113   O     0.57815   0.17403   0.19145   0.00000  Uiso   1.00
O114   O     0.52199   0.16874   0.31671   0.00000  Uiso   1.00
O115   O     0.47801   0.16460   0.18329   0.00000  Uiso   1.00
O116   O     0.34542   0.22626   0.27709   0.00000  Uiso   1.00
C117   C     0.84822   0.26660   0.25136   0.00000  Uiso   1.00
C118   C     0.87154   0.17066   0.16711   0.00000  Uiso   1.00
C119   C     0.77229   0.15888   0.38039   0.00000  Uiso   1.00
C120   C     0.89435   0.17808   0.12004   0.00000  Uiso   1.00
C121   C     0.69104   0.12807   0.44385   0.00000  Uiso   1.00
C122   C     0.97213   0.21925   0.05871   0.00000  Uiso   1.00
C123   C     0.70954   0.13727   0.39935   0.00000  Uiso   1.00
C124   C     0.95515   0.20557   0.10228   0.00000  Uiso   1.00
C125   C     0.81542   0.17378   0.40662   0.00000  Uiso   1.00
C126   C     0.85180   0.16232   0.09351   0.00000  Uiso   1.00
C127   C     0.79785   0.16585   0.45174   0.00000  Uiso   1.00
C128   C     0.81845   0.06673   0.24863   0.00000  Uiso   1.00
C129   C     0.86677   0.17734   0.04991   0.00000  Uiso   1.00
C130   C     0.73484   0.14117   0.46992   0.00000  Uiso   1.00
C131   C     0.92839   0.20588   0.03260   0.00000  Uiso   1.00
C132   C     0.84148   0.18002   0.47887   0.00000  Uiso   1.00
C133   C     0.82222   0.16553   0.02337   0.00000  Uiso   1.00
C134   C     0.98038   0.23447   0.32042   0.00000  Uiso   1.00
C135   C     0.68666   0.09909   0.17943   0.00000  Uiso   1.00
C136   C     0.75878   0.14078   0.04003   0.00000  Uiso   1.00
C137   C     0.90339   0.20883   0.46316   0.00000  Uiso   1.00
C138   C     0.71617   0.12915   0.01378   0.00000  Uiso   1.00
C139   C     0.94568   0.22149   0.48961   0.00000  Uiso   1.00
C140   C     0.85654   0.32257   0.25208   0.00000  Uiso   1.00
C141   C     0.81014   0.01076   0.24790   0.00000  Uiso   1.00
C142   C     0.79515   0.16306   0.33295   0.00000  Uiso   1.00
Cu143  Cu    0.77404   0.16108   0.24516   0.00000  Uiso   1.00
Cu144  Cu    0.89263   0.17225   0.25483   0.00000  Uiso   1.00
H145   H     0.66804   0.11037   0.02802   0.00000  Uiso   1.00
H146   H     0.92068   0.22366   0.43073   0.00000  Uiso   1.00
H147   H     0.90129   0.01284   0.25609   0.00000  Uiso   1.00
H148   H     0.76540   0.32050   0.24388   0.00000  Uiso   1.00
H149   H     0.96821   0.19803   0.33951   0.00000  Uiso   1.00
H150   H     0.93823   0.25046   0.32170   0.00000  Uiso   1.00
H151   H     0.67869   0.26441   0.33628   0.00000  Uiso   1.00
H152   H     0.72845   0.08267   0.17835   0.00000  Uiso   1.00
H153   H     0.69949   0.13567   0.16045   0.00000  Uiso   1.00
H154   H     0.98835   0.06951   0.16329   0.00000  Uiso   1.00
H155   H     0.99252   0.24372   0.47620   0.00000  Uiso   1.00
H156   H     0.80693   0.13876   0.10819   0.00000  Uiso   1.00
H157   H     0.86313   0.18973   0.39058   0.00000  Uiso   1.00
H158   H     0.98876   0.21803   0.12235   0.00000  Uiso   1.00
H159   H     0.67540   0.12567   0.37962   0.00000  Uiso   1.00
H160   H     0.97596   0.10989   0.45781   0.00000  Uiso   1.00
H161   H     0.68589   0.24111   0.04556   0.00000  Uiso   1.00
H162   H     0.73958   0.13066   0.07360   0.00000  Uiso   1.00
N163   N     0.98173   0.18068   0.26212   0.00000  Uiso   1.00
N164   N     0.68494   0.15265   0.23788   0.00000  Uiso   1.00
O165   O     0.79482   0.23809   0.24686   0.00000  Uiso   1.00
O166   O     0.98793   0.10722   0.22268   0.00000  Uiso   1.00
O167   O     0.87185   0.09524   0.25314   0.00000  Uiso   1.00
O168   O     0.89496   0.24753   0.25502   0.00000  Uiso   1.00
O169   O     0.77171   0.08580   0.24497   0.00000  Uiso   1.00
O170   O     0.75518   0.15930   0.30854   0.00000  Uiso   1.00
O171   O     0.91149   0.17403   0.19145   0.00000  Uiso   1.00
O172   O     0.85532   0.16874   0.31671   0.00000  Uiso   1.00
O173   O     0.81134   0.16460   0.18329   0.00000  Uiso   1.00
O174   O     0.67875   0.22626   0.27709   0.00000  Uiso   1.00
C175   C     0.18156   0.59993   0.25136   0.00000  Uiso   1.00
C176   C     0.20487   0.50400   0.16711   0.00000  Uiso   1.00
C177   C     0.10563   0.49221   0.38039   0.00000  Uiso   1.00
C178   C     0.22768   0.51141   0.12004   0.00000  Uiso   1.00
C179   C     0.02438   0.46141   0.44385   0.00000  Uiso   1.00
C180   C     0.30546   0.55259   0.05871   0.00000  Uiso   1.00
C181   C     0.04288   0.47061   0.39935   0.00000  Uiso   1.00
C182   C     0.28849   0.53891   0.10228   0.00000  Uiso   1.00
C183   C     0.14875   0.50711   0.40662   0.00000  Uiso   1.00
C184   C     0.18513   0.49565   0.09351   0.00000  Uiso   1.00
C185   C     0.13118   0.49919   0.45174   0.00000  Uiso   1.00
C186   C     0.15178   0.40007   0.24863   0.00000  Uiso   1.00
C187   C     0.20010   0.51068   0.04991   0.00000  Uiso   1.00
C188   C     0.06817   0.47450   0.46992   0.00000  Uiso   1.00
C189   C     0.26172   0.53921   0.03260   0.00000  Uiso   1.00
C190   C     0.17482   0.51335   0.47887   0.00000  Uiso   1.00
C191   C     0.15556   0.49887   0.02337   0.00000  Uiso   1.00
C192   C     0.31371   0.56780   0.32042   0.00000  Uiso   1.00
C193   C     0.01999   0.43243   0.17943   0.00000  Uiso   1.00
C194   C     0.09212   0.47411   0.04003   0.00000  Uiso   1.00
C195   C     0.23672   0.54217   0.46316   0.00000  Uiso   1.00
C196   C     0.04950   0.46249   0.01378   0.00000  Uiso   1.00
C197   C     0.27902   0.55483   0.48961   0.00000  Uiso   1.00
C198   C     0.18987   0.65590   0.25208   0.00000  Uiso   1.00
C199   C     0.14347   0.34410   0.24790   0.00000  Uiso   1.00
C200   C     0.12848   0.49640   0.33295   0.00000  Uiso   1.00
Cu201  Cu    0.10737   0.49441   0.24516   0.00000  Uiso   1.00
Cu202  Cu    0.22596   0.50559   0.25483   0.00000  Uiso   1.00
H203   H     0.00138   0.44371   0.02802   0.00000  Uiso   1.00
H204   H     0.25402   0.55699   0.43073   0.00000  Uiso   1.00
H205   H     0.23462   0.34617   0.25609   0.00000  Uiso   1.00
H206   H     0.09873   0.65383   0.24388   0.00000  Uiso   1.00
H207   H     0.30155   0.53137   0.33951   0.00000  Uiso   1.00
H208   H     0.27156   0.58380   0.32170   0.00000  Uiso   1.00
H209   H     0.01203   0.59774   0.33628   0.00000  Uiso   1.00
H210   H     0.06178   0.41601   0.17835   0.00000  Uiso   1.00
H211   H     0.03283   0.46901   0.16045   0.00000  Uiso   1.00
H212   H     0.32169   0.40285   0.16329   0.00000  Uiso   1.00
H213   H     0.32585   0.57706   0.47620   0.00000  Uiso   1.00
H214   H     0.14026   0.47210   0.10819   0.00000  Uiso   1.00
H215   H     0.19646   0.52307   0.39058   0.00000  Uiso   1.00
H216   H     0.32209   0.55137   0.12235   0.00000  Uiso   1.00
H217   H     0.00873   0.45900   0.37962   0.00000  Uiso   1.00
H218   H     0.30929   0.44323   0.45781   0.00000  Uiso   1.00
H219   H     0.01923   0.57445   0.04556   0.00000  Uiso   1.00
H220   H     0.07291   0.46399   0.07360   0.00000  Uiso   1.00
N221   N     0.31506   0.51401   0.26212   0.00000  Uiso   1.00
N222   N     0.01827   0.48599   0.23788   0.00000  Uiso   1.00
O223   O     0.12815   0.57142   0.24686   0.00000  Uiso   1.00
O224   O     0.32126   0.44055   0.22268   0.00000  Uiso   1.00
O225   O     0.20518   0.42858   0.25314   0.00000  Uiso   1.00
O226   O     0.22829   0.58086   0.25502   0.00000  Uiso   1.00
O227   O     0.10504   0.41914   0.24497   0.00000  Uiso   1.00
O228   O     0.08851   0.49263   0.30854   0.00000  Uiso   1.00
O229   O     0.24482   0.50737   0.19145   0.00000  Uiso   1.00
O230   O     0.18866   0.50207   0.31671   0.00000  Uiso   1.00
O231   O     0.14468   0.49793   0.18329   0.00000  Uiso   1.00
O232   O     0.01209   0.55960   0.27709   0.00000  Uiso   1.00
C233   C     0.51489   0.59993   0.25136   0.00000  Uiso   1.00
C234   C     0.53821   0.50400   0.16711   0.00000  Uiso   1.00
C235   C     0.43896   0.49221   0.38039   0.00000  Uiso   1.00
C236   C     0.56102   0.51141   0.12004   0.00000  Uiso   1.00
C237   C     0.35771   0.46141   0.44385   0.00000  Uiso   1.00
C238   C     0.63879   0.55259   0.05871   0.00000  Uiso   1.00
C239   C     0.37621   0.47061   0.39935   0.00000  Uiso   1.00
C240   C     0.62182   0.53891   0.10228   0.00000  Uiso   1.00
C241   C     0.48208   0.50711   0.40662   0.00000  Uiso   1.00
C242   C     0.51847   0.49565   0.09351   0.00000  Uiso   1.00
C243   C     0.46451   0.49919   0.45174   0.00000  Uiso   1.00
C244   C     0.48512   0.40007   0.24863   0.00000  Uiso   1.00
C245   C     0.53343   0.51068   0.04991   0.00000  Uiso   1.00
C246   C     0.40150   0.47450   0.46992   0.00000  Uiso   1.00
C247   C     0.59505   0.53921   0.03260   0.00000  Uiso   1.00
C248   C     0.50815   0.51335   0.47887   0.00000  Uiso   1.00
C249   C     0.48889   0.49887   0.02337   0.00000  Uiso   1.00
C250   C     0.64705   0.56780   0.32042   0.00000  Uiso   1.00
C251   C     0.35333   0.43243   0.17943   0.00000  Uiso   1.00
C252   C     0.42545   0.47411   0.04003   0.00000  Uiso   1.00
C253   C     0.57006   0.54217   0.46316   0.00000  Uiso   1.00
C254   C     0.38283   0.46249   0.01378   0.00000  Uiso   1.00
C255   C     0.61235   0.55483   0.48961   0.00000  Uiso   1.00
C256   C     0.52321   0.65590   0.25208   0.00000  Uiso   1.00
C257   C     0.47680   0.34410   0.24790   0.00000  Uiso   1.00
C258   C     0.46181   0.49640   0.33295   0.00000  Uiso   1.00
Cu259  Cu    0.44071   0.49441   0.24516   0.00000  Uiso   1.00
Cu260  Cu    0.55929   0.50559   0.25483   0.00000  Uiso   1.00
H261   H     0.33471   0.44371   0.02802   0.00000  Uiso   1.00
H262   H     0.58735   0.55699   0.43073   0.00000  Uiso   1.00
H263   H     0.56795   0.34617   0.25609   0.00000  Uiso   1.00
H264   H     0.43206   0.65383   0.24388   0.00000  Uiso   1.00
H265   H     0.63488   0.53137   0.33951   0.00000  Uiso   1.00
H266   H     0.60490   0.58380   0.32170   0.00000  Uiso   1.00
H267   H     0.34536   0.59774   0.33628   0.00000  Uiso   1.00
H268   H     0.39511   0.41601   0.17835   0.00000  Uiso   1.00
H269   H     0.36616   0.46901   0.16045   0.00000  Uiso   1.00
H270   H     0.65502   0.40285   0.16329   0.00000  Uiso   1.00
H271   H     0.65918   0.57706   0.47620   0.00000  Uiso   1.00
H272   H     0.47360   0.47210   0.10819   0.00000  Uiso   1.00
H273   H     0.52979   0.52307   0.39058   0.00000  Uiso   1.00
H274   H     0.65543   0.55137   0.12235   0.00000  Uiso   1.00
H275   H     0.34207   0.45900   0.37962   0.00000  Uiso   1.00
H276   H     0.64262   0.44323   0.45781   0.00000  Uiso   1.00
H277   H     0.35256   0.57445   0.04556   0.00000  Uiso   1.00
H278   H     0.40624   0.46399   0.07360   0.00000  Uiso   1.00
N279   N     0.64839   0.51401   0.26212   0.00000  Uiso   1.00
N280   N     0.35161   0.48599   0.23788   0.00000  Uiso   1.00
O281   O     0.46148   0.57142   0.24686   0.00000  Uiso   1.00
O282   O     0.65459   0.44055   0.22268   0.00000  Uiso   1.00
O283   O     0.53852   0.42858   0.25314   0.00000  Uiso   1.00
O284   O     0.56163   0.58086   0.25502   0.00000  Uiso   1.00
O285   O     0.43837   0.41914   0.24497   0.00000  Uiso   1.00
O286   O     0.42185   0.49263   0.30854   0.00000  Uiso   1.00
O287   O     0.57815   0.50737   0.19145   0.00000  Uiso   1.00
O288   O     0.52199   0.50207   0.31671   0.00000  Uiso   1.00
O289   O     0.47801   0.49793   0.18329   0.00000  Uiso   1.00
O290   O     0.34542   0.55960   0.27709   0.00000  Uiso   1.00
C291   C     0.84822   0.59993   0.25136   0.00000  Uiso   1.00
C292   C     0.87154   0.50400   0.16711   0.00000  Uiso   1.00
C293   C     0.77229   0.49221   0.38039   0.00000  Uiso   1.00
C294   C     0.89435   0.51141   0.12004   0.00000  Uiso   1.00
C295   C     0.69104   0.46141   0.44385   0.00000  Uiso   1.00
C296   C     0.97213   0.55259   0.05871   0.00000  Uiso   1.00
C297   C     0.70954   0.47061   0.39935   0.00000  Uiso   1.00
C298   C     0.95515   0.53891   0.10228   0.00000  Uiso   1.00
C299   C     0.81542   0.50711   0.40662   0.00000  Uiso   1.00
C300   C     0.85180   0.49565   0.09351   0.00000  Uiso   1.00
C301   C     0.79785   0.49919   0.45174   0.00000  Uiso   1.00
C302   C     0.81845   0.40007   0.24863   0.00000  Uiso   1.00
C303   C     0.86677   0.51068   0.04991   0.00000  Uiso   1.00
C304   C     0.73484   0.47450   0.46992   0.00000  Uiso   1.00
C305   C     0.92839   0.53921   0.03260   0.00000  Uiso   1.00
C306   C     0.84148   0.51335   0.47887   0.00000  Uiso   1.00
C307   C     0.82222   0.49887   0.02337   0.00000  Uiso   1.00
C308   C     0.98038   0.56780   0.32042   0.00000  Uiso   1.00
C309   C     0.68666   0.43243   0.17943   0.00000  Uiso   1.00
C310   C     0.75878   0.47411   0.04003   0.00000  Uiso   1.00
C311   C     0.90339   0.54217   0.46316   0.00000  Uiso   1.00
C312   C     0.71617   0.46249   0.01378   0.00000  Uiso   1.00
C313   C     0.94568   0.55483   0.48961   0.00000  Uiso   1.00
C314   C     0.85654   0.65590   0.25208   0.00000  Uiso   1.00
C315   C     0.81014   0.34410   0.24790   0.00000  Uiso   1.00
C316   C     0.79515   0.49640   0.33295   0.00000  Uiso   1.00
Cu317  Cu    0.77404   0.49441   0.24516   0.00000  Uiso   1.00
Cu318  Cu    0.89263   0.50559   0.25483   0.00000  Uiso   1.00
H319   H     0.66804   0.44371   0.02802   0.00000  Uiso   1.00
H320   H     0.92068   0.55699   0.43073   0.00000  Uiso   1.00
H321   H     0.90129   0.34617   0.25609   0.00000  Uiso   1.00
H322   H     0.76540   0.65383   0.24388   0.00000  Uiso   1.00
H323   H     0.96821   0.53137   0.33951   0.00000  Uiso   1.00
H324   H     0.93823   0.58380   0.32170   0.00000  Uiso   1.00
H325   H     0.67869   0.59774   0.33628   0.00000  Uiso   1.00
H326   H     0.72845   0.41601   0.17835   0.00000  Uiso   1.00
H327   H     0.69949   0.46901   0.16045   0.00000  Uiso   1.00
H328   H     0.98835   0.40285   0.16329   0.00000  Uiso   1.00
H329   H     0.99252   0.57706   0.47620   0.00000  Uiso   1.00
H330   H     0.80693   0.47210   0.10819   0.00000  Uiso   1.00
H331   H     0.86313   0.52307   0.39058   0.00000  Uiso   1.00
H332   H     0.98876   0.55137   0.12235   0.00000  Uiso   1.00
H333   H     0.67540   0.45900   0.37962   0.00000  Uiso   1.00
H334   H     0.97596   0.44323   0.45781   0.00000  Uiso   1.00
H335   H     0.68589   0.57445   0.04556   0.00000  Uiso   1.00
H336   H     0.73958   0.46399   0.07360   0.00000  Uiso   1.00
N337   N     0.98173   0.51401   0.26212   0.00000  Uiso   1.00
N338   N     0.68494   0.48599   0.23788   0.00000  Uiso   1.00
O339   O     0.79482   0.57142   0.24686   0.00000  Uiso   1.00
O340   O     0.98793   0.44055   0.22268   0.00000  Uiso   1.00
O341   O     0.87185   0.42858   0.25314   0.00000  Uiso   1.00
O342   O     0.89496   0.58086   0.25502   0.00000  Uiso   1.00
O343   O     0.77171   0.41914   0.24497   0.00000  Uiso   1.00
O344   O     0.75518   0.49263   0.30854   0.00000  Uiso   1.00
O345   O     0.91149   0.50737   0.19145   0.00000  Uiso   1.00
O346   O     0.85532   0.50207   0.31671   0.00000  Uiso   1.00
O347   O     0.81134   0.49793   0.18329   0.00000  Uiso   1.00
O348   O     0.67875   0.55960   0.27709   0.00000  Uiso   1.00
C349   C     0.18156   0.93327   0.25136   0.00000  Uiso   1.00
C350   C     0.20487   0.83733   0.16711   0.00000  Uiso   1.00
C351   C     0.10563   0.82554   0.38039   0.00000  Uiso   1.00
C352   C     0.22768   0.84474   0.12004   0.00000  Uiso   1.00
C353   C     0.02438   0.79474   0.44385   0.00000  Uiso   1.00
C354   C     0.30546   0.88592   0.05871   0.00000  Uiso   1.00
C355   C     0.04288   0.80394   0.39935   0.00000  Uiso   1.00
C356   C     0.28849   0.87224   0.10228   0.00000  Uiso   1.00
C357   C     0.14875   0.84044   0.40662   0.00000  Uiso   1.00
C358   C     0.18513   0.82899   0.09351   0.00000  Uiso   1.00
C359   C     0.13118   0.83252   0.45174   0.00000  Uiso   1.00
C360   C     0.15178   0.73340   0.24863   0.00000  Uiso   1.00
C361   C     0.20010   0.84401   0.04991   0.00000  Uiso   1.00
C362   C     0.06817   0.80783   0.46992   0.00000  Uiso   1.00
C363   C     0.26172   0.87255   0.03260   0.00000  Uiso   1.00
C364   C     0.17482   0.84669   0.47887   0.00000  Uiso   1.00
C365   C     0.15556   0.83220   0.02337   0.00000  Uiso   1.00
C366   C     0.31371   0.90113   0.32042   0.00000  Uiso   1.00
C367   C     0.01999   0.76576   0.17943   0.00000  Uiso   1.00
C368   C     0.09212   0.80745   0.04003   0.00000  Uiso   1.00
C369   C     0.23672   0.87550   0.46316   0.00000  Uiso   1.00
C370   C     0.04950   0.79582   0.01378   0.00000  Uiso   1.00
C371   C     0.27902   0.88816   0.48961   0.00000  Uiso   1.00
C372   C     0.18987   0.98924   0.25208   0.00000  Uiso   1.00
C373   C     0.14347   0.67743   0.24790   0.00000  Uiso   1.00
C374   C     0.12848   0.82973   0.33295   0.00000  Uiso   1.00
Cu375  Cu    0.10737   0.82775   0.24516   0.00000  Uiso   1.00
Cu376  Cu    0.22596   0.83892   0.25483   0.00000  Uiso   1.00
H377   H     0.00138   0.77704   0.02802   0.00000  Uiso   1.00
H378   H     0.25402   0.89033   0.43073   0.00000  Uiso   1.00
H379   H     0.23462   0.67950   0.25609   0.00000  Uiso   1.00
H380   H     0.09873   0.98716   0.24388   0.00000  Uiso   1.00
H381   H     0.30155   0.86470   0.33951   0.00000  Uiso   1.00
H382   H     0.27156   0.91713   0.32170   0.00000  Uiso   1.00
H383   H     0.01203   0.93107   0.33628   0.00000  Uiso   1.00
H384   H     0.06178   0.74934   0.17835   0.00000  Uiso   1.00
H385   H     0.03283   0.80234   0.16045   0.00000  Uiso   1.00
H386   H     0.32169   0.73618   0.16329   0.00000  Uiso   1.00
H387   H     0.32585   0.91039   0.47620   0.00000  Uiso   1.00
H388   H     0.14026   0.80543   0.10819   0.00000  Uiso   1.00
H389   H     0.19646   0.85640   0.39058   0.00000  Uiso   1.00
H390   H     0.32209   0.88470   0.12235   0.00000  Uiso   1.00
H391   H     0.00873   0.79234   0.37962   0.00000  Uiso   1.00
H392   H     0.30929   0.77656   0.45781   0.00000  Uiso   1.00
H393   H     0.01923   0.90778   0.04556   0.00000  Uiso   1.00
H394   H     0.07291   0.79732   0.07360   0.00000  Uiso   1.00
N395   N     0.31506   0.84735   0.26212   0.00000  Uiso   1.00
N396   N     0.01827   0.81932   0.23788   0.00000  Uiso   1.00
O397   O     0.12815   0.90476   0.24686   0.00000  Uiso   1.00
O398   O     0.32126   0.77388   0.22268   0.00000  Uiso   1.00
O399   O     0.20518   0.76191   0.25314   0.00000  Uiso   1.00
O400   O     0.22829   0.91420   0.25502   0.00000  Uiso   1.00
O401   O     0.10504   0.75247   0.24497   0.00000  Uiso   1.00
O402   O     0.08851   0.82597   0.30854   0.00000  Uiso   1.00
O403   O     0.24482   0.84070   0.19145   0.00000  Uiso   1.00
O404   O     0.18866   0.83540   0.31671   0.00000  Uiso   1.00
O405   O     0.14468   0.83126   0.18329   0.00000  Uiso   1.00
O406   O     0.01209   0.89293   0.27709   0.00000  Uiso   1.00
C407   C     0.51489   0.93327   0.25136   0.00000  Uiso   1.00
C408   C     0.53821   0.83733   0.16711   0.00000  Uiso   1.00
C409   C     0.43896   0.82554   0.38039   0.00000  Uiso   1.00
C410   C     0.56102   0.84474   0.12004   0.00000  Uiso   1.00
C411   C     0.35771   0.79474   0.44385   0.00000  Uiso   1.00
C412   C     0.63879   0.88592   0.05871   0.00000  Uiso   1.00
C413   C     0.37621   0.80394   0.39935   0.00000  Uiso   1.00
C414   C     0.62182   0.87224   0.10228   0.00000  Uiso   1.00
C415   C     0.48208   0.84044   0.40662   0.00000  Uiso   1.00
C416   C     0.51847   0.82899   0.09351   0.00000  Uiso   1.00
C417   C     0.46451   0.83252   0.45174   0.00000  Uiso   1.00
C418   C     0.48512   0.73340   0.24863   0.00000  Uiso   1.00
C419   C     0.53343   0.84401   0.04991   0.00000  Uiso   1.00
C420   C     0.40150   0.80783   0.46992   0.00000  Uiso   1.00
C421   C     0.59505   0.87255   0.03260   0.00000  Uiso   1.00
C422   C     0.50815   0.84669   0.47887   0.00000  Uiso   1.00
C423   C     0.48889   0.83220   0.02337   0.00000  Uiso   1.00
C424   C     0.64705   0.90113   0.32042   0.00000  Uiso   1.00
C425   C     0.35333   0.76576   0.17943   0.00000  Uiso   1.00
C426   C     0.42545   0.80745   0.04003   0.00000  Uiso   1.00
C427   C     0.57006   0.87550   0.46316   0.00000  Uiso   1.00
C428   C     0.38283   0.79582   0.01378   0.00000  Uiso   1.00
C429   C     0.61235   0.88816   0.48961   0.00000  Uiso   1.00
C430   C     0.52321   0.98924   0.25208   0.00000  Uiso   1.00
C431   C     0.47680   0.67743   0.24790   0.00000  Uiso   1.00
C432   C     0.46181   0.82973   0.33295   0.00000  Uiso   1.00
Cu433  Cu    0.44071   0.82775   0.24516   0.00000  Uiso   1.00
Cu434  Cu    0.55929   0.83892   0.25483   0.00000  Uiso   1.00
H435   H     0.33471   0.77704   0.02802   0.00000  Uiso   1.00
H436   H     0.58735   0.89033   0.43073   0.00000  Uiso   1.00
H437   H     0.56795   0.67950   0.25609   0.00000  Uiso   1.00
H438   H     0.43206   0.98716   0.24388   0.00000  Uiso   1.00
H439   H     0.63488   0.86470   0.33951   0.00000  Uiso   1.00
H440   H     0.60490   0.91713   0.32170   0.00000  Uiso   1.00
H441   H     0.34536   0.93107   0.33628   0.00000  Uiso   1.00
H442   H     0.39511   0.74934   0.17835   0.00000  Uiso   1.00
H443   H     0.36616   0.80234   0.16045   0.00000  Uiso   1.00
H444   H     0.65502   0.73618   0.16329   0.00000  Uiso   1.00
H445   H     0.65918   0.91039   0.47620   0.00000  Uiso   1.00
H446   H     0.47360   0.80543   0.10819   0.00000  Uiso   1.00
H447   H     0.52979   0.85640   0.39058   0.00000  Uiso   1.00
H448   H     0.65543   0.88470   0.12235   0.00000  Uiso   1.00
H449   H     0.34207   0.79234   0.37962   0.00000  Uiso   1.00
H450   H     0.64262   0.77656   0.45781   0.00000  Uiso   1.00
H451   H     0.35256   0.90778   0.04556   0.00000  Uiso   1.00
H452   H     0.40624   0.79732   0.07360   0.00000  Uiso   1.00
N453   N     0.64839   0.84735   0.26212   0.00000  Uiso   1.00
N454   N     0.35161   0.81932   0.23788   0.00000  Uiso   1.00
O455   O     0.46148   0.90476   0.24686   0.00000  Uiso   1.00
O456   O     0.65459   0.77388   0.22268   0.00000  Uiso   1.00
O457   O     0.53852   0.76191   0.25314   0.00000  Uiso   1.00
O458   O     0.56163   0.91420   0.25502   0.00000  Uiso   1.00
O459   O     0.43837   0.75247   0.24497   0.00000  Uiso   1.00
O460   O     0.42185   0.82597   0.30854   0.00000  Uiso   1.00
O461   O     0.57815   0.84070   0.19145   0.00000  Uiso   1.00
O462   O     0.52199   0.83540   0.31671   0.00000  Uiso   1.00
O463   O     0.47801   0.83126   0.18329   0.00000  Uiso   1.00
O464   O     0.34542   0.89293   0.27709   0.00000  Uiso   1.00
C465   C     0.84822   0.93327   0.25136   0.00000  Uiso   1.00
C466   C     0.87154   0.83733   0.16711   0.00000  Uiso   1.00
C467   C     0.77229   0.82554   0.38039   0.00000  Uiso   1.00
C468   C     0.89435   0.84474   0.12004   0.00000  Uiso   1.00
C469   C     0.69104   0.79474   0.44385   0.00000  Uiso   1.00
C470   C     0.97213   0.88592   0.05871   0.00000  Uiso   1.00
C471   C     0.70954   0.80394   0.39935   0.00000  Uiso   1.00
C472   C     0.95515   0.87224   0.10228   0.00000  Uiso   1.00
C473   C     0.81542   0.84044   0.40662   0.00000  Uiso   1.00
C474   C     0.85180   0.82899   0.09351   0.00000  Uiso   1.00
C475   C     0.79785   0.83252   0.45174   0.00000  Uiso   1.00
C476   C     0.81845   0.73340   0.24863   0.00000  Uiso   1.00
C477   C     0.86677   0.84401   0.04991   0.00000  Uiso   1.00
C478   C     0.73484   0.80783   0.46992   0.00000  Uiso   1.00
C479   C     0.92839   0.87255   0.03260   0.00000  Uiso   1.00
C480   C     0.84148   0.84669   0.47887   0.00000  Uiso   1.00
C481   C     0.82222   0.83220   0.02337   0.00000  Uiso   1.00
C482   C     0.98038   0.90113   0.32042   0.00000  Uiso   1.00
C483   C     0.68666   0.76576   0.17943   0.00000  Uiso   1.00
C484   C     0.75878   0.80745   0.04003   0.00000  Uiso   1.00
C485   C     0.90339   0.87550   0.46316   0.00000  Uiso   1.00
C486   C     0.71617   0.79582   0.01378   0.00000  Uiso   1.00
C487   C     0.94568   0.88816   0.48961   0.00000  Uiso   1.00
C488   C     0.85654   0.98924   0.25208   0.00000  Uiso   1.00
C489   C     0.81014   0.67743   0.24790   0.00000  Uiso   1.00
C490   C     0.79515   0.82973   0.33295   0.00000  Uiso   1.00
Cu491  Cu    0.77404   0.82775   0.24516   0.00000  Uiso   1.00
Cu492  Cu    0.89263   0.83892   0.25483   0.00000  Uiso   1.00
H493   H     0.66804   0.77704   0.02802   0.00000  Uiso   1.00
H494   H     0.92068   0.89033   0.43073   0.00000  Uiso   1.00
H495   H     0.90129   0.67950   0.25609   0.00000  Uiso   1.00
H496   H     0.76540   0.98716   0.24388   0.00000  Uiso   1.00
H497   H     0.96821   0.86470   0.33951   0.00000  Uiso   1.00
H498   H     0.93823   0.91713   0.32170   0.00000  Uiso   1.00
H499   H     0.67869   0.93107   0.33628   0.00000  Uiso   1.00
H500   H     0.72845   0.74934   0.17835   0.00000  Uiso   1.00
H501   H     0.69949   0.80234   0.16045   0.00000  Uiso   1.00
H502   H     0.98835   0.73618   0.16329   0.00000  Uiso   1.00
H503   H     0.99252   0.91039   0.47620   0.00000  Uiso   1.00
H504   H     0.80693   0.80543   0.10819   0.00000  Uiso   1.00
H505   H     0.86313   0.85640   0.39058   0.00000  Uiso   1.00
H506   H     0.98876   0.88470   0.12235   0.00000  Uiso   1.00
H507   H     0.67540   0.79234   0.37962   0.00000  Uiso   1.00
H508   H     0.97596   0.77656   0.45781   0.00000  Uiso   1.00
H509   H     0.68589   0.90778   0.04556   0.00000  Uiso   1.00
H510   H     0.73958   0.79732   0.07360   0.00000  Uiso   1.00
N511   N     0.98173   0.84735   0.26212   0.00000  Uiso   1.00
N512   N     0.68494   0.81932   0.23788   0.00000  Uiso   1.00
O513   O     0.79482   0.90476   0.24686   0.00000  Uiso   1.00
O514   O     0.98793   0.77388   0.22268   0.00000  Uiso   1.00
O515   O     0.87185   0.76191   0.25314   0.00000  Uiso   1.00
O516   O     0.89496   0.91420   0.25502   0.00000  Uiso   1.00
O517   O     0.77171   0.75247   0.24497   0.00000  Uiso   1.00
O518   O     0.75518   0.82597   0.30854   0.00000  Uiso   1.00
O519   O     0.91149   0.84070   0.19145   0.00000  Uiso   1.00
O520   O     0.85532   0.83540   0.31671   0.00000  Uiso   1.00
O521   O     0.81134   0.83126   0.18329   0.00000  Uiso   1.00
O522   O     0.67875   0.89293   0.27709   0.00000  Uiso   1.00
C523   C     0.18156   0.26660   0.75136   0.00000  Uiso   1.00
C524   C     0.20487   0.17066   0.66711   0.00000  Uiso   1.00
C525   C     0.10563   0.15888   0.88039   0.00000  Uiso   1.00
C526   C     0.22768   0.17808   0.62004   0.00000  Uiso   1.00
C527   C     0.02438   0.12807   0.94385   0.00000  Uiso   1.00
C528   C     0.30546   0.21925   0.55871   0.00000  Uiso   1.00
C529   C     0.04288   0.13727   0.89935   0.00000  Uiso   1.00
C530   C     0.28849   0.20557   0.60228   0.00000  Uiso   1.00
C531   C     0.14875   0.17378   0.90662   0.00000  Uiso   1.00
C532   C     0.18513   0.16232   0.59351   0.00000  Uiso   1.00
C533   C     0.13118   0.16585   0.95174   0.00000  Uiso   1.00
C534   C     0.15178   0.06673   0.74863   0.00000  Uiso   1.00
C535   C     0.20010   0.17734   0.54991   0.00000  Uiso   1.00
C536   C     0.06817   0.14117   0.96992   0.00000  Uiso   1.00
C537   C     0.26172   0.20588   0.53260   0.00000  Uiso   1.00
C538   C     0.17482   0.18002   0.97887   0.00000  Uiso   1.00
C539   C     0.15556   0.16553   0.52337   0.00000  Uiso   1.00
C540   C     0.31371   0.23447   0.82042   0.00000  Uiso   1.00
C541   C     0.01999   0.09909   0.67943   0.00000  Uiso   1.00
C542   C     0.09212   0.14078   0.54003   0.00000  Uiso   1.00
C543   C     0.23672   0.20883   0.96316   0.00000  Uiso   1.00
C544   C     0.04950   0.12915   0.51378   0.00000  Uiso   1.00
C545   C     0.27902   0.22149   0.98961   0.00000  Uiso   1.00
C546   C     0.18987   0.32257   0.75208   0.00000  Uiso   1.00
C547   C     0.14347   0.01076   0.74790   0.00000  Uiso   1.00
C548   C     0.12848   0.16306   0.83295   0.00000  Uiso   1.00
Cu549  Cu    0.10737   0.16108   0.74516   0.00000  Uiso   1.00
Cu550  Cu    0.22596   0.17225   0.75483   0.00000  Uiso   1.00
H551   H     0.00138   0.11037   0.52802   0.00000  Uiso   1.00
H552   H     0.25402   0.22366   0.93073   0.00000  Uiso   1.00
H553   H     0.23462   0.01284   0.75609   0.00000  Uiso   1.00
H554   H     0.09873   0.32050   0.74388   0.00000  Uiso   1.00
H555   H     0.30155   0.19803   0.83951   0.00000  Uiso   1.00
H556   H     0.27156   0.25046   0.82170   0.00000  Uiso   1.00
H557   H     0.01203   0.26441   0.83628   0.00000  Uiso   1.00
H558   H     0.06178   0.08267   0.67835   0.00000  Uiso   1.00
H559   H     0.03283   0.13567   0.66045   0.00000  Uiso   1.00
H560   H     0.32169   0.06951   0.66329   0.00000  Uiso   1.00
H561   H     0.32585   0.24372   0.97620   0.00000  Uiso   1.00
H562   H     0.14026   0.13876   0.60819   0.00000  Uiso   1.00
H563   H     0.19646   0.18973   0.89058   0.00000  Uiso   1.00
H564   H     0.32209   0.21803   0.62235   0.00000  Uiso   1.00
H565   H     0.00873   0.12567   0.87962   0.00000  Uiso   1.00
H566   H     0.30929   0.10989   0.95781   0.00000  Uiso   1.00
H567   H     0.01923   0.24111   0.54556   0.00000  Uiso   1.00
H568   H     0.07291   0.13066   0.57360   0.00000  Uiso   1.00
N569   N     0.31506   0.18068   0.76212   0.00000  Uiso   1.00
N570   N     0.01827   0.15265   0.73788   0.00000  Uiso   1.00
O571   O     0.12815   0.23809   0.74686   0.00000  Uiso   1.00
O572   O     0.32126   0.10722   0.72268   0.00000  Uiso   1.00
O573   O     0.20518   0.09524   0.75314   0.00000  Uiso   1.00
O574   O     0.22829   0.24753   0.75502   0.00000  Uiso   1.00
O575   O     0.10504   0.08580   0.74497   0.00000  Uiso   1.00
O576   O     0.08851   0.15930   0.80854   0.00000  Uiso   1.00
O577   O     0.24482   0.17403   0.69145   0.00000  Uiso   1.00
O578   O     0.18866   0.16874   0.81671   0.00000  Uiso   1.00
O579   O     0.14468   0.16460   0.68329   0.00000  Uiso   1.00
O580   O     0.01209   0.22626   0.77709   0.00000  Uiso   1.00
C581   C     0.51489   0.26660   0.75136   0.00000  Uiso   1.00
C582   C     0.53821   0.17066   0.66711   0.00000  Uiso   1.00
C583   C     0.43896   0.15888   0.88039   0.00000  Uiso   1.00
C584   C     0.56102   0.17808   0.62004   0.00000  Uiso   1.00
C585   C     0.35771   0.12807   0.94385   0.00000  Uiso   1.00
C586   C     0.63879   0.21925   0.55871   0.00000  Uiso   1.00
C587   C     0.37621   0.13727   0.89935   0.00000  Uiso   1.00
C588   C     0.62182   0.20557   0.60228   0.00000  Uiso   1.00
C589   C     0.48208   0.17378   0.90662   0.00000  Uiso   1.00
C590   C     0.51847   0.16232   0.59351   0.00000  Uiso   1.00
C591   C     0.46451   0.16585   0.95174   0.00000  Uiso   1.00
C592   C     0.48512   0.06673   0.74863   0.00000  Uiso   1.00
C593   C     0.53343   0.17734   0.54991   0.00000  Uiso   1.00
C594   C     0.40150   0.14117   0.96992   0.00000  Uiso   1.00
C595   C     0.59505   0.20588   0.53260   0.00000  Uiso   1.00
C596   C     0.50815   0.18002   0.97887   0.00000  Uiso   1.00
C597   C     0.48889   0.16553   0.52337   0.00000  Uiso   1.00
C598   C     0.64705   0.23447   0.82042   0.00000  Uiso   1.00
C599   C     0.35333   0.09909   0.67943   0.00000  Uiso   1.00
C600   C     0.42545   0.14078   0.54003   0.00000  Uiso   1.00
C601   C     0.57006   0.20883   0.96316   0.00000  Uiso   1.00
C602   C     0.38283   0.12915   0.51378   0.00000  Uiso   1.00
C603   C     0.61235   0.22149   0.98961   0.00000  Uiso   1.00
C604   C     0.52321   0.32257   0.75208   0.00000  Uiso   1.00
C605   C     0.47680   0.01076   0.74790   0.00000  Uiso   1.00
C606   C     0.46181   0.16306   0.83295   0.00000  Uiso   1.00
Cu607  Cu    0.44071   0.16108   0.74516   0.00000  Uiso   1.00
Cu608  Cu    0.55929   0.17225   0.75483   0.00000  Uiso   1.00
H609   H     0.33471   0.11037   0.52802   0.00000  Uiso   1.00
H610   H     0.58735   0.22366   0.93073   0.00000  Uiso   1.00
H611   H     0.56795   0.01284   0.75609   0.00000  Uiso   1.00
H612   H     0.43206   0.32050   0.74388   0.00000  Uiso   1.00
H613   H     0.63488   0.19803   0.83951   0.00000  Uiso   1.00
H614   H     0.60490   0.25046   0.82170   0.00000  Uiso   1.00
H615   H     0.34536   0.26441   0.83628   0.00000  Uiso   1.00
H616   H     0.39511   0.08267   0.67835   0.00000  Uiso   1.00
H617   H     0.36616   0.13567   0.66045   0.00000  Uiso   1.00
H618   H     0.65502   0.06951   0.66329   0.00000  Uiso   1.00
H619   H     0.65918   0.24372   0.97620   0.00000  Uiso   1.00
H620   H     0.47360   0.13876   0.60819   0.00000  Uiso   1.00
H621   H     0.52979   0.18973   0.89058   0.00000  Uiso   1.00
H622   H     0.65543   0.21803   0.62235   0.00000  Uiso   1.00
H623   H     0.34207   0.12567   0.87962   0.00000  Uiso   1.00
H624   H     0.64262   0.10989   0.95781   0.00000  Uiso   1.00
H625   H     0.35256   0.24111   0.54556   0.00000  Uiso   1.00
H626   H     0.40624   0.13066   0.57360   0.00000  Uiso   1.00
N627   N     0.64839   0.18068   0.76212   0.00000  Uiso   1.00
N628   N     0.35161   0.15265   0.73788   0.00000  Uiso   1.00
O629   O     0.46148   0.23809   0.74686   0.00000  Uiso   1.00
O630   O     0.65459   0.10722   0.72268   0.00000  Uiso   1.00
O631   O     0.53852   0.09524   0.75314   0.00000  Uiso   1.00
O632   O     0.56163   0.24753   0.75502   0.00000  Uiso   1.00
O633   O     0.43837   0.08580   0.74497   0.00000  Uiso   1.00
O634   O     0.42185   0.15930   0.80854   0.00000  Uiso   1.00
O635   O     0.57815   0.17403   0.69145   0.00000  Uiso   1.00
O636   O     0.52199   0.16874   0.81671   0.00000  Uiso   1.00
O637   O     0.47801   0.16460   0.68329   0.00000  Uiso   1.00
O638   O     0.34542   0.22626   0.77709   0.00000  Uiso   1.00
C639   C     0.84822   0.26660   0.75136   0.00000  Uiso   1.00
C640   C     0.87154   0.17066   0.66711   0.00000  Uiso   1.00
C641   C     0.77229   0.15888   0.88039   0.00000  Uiso   1.00
C642   C     0.89435   0.17808   0.62004   0.00000  Uiso   1.00
C643   C     0.69104   0.12807   0.94385   0.00000  Uiso   1.00
C644   C     0.97213   0.21925   0.55871   0.00000  Uiso   1.00
C645   C     0.70954   0.13727   0.89935   0.00000  Uiso   1.00
C646   C     0.95515   0.20557   0.60228   0.00000  Uiso   1.00
C647   C     0.81542   0.17378   0.90662   0.00000  Uiso   1.00
C648   C     0.85180   0.16232   0.59351   0.00000  Uiso   1.00
C649   C     0.79785   0.16585   0.95174   0.00000  Uiso   1.00
C650   C     0.81845   0.06673   0.74863   0.00000  Uiso   1.00
C651   C     0.86677   0.17734   0.54991   0.00000  Uiso   1.00
C652   C     0.73484   0.14117   0.96992   0.00000  Uiso   1.00
C653   C     0.92839   0.20588   0.53260   0.00000  Uiso   1.00
C654   C     0.84148   0.18002   0.97887   0.00000  Uiso   1.00
C655   C     0.82222   0.16553   0.52337   0.00000  Uiso   1.00
C656   C     0.98038   0.23447   0.82042   0.00000  Uiso   1.00
C657   C     0.68666   0.09909   0.67943   0.00000  Uiso   1.00
C658   C     0.75878   0.14078   0.54003   0.00000  Uiso   1.00
C659   C     0.90339   0.20883   0.96316   0.00000  Uiso   1.00
C660   C     0.71617   0.12915   0.51378   0.00000  Uiso   1.00
C661   C     0.94568   0.22149   0.98961   0.00000  Uiso   1.00
C662   C     0.85654   0.32257   0.75208   0.00000  Uiso   1.00
C663   C     0.81014   0.01076   0.74790   0.00000  Uiso   1.00
C664   C     0.79515   0.16306   0.83295   0.00000  Uiso   1.00
Cu665  Cu    0.77404   0.16108   0.74516   0.00000  Uiso   1.00
Cu666  Cu    0.89263   0.17225   0.75483   0.00000  Uiso   1.00
H667   H     0.66804   0.11037   0.52802   0.00000  Uiso   1.00
H668   H     0.92068   0.22366   0.93073   0.00000  Uiso   1.00
H669   H     0.90129   0.01284   0.75609   0.00000  Uiso   1.00
H670   H     0.76540   0.32050   0.74388   0.00000  Uiso   1.00
H671   H     0.96821   0.19803   0.83951   0.00000  Uiso   1.00
H672   H     0.93823   0.25046   0.82170   0.00000  Uiso   1.00
H673   H     0.67869   0.26441   0.83628   0.00000  Uiso   1.00
H674   H     0.72845   0.08267   0.67835   0.00000  Uiso   1.00
H675   H     0.69949   0.13567   0.66045   0.00000  Uiso   1.00
H676   H     0.98835   0.06951   0.66329   0.00000  Uiso   1.00
H677   H     0.99252   0.24372   0.97620   0.00000  Uiso   1.00
H678   H     0.80693   0.13876   0.60819   0.00000  Uiso   1.00
H679   H     0.86313   0.18973   0.89058   0.00000  Uiso   1.00
H680   H     0.98876   0.21803   0.62235   0.00000  Uiso   1.00
H681   H     0.67540   0.12567   0.87962   0.00000  Uiso   1.00
H682   H     0.97596   0.10989   0.95781   0.00000  Uiso   1.00
H683   H     0.68589   0.24111   0.54556   0.00000  Uiso   1.00
H684   H     0.73958   0.13066   0.57360   0.00000  Uiso   1.00
N685   N     0.98173   0.18068   0.76212   0.00000  Uiso   1.00
N686   N     0.68494   0.15265   0.73788   0.00000  Uiso   1.00
O687   O     0.79482   0.23809   0.74686   0.00000  Uiso   1.00
O688   O     0.98793   0.10722   0.72268   0.00000  Uiso   1.00
O689   O     0.87185   0.09524   0.75314   0.00000  Uiso   1.00
O690   O     0.89496   0.24753   0.75502   0.00000  Uiso   1.00
O691   O     0.77171   0.08580   0.74497   0.00000  Uiso   1.00
O692   O     0.75518   0.15930   0.80854   0.00000  Uiso   1.00
O693   O     0.91149   0.17403   0.69145   0.00000  Uiso   1.00
O694   O     0.85532   0.16874   0.81671   0.00000  Uiso   1.00
O695   O     0.81134   0.16460   0.68329   0.00000  Uiso   1.00
O696   O     0.67875   0.22626   0.77709   0.00000  Uiso   1.00
C697   C     0.18156   0.59993   0.75136   0.00000  Uiso   1.00
C698   C     0.20487   0.50400   0.66711   0.00000  Uiso   1.00
C699   C     0.10563   0.49221   0.88039   0.00000  Uiso   1.00
C700   C     0.22768   0.51141   0.62004   0.00000  Uiso   1.00
C701   C     0.02438   0.46141   0.94385   0.00000  Uiso   1.00
C702   C     0.30546   0.55259   0.55871   0.00000  Uiso   1.00
C703   C     0.04288   0.47061   0.89935   0.00000  Uiso   1.00
C704   C     0.28849   0.53891   0.60228   0.00000  Uiso   1.00
C705   C     0.14875   0.50711   0.90662   0.00000  Uiso   1.00
C706   C     0.18513   0.49565   0.59351   0.00000  Uiso   1.00
C707   C     0.13118   0.49919   0.95174   0.00000  Uiso   1.00
C708   C     0.15178   0.40007   0.74863   0.00000  Uiso   1.00
C709   C     0.20010   0.51068   0.54991   0.00000  Uiso   1.00
C710   C     0.06817   0.47450   0.96992   0.00000  Uiso   1.00
C711   C     0.26172   0.53921   0.53260   0.00000  Uiso   1.00
C712   C     0.17482   0.51335   0.97887   0.00000  Uiso   1.00
C713   C     0.15556   0.49887   0.52337   0.00000  Uiso   1.00
C714   C     0.31371   0.56780   0.82042   0.00000  Uiso   1.00
C715   C     0.01999   0.43243   0.67943   0.00000  Uiso   1.00
C716   C     0.09212   0.47411   0.54003   0.00000  Uiso   1.00
C717   C     0.23672   0.54217   0.96316   0.00000  Uiso   1.00
C718   C     0.04950   0.46249   0.51378   0.00000  Uiso   1.00
C719   C     0.27902   0.55483   0.98961   0.00000  Uiso   1.00
C720   C     0.18987   0.65590   0.75208   0.00000  Uiso   1.00
C721   C     0.14347   0.34410   0.74790   0.00000  Uiso   1.00
C722   C     0.12848   0.49640   0.83295   0.00000  Uiso   1.00
Cu723  Cu    0.10737   0.49441   0.74516   0.00000  Uiso   1.00
Cu724  Cu    0.22596   0.50559   0.75483   0.00000  Uiso   1.00
H725   H     0.00138   0.44371   0.52802   0.00000  Uiso   1.00
H726   H     0.25402   0.55699   0.93073   0.00000  Uiso   1.00
H727   H     0.23462   0.34617   0.75609   0.00000  Uiso   1.00
H728   H     0.09873   0.65383   0.74388   0.00000  Uiso   1.00
H729   H     0.30155   0.53137   0.83951   0.00000  Uiso   1.00
H730   H     0.27156   0.58380   0.82170   0.00000  Uiso   1.00
H731   H     0.01203   0.59774   0.83628   0.00000  Uiso   1.00
H732   H     0.06178   0.41601   0.67835   0.00000  Uiso   1.00
H733   H     0.03283   0.46901   0.66045   0.00000  Uiso   1.00
H734   H     0.32169   0.40285   0.66329   0.00000  Uiso   1.00
H735   H     0.32585   0.57706   0.97620   0.00000  Uiso   1.00
H736   H     0.14026   0.47210   0.60819   0.00000  Uiso   1.00
H737   H     0.19646   0.52307   0.89058   0.00000  Uiso   1.00
H738   H     0.32209   0.55137   0.62235   0.00000  Uiso   1.00
H739   H     0.00873   0.45900   0.87962   0.00000  Uiso   1.00
H740   H     0.30929   0.44323   0.95781   0.00000  Uiso   1.00
H741   H     0.01923   0.57445   0.54556   0.00000  Uiso   1.00
H742   H     0.07291   0.46399   0.57360   0.00000  Uiso   1.00
N743   N     0.31506   0.51401   0.76212   0.00000  Uiso   1.00
N744   N     0.01827   0.48599   0.73788   0.00000  Uiso   1.00
O745   O     0.12815   0.57142   0.74686   0.00000  Uiso   1.00
O746   O     0.32126   0.44055   0.72268   0.00000  Uiso   1.00
O747   O     0.20518   0.42858   0.75314   0.00000  Uiso   1.00
O748   O     0.22829   0.58086   0.75502   0.00000  Uiso   1.00
O749   O     0.10504   0.41914   0.74497   0.00000  Uiso   1.00
O750   O     0.08851   0.49263   0.80854   0.00000  Uiso   1.00
O751   O     0.24482   0.50737   0.69145   0.00000  Uiso   1.00
O752   O     0.18866   0.50207   0.81671   0.00000  Uiso   1.00
O753   O     0.14468   0.49793   0.68329   0.00000  Uiso   1.00
O754   O     0.01209   0.55960   0.77709   0.00000  Uiso   1.00
C755   C     0.51489   0.59993   0.75136   0.00000  Uiso   1.00
C756   C     0.53821   0.50400   0.66711   0.00000  Uiso   1.00
C757   C     0.43896   0.49221   0.88039   0.00000  Uiso   1.00
C758   C     0.56102   0.51141   0.62004   0.00000  Uiso   1.00
C759   C     0.35771   0.46141   0.94385   0.00000  Uiso   1.00
C760   C     0.63879   0.55259   0.55871   0.00000  Uiso   1.00
C761   C     0.37621   0.47061   0.89935   0.00000  Uiso   1.00
C762   C     0.62182   0.53891   0.60228   0.00000  Uiso   1.00
C763   C     0.48208   0.50711   0.90662   0.00000  Uiso   1.00
C764   C     0.51847   0.49565   0.59351   0.00000  Uiso   1.00
C765   C     0.46451   0.49919   0.95174   0.00000  Uiso   1.00
C766   C     0.48512   0.40007   0.74863   0.00000  Uiso   1.00
C767   C     0.53343   0.51068   0.54991   0.00000  Uiso   1.00
C768   C     0.40150   0.47450   0.96992   0.00000  Uiso   1.00
C769   C     0.59505   0.53921   0.53260   0.00000  Uiso   1.00
C770   C     0.50815   0.51335   0.97887   0.00000  Uiso   1.00
C771   C     0.48889   0.49887   0.52337   0.00000  Uiso   1.00
C772   C     0.64705   0.56780   0.82042   0.00000  Uiso   1.00
C773   C     0.35333   0.43243   0.67943   0.00000  Uiso   1.00
C774   C     0.42545   0.47411   0.54003   0.00000  Uiso   1.00
C775   C     0.57006   0.54217   0.96316   0.00000  Uiso   1.00
C776   C     0.38283   0.46249   0.51378   0.00000  Uiso   1.00
C777   C     0.61235   0.55483   0.98961   0.00000  Uiso   1.00
C778   C     0.52321   0.65590   0.75208   0.00000  Uiso   1.00
C779   C     0.47680   0.34410   0.74790   0.00000  Uiso   1.00
C780   C     0.46181   0.49640   0.83295   0.00000  Uiso   1.00
Cu781  Cu    0.44071   0.49441   0.74516   0.00000  Uiso   1.00
Cu782  Cu    0.55929   0.50559   0.75483   0.00000  Uiso   1.00
H783   H     0.33471   0.44371   0.52802   0.00000  Uiso   1.00
H784   H     0.58735   0.55699   0.93073   0.00000  Uiso   1.00
H785   H     0.56795   0.34617   0.75609   0.00000  Uiso   1.00
H786   H     0.43206   0.65383   0.74388   0.00000  Uiso   1.00
H787   H     0.63488   0.53137   0.83951   0.00000  Uiso   1.00
H788   H     0.60490   0.58380   0.82170   0.00000  Uiso   1.00
H789   H     0.34536   0.59774   0.83628   0.00000  Uiso   1.00
H790   H     0.39511   0.41601   0.67835   0.00000  Uiso   1.00
H791   H     0.36616   0.46901   0.66045   0.00000  Uiso   1.00
H792   H     0.65502   0.40285   0.66329   0.00000  Uiso   1.00
H793   H     0.65918   0.57706   0.97620   0.00000  Uiso   1.00
H794   H     0.47360   0.47210   0.60819   0.00000  Uiso   1.00
H795   H     0.52979   0.52307   0.89058   0.00000  Uiso   1.00
H796   H     0.65543   0.55137   0.62235   0.00000  Uiso   1.00
H797   H     0.34207   0.45900   0.87962   0.00000  Uiso   1.00
H798   H     0.64262   0.44323   0.95781   0.00000  Uiso   1.00
H799   H     0.35256   0.57445   0.54556   0.00000  Uiso   1.00
H800   H     0.40624   0.46399   0.57360   0.00000  Uiso   1.00
N801   N     0.64839   0.51401   0.76212   0.00000  Uiso   1.00
N802   N     0.35161   0.48599   0.73788   0.00000  Uiso   1.00
O803   O     0.46148   0.57142   0.74686   0.00000  Uiso   1.00
O804   O     0.65459   0.44055   0.72268   0.00000  Uiso   1.00
O805   O     0.53852   0.42858   0.75314   0.00000  Uiso   1.00
O806   O     0.56163   0.58086   0.75502   0.00000  Uiso   1.00
O807   O     0.43837   0.41914   0.74497   0.00000  Uiso   1.00
O808   O     0.42185   0.49263   0.80854   0.00000  Uiso   1.00
O809   O     0.57815   0.50737   0.69145   0.00000  Uiso   1.00
O810   O     0.52199   0.50207   0.81671   0.00000  Uiso   1.00
O811   O     0.47801   0.49793   0.68329   0.00000  Uiso   1.00
O812   O     0.34542   0.55960   0.77709   0.00000  Uiso   1.00
C813   C     0.84822   0.59993   0.75136   0.00000  Uiso   1.00
C814   C     0.87154   0.50400   0.66711   0.00000  Uiso   1.00
C815   C     0.77229   0.49221   0.88039   0.00000  Uiso   1.00
C816   C     0.89435   0.51141   0.62004   0.00000  Uiso   1.00
C817   C     0.69104   0.46141   0.94385   0.00000  Uiso   1.00
C818   C     0.97213   0.55259   0.55871   0.00000  Uiso   1.00
C819   C     0.70954   0.47061   0.89935   0.00000  Uiso   1.00
C820   C     0.95515   0.53891   0.60228   0.00000  Uiso   1.00
C821   C     0.81542   0.50711   0.90662   0.00000  Uiso   1.00
C822   C     0.85180   0.49565   0.59351   0.00000  Uiso   1.00
C823   C     0.79785   0.49919   0.95174   0.00000  Uiso   1.00
C824   C     0.81845   0.40007   0.74863   0.00000  Uiso   1.00
C825   C     0.86677   0.51068   0.54991   0.00000  Uiso   1.00
C826   C     0.73484   0.47450   0.96992   0.00000  Uiso   1.00
C827   C     0.92839   0.53921   0.53260   0.00000  Uiso   1.00
C828   C     0.84148   0.51335   0.97887   0.00000  Uiso   1.00
C829   C     0.82222   0.49887   0.52337   0.00000  Uiso   1.00
C830   C     0.98038   0.56780   0.82042   0.00000  Uiso   1.00
C831   C     0.68666   0.43243   0.67943   0.00000  Uiso   1.00
C832   C     0.75878   0.47411   0.54003   0.00000  Uiso   1.00
C833   C     0.90339   0.54217   0.96316   0.00000  Uiso   1.00
C834   C     0.71617   0.46249   0.51378   0.00000  Uiso   1.00
C835   C     0.94568   0.55483   0.98961   0.00000  Uiso   1.00
C836   C     0.85654   0.65590   0.75208   0.00000  Uiso   1.00
C837   C     0.81014   0.34410   0.74790   0.00000  Uiso   1.00
C838   C     0.79515   0.49640   0.83295   0.00000  Uiso   1.00
Cu839  Cu    0.77404   0.49441   0.74516   0.00000  Uiso   1.00
Cu840  Cu    0.89263   0.50559   0.75483   0.00000  Uiso   1.00
H841   H     0.66804   0.44371   0.52802   0.00000  Uiso   1.00
H842   H     0.92068   0.55699   0.93073   0.00000  Uiso   1.00
H843   H     0.90129   0.34617   0.75609   0.00000  Uiso   1.00
H844   H     0.76540   0.65383   0.74388   0.00000  Uiso   1.00
H845   H     0.96821   0.53137   0.83951   0.00000  Uiso   1.00
H846   H     0.93823   0.58380   0.82170   0.00000  Uiso   1.00
H847   H     0.67869   0.59774   0.83628   0.00000  Uiso   1.00
H848   H     0.72845   0.41601   0.67835   0.00000  Uiso   1.00
H849   H     0.69949   0.46901   0.66045   0.00000  Uiso   1.00
H850   H     0.98835   0.40285   0.66329   0.00000  Uiso   1.00
H851   H     0.99252   0.57706   0.97620   0.00000  Uiso   1.00
H852   H     0.80693   0.47210   0.60819   0.00000  Uiso   1.00
H853   H     0.86313   0.52307   0.89058   0.00000  Uiso   1.00
H854   H     0.98876   0.55137   0.62235   0.00000  Uiso   1.00
H855   H     0.67540   0.45900   0.87962   0.00000  Uiso   1.00
H856   H     0.97596   0.44323   0.95781   0.00000  Uiso   1.00
H857   H     0.68589   0.57445   0.54556   0.00000  Uiso   1.00
H858   H     0.73958   0.46399   0.57360   0.00000  Uiso   1.00
N859   N     0.98173   0.51401   0.76212   0.00000  Uiso   1.00
N860   N     0.68494   0.48599   0.73788   0.00000  Uiso   1.00
O861   O     0.79482   0.57142   0.74686   0.00000  Uiso   1.00
O862   O     0.98793   0.44055   0.72268   0.00000  Uiso   1.00
O863   O     0.87185   0.42858   0.75314   0.00000  Uiso   1.00
O864   O     0.89496   0.58086   0.75502   0.00000  Uiso   1.00
O865   O     0.77171   0.41914   0.74497   0.00000  Uiso   1.00
O866   O     0.75518   0.49263   0.80854   0.00000  Uiso   1.00
O867   O     0.91149   0.50737   0.69145   0.00000  Uiso   1.00
O868   O     0.85532   0.50207   0.81671   0.00000  Uiso   1.00
O869   O     0.81134   0.49793   0.68329   0.00000  Uiso   1.00
O870   O     0.67875   0.55960   0.77709   0.00000  Uiso   1.00
C871   C     0.18156   0.93327   0.75136   0.00000  Uiso   1.00
C872   C     0.20487   0.83733   0.66711   0.00000  Uiso   1.00
C873   C     0.10563   0.82554   0.88039   0.00000  Uiso   1.00
C874   C     0.22768   0.84474   0.62004   0.00000  Uiso   1.00
C875   C     0.02438   0.79474   0.94385   0.00000  Uiso   1.00
C876   C     0.30546   0.88592   0.55871   0.00000  Uiso   1.00
C877   C     0.04288   0.80394   0.89935   0.00000  Uiso   1.00
C878   C     0.28849   0.87224   0.60228   0.00000  Uiso   1.00
C879   C     0.14875   0.84044   0.90662   0.00000  Uiso   1.00
C880   C     0.18513   0.82899   0.59351   0.00000  Uiso   1.00
C881   C     0.13118   0.83252   0.95174   0.00000  Uiso   1.00
C882   C     0.15178   0.73340   0.74863   0.00000  Uiso   1.00
C883   C     0.20010   0.84401   0.54991   0.00000  Uiso   1.00
C884   C     0.06817   0.80783   0.96992   0.00000  Uiso   1.00
C885   C     0.26172   0.87255   0.53260   0.00000  Uiso   1.00
C886   C     0.17482   0.84669   0.97887   0.00000  Uiso   1.00
C887   C     0.15556   0.83220   0.52337   0.00000  Uiso   1.00
C888   C     0.31371   0.90113   0.82042   0.00000  Uiso   1.00
C889   C     0.01999   0.76576   0.67943   0.00000  Uiso   1.00
C890   C     0.09212   0.80745   0.54003   0.00000  Uiso   1.00
C891   C     0.23672   0.87550   0.96316   0.00000  Uiso   1.00
C892   C     0.04950   0.79582   0.51378   0.00000  Uiso   1.00
C893   C     0.27902   0.88816   0.98961   0.00000  Uiso   1.00
C894   C     0.18987   0.98924   0.75208   0.00000  Uiso   1.00
C895   C     0.14347   0.67743   0.74790   0.00000  Uiso   1.00
C896   C     0.12848   0.82973   0.83295   0.00000  Uiso   1.00
Cu897  Cu    0.10737   0.82775   0.74516   0.00000  Uiso   1.00
Cu898  Cu    0.22596   0.83892   0.75483   0.00000  Uiso   1.00
H899   H     0.00138   0.77704   0.52802   0.00000  Uiso   1.00
H900   H     0.25402   0.89033   0.93073   0.00000  Uiso   1.00
H901   H     0.23462   0.67950   0.75609   0.00000  Uiso   1.00
H902   H     0.09873   0.98716   0.74388   0.00000  Uiso   1.00
H903   H     0.30155   0.86470   0.83951   0.00000  Uiso   1.00
H904   H     0.27156   0.91713   0.82170   0.00000  Uiso   1.00
H905   H     0.01203   0.93107   0.83628   0.00000  Uiso   1.00
H906   H     0.06178   0.74934   0.67835   0.00000  Uiso   1.00
H907   H     0.03283   0.80234   0.66045   0.00000  Uiso   1.00
H908   H     0.32169   0.73618   0.66329   0.00000  Uiso   1.00
H909   H     0.32585   0.91039   0.97620   0.00000  Uiso   1.00
H910   H     0.14026   0.80543   0.60819   0.00000  Uiso   1.00
H911   H     0.19646   0.85640   0.89058   0.00000  Uiso   1.00
H912   H     0.32209   0.88470   0.62235   0.00000  Uiso   1.00
H913   H     0.00873   0.79234   0.87962   0.00000  Uiso   1.00
H914   H     0.30929   0.77656   0.95781   0.00000  Uiso   1.00
H915   H     0.01923   0.90778   0.54556   0.00000  Uiso   1.00
H916   H     0.07291   0.79732   0.57360   0.00000  Uiso   1.00
N917   N     0.31506   0.84735   0.76212   0.00000  Uiso   1.00
N918   N     0.01827   0.81932   0.73788   0.00000  Uiso   1.00
O919   O     0.12815   0.90476   0.74686   0.00000  Uiso   1.00
O920   O     0.32126   0.77388   0.72268   0.00000  Uiso   1.00
O921   O     0.20518   0.76191   0.75314   0.00000  Uiso   1.00
O922   O     0.22829   0.91420   0.75502   0.00000  Uiso   1.00
O923   O     0.10504   0.75247   0.74497   0.00000  Uiso   1.00
O924   O     0.08851   0.82597   0.80854   0.00000  Uiso   1.00
O925   O     0.24482   0.84070   0.69145   0.00000  Uiso   1.00
O926   O     0.18866   0.83540   0.81671   0.00000  Uiso   1.00
O927   O     0.14468   0.83126   0.68329   0.00000  Uiso   1.00
O928   O     0.01209   0.89293   0.77709   0.00000  Uiso   1.00
C929   C     0.51489   0.93327   0.75136   0.00000  Uiso   1.00
C930   C     0.53821   0.83733   0.66711   0.00000  Uiso   1.00
C931   C     0.43896   0.82554   0.88039   0.00000  Uiso   1.00
C932   C     0.56102   0.84474   0.62004   0.00000  Uiso   1.00
C933   C     0.35771   0.79474   0.94385   0.00000  Uiso   1.00
C934   C     0.63879   0.88592   0.55871   0.00000  Uiso   1.00
C935   C     0.37621   0.80394   0.89935   0.00000  Uiso   1.00
C936   C     0.62182   0.87224   0.60228   0.00000  Uiso   1.00
C937   C     0.48208   0.84044   0.90662   0.00000  Uiso   1.00
C938   C     0.51847   0.82899   0.59351   0.00000  Uiso   1.00
C939   C     0.46451   0.83252   0.95174   0.00000  Uiso   1.00
C940   C     0.48512   0.73340   0.74863   0.00000  Uiso   1.00
C941   C     0.53343   0.84401   0.54991   0.00000  Uiso   1.00
C942   C     0.40150   0.80783   0.96992   0.00000  Uiso   1.00
C943   C     0.59505   0.87255   0.53260   0.00000  Uiso   1.00
C944   C     0.50815   0.84669   0.97887   0.00000  Uiso   1.00
C945   C     0.48889   0.83220   0.52337   0.00000  Uiso   1.00
C946   C     0.64705   0.90113   0.82042   0.00000  Uiso   1.00
C947   C     0.35333   0.76576   0.67943   0.00000  Uiso   1.00
C948   C     0.42545   0.80745   0.54003   0.00000  Uiso   1.00
C949   C     0.57006   0.87550   0.96316   0.00000  Uiso   1.00
C950   C     0.38283   0.79582   0.51378   0.00000  Uiso   1.00
C951   C     0.61235   0.88816   0.98961   0.00000  Uiso   1.00
C952   C     0.52321   0.98924   0.75208   0.00000  Uiso   1.00
C953   C     0.47680   0.67743   0.74790   0.00000  Uiso   1.00
C954   C     0.46181   0.82973   0.83295   0.00000  Uiso   1.00
Cu955  Cu    0.44071   0.82775   0.74516   0.00000  Uiso   1.00
Cu956  Cu    0.55929   0.83892   0.75483   0.00000  Uiso   1.00
H957   H     0.33471   0.77704   0.52802   0.00000  Uiso   1.00
H958   H     0.58735   0.89033   0.93073   0.00000  Uiso   1.00
H959   H     0.56795   0.67950   0.75609   0.00000  Uiso   1.00
H960   H     0.43206   0.98716   0.74388   0.00000  Uiso   1.00
H961   H     0.63488   0.86470   0.83951   0.00000  Uiso   1.00
H962   H     0.60490   0.91713   0.82170   0.00000  Uiso   1.00
H963   H     0.34536   0.93107   0.83628   0.00000  Uiso   1.00
H964   H     0.39511   0.74934   0.67835   0.00000  Uiso   1.00
H965   H     0.36616   0.80234   0.66045   0.00000  Uiso   1.00
H966   H     0.65502   0.73618   0.66329   0.00000  Uiso   1.00
H967   H     0.65918   0.91039   0.97620   0.00000  Uiso   1.00
H968   H     0.47360   0.80543   0.60819   0.00000  Uiso   1.00
H969   H     0.52979   0.85640   0.89058   0.00000  Uiso   1.00
H970   H     0.65543   0.88470   0.62235   0.00000  Uiso   1.00
H971   H     0.34207   0.79234   0.87962   0.00000  Uiso   1.00
H972   H     0.64262   0.77656   0.95781   0.00000  Uiso   1.00
H973   H     0.35256   0.90778   0.54556   0.00000  Uiso   1.00
H974   H     0.40624   0.79732   0.57360   0.00000  Uiso   1.00
N975   N     0.64839   0.84735   0.76212   0.00000  Uiso   1.00
N976   N     0.35161   0.81932   0.73788   0.00000  Uiso   1.00
O977   O     0.46148   0.90476   0.74686   0.00000  Uiso   1.00
O978   O     0.65459   0.77388   0.72268   0.00000  Uiso   1.00
O979   O     0.53852   0.76191   0.75314   0.00000  Uiso   1.00
O980   O     0.56163   0.91420   0.75502   0.00000  Uiso   1.00
O981   O     0.43837   0.75247   0.74497   0.00000  Uiso   1.00
O982   O     0.42185   0.82597   0.80854   0.00000  Uiso   1.00
O983   O     0.57815   0.84070   0.69145   0.00000  Uiso   1.00
O984   O     0.52199   0.83540   0.81671   0.00000  Uiso   1.00
O985   O     0.47801   0.83126   0.68329   0.00000  Uiso   1.00
O986   O     0.34542   0.89293   0.77709   0.00000  Uiso   1.00
C987   C     0.84822   0.93327   0.75136   0.00000  Uiso   1.00
C988   C     0.87154   0.83733   0.66711   0.00000  Uiso   1.00
C989   C     0.77229   0.82554   0.88039   0.00000  Uiso   1.00
C990   C     0.89435   0.84474   0.62004   0.00000  Uiso   1.00
C991   C     0.69104   0.79474   0.94385   0.00000  Uiso   1.00
C992   C     0.97213   0.88592   0.55871   0.00000  Uiso   1.00
C993   C     0.70954   0.80394   0.89935   0.00000  Uiso   1.00
C994   C     0.95515   0.87224   0.60228   0.00000  Uiso   1.00
C995   C     0.81542   0.84044   0.90662   0.00000  Uiso   1.00
C996   C     0.85180   0.82899   0.59351   0.00000  Uiso   1.00
C997   C     0.79785   0.83252   0.95174   0.00000  Uiso   1.00
C998   C     0.81845   0.73340   0.74863   0.00000  Uiso   1.00
C999   C     0.86677   0.84401   0.54991   0.00000  Uiso   1.00
C1000  C     0.73484   0.80783   0.96992   0.00000  Uiso   1.00
C1001  C     0.92839   0.87255   0.53260   0.00000  Uiso   1.00
C1002  C     0.84148   0.84669   0.97887   0.00000  Uiso   1.00
C1003  C     0.82222   0.83220   0.52337   0.00000  Uiso   1.00
C1004  C     0.98038   0.90113   0.82042   0.00000  Uiso   1.00
C1005  C     0.68666   0.76576   0.67943   0.00000  Uiso   1.00
C1006  C     0.75878   0.80745   0.54003   0.00000  Uiso   1.00
C1007  C     0.90339   0.87550   0.96316   0.00000  Uiso   1.00
C1008  C     0.71617   0.79582   0.51378   0.00000  Uiso   1.00
C1009  C     0.94568   0.88816   0.98961   0.00000  Uiso   1.00
C1010  C     0.85654   0.98924   0.75208   0.00000  Uiso   1.00
C1011  C     0.81014   0.67743   0.74790   0.00000  Uiso   1.00
C1012  C     0.79515   0.82973   0.83295   0.00000  Uiso   1.00
Cu1013 Cu    0.77404   0.82775   0.74516   0.00000  Uiso   1.00
Cu1014 Cu    0.89263   0.83892   0.75483   0.00000  Uiso   1.00
H1015  H     0.66804   0.77704   0.52802   0.00000  Uiso   1.00
H1016  H     0.92068   0.89033   0.93073   0.00000  Uiso   1.00
H1017  H     0.90129   0.67950   0.75609   0.00000  Uiso   1.00
H1018  H     0.76540   0.98716   0.74388   0.00000  Uiso   1.00
H1019  H     0.96821   0.86470   0.83951   0.00000  Uiso   1.00
H1020  H     0.93823   0.91713   0.82170   0.00000  Uiso   1.00
H1021  H     0.67869   0.93107   0.83628   0.00000  Uiso   1.00
H1022  H     0.72845   0.74934   0.67835   0.00000  Uiso   1.00
H1023  H     0.69949   0.80234   0.66045   0.00000  Uiso   1.00
H1024  H     0.98835   0.73618   0.66329   0.00000  Uiso   1.00
H1025  H     0.99252   0.91039   0.97620   0.00000  Uiso   1.00
H1026  H     0.80693   0.80543   0.60819   0.00000  Uiso   1.00
H1027  H     0.86313   0.85640   0.89058   0.00000  Uiso   1.00
H1028  H     0.98876   0.88470   0.62235   0.00000  Uiso   1.00
H1029  H     0.67540   0.79234   0.87962   0.00000  Uiso   1.00
H1030  H     0.97596   0.77656   0.95781   0.00000  Uiso   1.00
H1031  H     0.68589   0.90778   0.54556   0.00000  Uiso   1.00
H1032  H     0.73958   0.79732   0.57360   0.00000  Uiso   1.00
N1033  N     0.98173   0.84735   0.76212   0.00000  Uiso   1.00
N1034  N     0.68494   0.81932   0.73788   0.00000  Uiso   1.00
O1035  O     0.79482   0.90476   0.74686   0.00000  Uiso   1.00
O1036  O     0.98793   0.77388   0.72268   0.00000  Uiso   1.00
O1037  O     0.87185   0.76191   0.75314   0.00000  Uiso   1.00
O1038  O     0.89496   0.91420   0.75502   0.00000  Uiso   1.00
O1039  O     0.77171   0.75247   0.74497   0.00000  Uiso   1.00
O1040  O     0.75518   0.82597   0.80854   0.00000  Uiso   1.00
O1041  O     0.91149   0.84070   0.69145   0.00000  Uiso   1.00
O1042  O     0.85532   0.83540   0.81671   0.00000  Uiso   1.00
O1043  O     0.81134   0.83126   0.68329   0.00000  Uiso   1.00
O1044  O     0.67875   0.89293   0.77709   0.00000  Uiso   1.00
loop_
_geom_bond_atom_site_label_1
_geom_bond_atom_site_label_2
_geom_bond_distance
_geom_bond_site_symmetry_2
_ccdc_geom_bond_type
C1     O52     1.291   .     A
C1     C24     1.427   .     S
C1     O49     1.298   .     A
C2     C4      1.466   .     S
C2     O55     1.305   .     A
C2     O57     1.303   .     A
C3     C9      1.399   .     A
C3     C26     1.468   .     S
C3     C7      1.399   .     A
C4     C8      1.398   .     A
C4     C10     1.397   .     A
C5     C14     1.404   .     A
C5     C7      1.392   .     A
C5     H160    1.084   1_455 S
C6     C8      1.392   .     A
C6     C15     1.404   .     A
C6     H103    1.084   .     S
C7     H43     1.083   .     S
C8     H42     1.083   .     S
C9     H41     1.073   .     S
C9     C11     1.405   .     A
C10    H40     1.074   .     S
C10    C13     1.405   .     A
C11    C14     1.418   .     A
C11    C16     1.427   .     A
C12    C25     1.427   .     S
C12    O51     1.298   .     A
C12    O53     1.291   .     A
C13    C17     1.428   .     A
C13    C15     1.419   .     A
C14    C544    1.389   .     S
C15    C545    1.389   1_554 S
C16    C21     1.417   .     A
C16    C539    1.425   .     S
C17    C20     1.417   .     A
C17    C538    1.425   1_554 S
C18    H34     1.108   .     S
C18    H33     1.114   .     S
C18    H93     1.109   .     S
C18    O116    1.404   .     S
C19    H37     1.114   .     S
C19    H36     1.108   .     S
C19    H154    1.109   1_455 S
C19    O166    1.404   1_455 S
C20    C22     1.386   .     A
C20    H46     1.075   .     S
C21    H30     1.076   .     S
C21    C23     1.386   .     A
C22    H29     1.085   .     S
C22    C536    1.389   1_554 S
C23    H39     1.085   .     S
C23    C537    1.389   .     S
C24    C199    1.327   .     S
C24    H205    1.087   .     S
C25    C372    1.327   1_545 S
C25    H380    1.087   1_545 S
C26    O54     1.306   .     A
C26    O56     1.304   .     A
Cu27   N48     2.035   .     S
Cu27   O53     1.949   .     S
Cu27   O54     1.948   .     S
Cu27   O49     1.955   .     S
Cu27   O57     1.933   .     S
Cu27   Cu28    2.708   .     S
Cu28   N47     2.035   .     S
Cu28   O56     1.933   .     S
Cu28   O51     1.955   .     S
Cu28   O52     1.949   .     S
Cu28   O55     1.948   .     S
H31    C372    1.087   1_545 S
H32    C199    1.087   .     S
H35    C134    1.109   1_455 S
H38    C77     1.109   .     S
H44    C63     1.084   .     S
H45    C122    1.084   1_455 S
N47    N106    1.287   .     S
N47    O116    1.344   .     S
N48    N163    1.287   1_455 S
N48    O166    1.344   1_455 S
O50    N106    1.344   .     S
O50    C77     1.404   .     S
O58    N163    1.344   1_455 S
O58    C134    1.404   1_455 S
C59    O110    1.291   .     A
C59    C82     1.427   .     S
C59    O107    1.298   .     A
C60    C62     1.466   .     S
C60    O113    1.305   .     A
C60    O115    1.303   .     A
C61    C67     1.399   .     A
C61    C84     1.468   .     S
C61    C65     1.399   .     A
C62    C66     1.398   .     A
C62    C68     1.397   .     A
C63    C72     1.404   .     A
C63    C65     1.392   .     A
C64    C66     1.392   .     A
C64    C73     1.404   .     A
C64    H161    1.084   .     S
C65    H101    1.083   .     S
C66    H100    1.083   .     S
C67    H99     1.073   .     S
C67    C69     1.405   .     A
C68    H98     1.074   .     S
C68    C71     1.405   .     A
C69    C72     1.418   .     A
C69    C74     1.427   .     A
C70    C83     1.427   .     S
C70    O109    1.298   .     A
C70    O111    1.291   .     A
C71    C75     1.428   .     A
C71    C73     1.419   .     A
C72    C602    1.389   .     S
C73    C603    1.389   1_554 S
C74    C79     1.417   .     A
C74    C597    1.425   .     S
C75    C78     1.417   .     A
C75    C596    1.425   1_554 S
C76    H92     1.108   .     S
C76    H91     1.114   .     S
C76    H151    1.109   .     S
C76    O174    1.404   .     S
C77    H95     1.114   .     S
C77    H94     1.108   .     S
C78    C80     1.386   .     A
C78    H104    1.075   .     S
C79    H88     1.076   .     S
C79    C81     1.386   .     A
C80    H87     1.085   .     S
C80    C594    1.389   1_554 S
C81    H97     1.085   .     S
C81    C595    1.389   .     S
C82    C257    1.327   .     S
C82    H263    1.087   .     S
C83    C430    1.327   1_545 S
C83    H438    1.087   1_545 S
C84    O112    1.306   .     A
C84    O114    1.304   .     A
Cu85   N106    2.035   .     S
Cu85   O111    1.949   .     S
Cu85   O112    1.948   .     S
Cu85   O107    1.955   .     S
Cu85   O115    1.933   .     S
Cu85   Cu86    2.708   .     S
Cu86   N105    2.035   .     S
Cu86   O114    1.933   .     S
Cu86   O109    1.955   .     S
Cu86   O110    1.949   .     S
Cu86   O113    1.948   .     S
H89    C430    1.087   1_545 S
H90    C257    1.087   .     S
H96    C135    1.109   .     S
H102   C121    1.084   .     S
N105   N164    1.287   .     S
N105   O174    1.344   .     S
O108   N164    1.344   .     S
O108   C135    1.404   .     S
C117   O168    1.291   .     A
C117   C140    1.427   .     S
C117   O165    1.298   .     A
C118   C120    1.466   .     S
C118   O171    1.305   .     A
C118   O173    1.303   .     A
C119   C125    1.399   .     A
C119   C142    1.468   .     S
C119   C123    1.399   .     A
C120   C124    1.398   .     A
C120   C126    1.397   .     A
C121   C130    1.404   .     A
C121   C123    1.392   .     A
C122   C124    1.392   .     A
C122   C131    1.404   .     A
C122   H45     1.084   1_655 S
C123   H159    1.083   .     S
C124   H158    1.083   .     S
C125   H157    1.073   .     S
C125   C127    1.405   .     A
C126   H156    1.074   .     S
C126   C129    1.405   .     A
C127   C130    1.418   .     A
C127   C132    1.427   .     A
C128   C141    1.427   .     S
C128   O167    1.298   .     A
C128   O169    1.291   .     A
C129   C133    1.428   .     A
C129   C131    1.419   .     A
C130   C660    1.389   .     S
C131   C661    1.389   1_554 S
C132   C137    1.417   .     A
C132   C655    1.425   .     S
C133   C136    1.417   .     A
C133   C654    1.425   1_554 S
C134   H150    1.108   .     S
C134   H149    1.114   .     S
C134   H35     1.109   1_655 S
C134   O58     1.404   1_655 S
C135   H153    1.114   .     S
C135   H152    1.108   .     S
C136   C138    1.386   .     A
C136   H162    1.075   .     S
C137   H146    1.076   .     S
C137   C139    1.386   .     A
C138   H145    1.085   .     S
C138   C652    1.389   1_554 S
C139   H155    1.085   .     S
C139   C653    1.389   .     S
C140   C315    1.327   .     S
C140   H321    1.087   .     S
C141   C488    1.327   1_545 S
C141   H496    1.087   1_545 S
C142   O170    1.306   .     A
C142   O172    1.304   .     A
Cu143  N164    2.035   .     S
Cu143  O169    1.949   .     S
Cu143  O170    1.948   .     S
Cu143  O165    1.955   .     S
Cu143  O173    1.933   .     S
Cu143  Cu144   2.708   .     S
Cu144  N163    2.035   .     S
Cu144  O172    1.933   .     S
Cu144  O167    1.955   .     S
Cu144  O168    1.949   .     S
Cu144  O171    1.948   .     S
H147   C488    1.087   1_545 S
H148   C315    1.087   .     S
H154   C19     1.109   1_655 S
H160   C5      1.084   1_655 S
N163   N48     1.287   1_655 S
N163   O58     1.344   1_655 S
O166   N48     1.344   1_655 S
O166   C19     1.404   1_655 S
C175   O226    1.291   .     A
C175   C198    1.427   .     S
C175   O223    1.298   .     A
C176   C178    1.466   .     S
C176   O229    1.305   .     A
C176   O231    1.303   .     A
C177   C183    1.399   .     A
C177   C200    1.468   .     S
C177   C181    1.399   .     A
C178   C182    1.398   .     A
C178   C184    1.397   .     A
C179   C188    1.404   .     A
C179   C181    1.392   .     A
C179   H334    1.084   1_455 S
C180   C182    1.392   .     A
C180   C189    1.404   .     A
C180   H277    1.084   .     S
C181   H217    1.083   .     S
C182   H216    1.083   .     S
C183   H215    1.073   .     S
C183   C185    1.405   .     A
C184   H214    1.074   .     S
C184   C187    1.405   .     A
C185   C188    1.418   .     A
C185   C190    1.427   .     A
C186   C199    1.427   .     S
C186   O225    1.298   .     A
C186   O227    1.291   .     A
C187   C191    1.428   .     A
C187   C189    1.419   .     A
C188   C718    1.389   .     S
C189   C719    1.389   1_554 S
C190   C195    1.417   .     A
C190   C713    1.425   .     S
C191   C194    1.417   .     A
C191   C712    1.425   1_554 S
C192   H208    1.108   .     S
C192   H207    1.114   .     S
C192   H267    1.109   .     S
C192   O290    1.404   .     S
C193   H211    1.114   .     S
C193   H210    1.108   .     S
C193   H328    1.109   1_455 S
C193   O340    1.404   1_455 S
C194   C196    1.386   .     A
C194   H220    1.075   .     S
C195   H204    1.076   .     S
C195   C197    1.386   .     A
C196   H203    1.085   .     S
C196   C710    1.389   1_554 S
C197   H213    1.085   .     S
C197   C711    1.389   .     S
C198   C373    1.327   .     S
C198   H379    1.087   .     S
C200   O228    1.306   .     A
C200   O230    1.304   .     A
Cu201  N222    2.035   .     S
Cu201  O227    1.949   .     S
Cu201  O228    1.948   .     S
Cu201  O223    1.955   .     S
Cu201  O231    1.933   .     S
Cu201  Cu202   2.708   .     S
Cu202  N221    2.035   .     S
Cu202  O230    1.933   .     S
Cu202  O225    1.955   .     S
Cu202  O226    1.949   .     S
Cu202  O229    1.948   .     S
H206   C373    1.087   .     S
H209   C308    1.109   1_455 S
H212   C251    1.109   .     S
H218   C237    1.084   .     S
H219   C296    1.084   1_455 S
N221   N280    1.287   .     S
N221   O290    1.344   .     S
N222   N337    1.287   1_455 S
N222   O340    1.344   1_455 S
O224   N280    1.344   .     S
O224   C251    1.404   .     S
O232   N337    1.344   1_455 S
O232   C308    1.404   1_455 S
C233   O284    1.291   .     A
C233   C256    1.427   .     S
C233   O281    1.298   .     A
C234   C236    1.466   .     S
C234   O287    1.305   .     A
C234   O289    1.303   .     A
C235   C241    1.399   .     A
C235   C258    1.468   .     S
C235   C239    1.399   .     A
C236   C240    1.398   .     A
C236   C242    1.397   .     A
C237   C246    1.404   .     A
C237   C239    1.392   .     A
C238   C240    1.392   .     A
C238   C247    1.404   .     A
C238   H335    1.084   .     S
C239   H275    1.083   .     S
C240   H274    1.083   .     S
C241   H273    1.073   .     S
C241   C243    1.405   .     A
C242   H272    1.074   .     S
C242   C245    1.405   .     A
C243   C246    1.418   .     A
C243   C248    1.427   .     A
C244   C257    1.427   .     S
C244   O283    1.298   .     A
C244   O285    1.291   .     A
C245   C249    1.428   .     A
C245   C247    1.419   .     A
C246   C776    1.389   .     S
C247   C777    1.389   1_554 S
C248   C253    1.417   .     A
C248   C771    1.425   .     S
C249   C252    1.417   .     A
C249   C770    1.425   1_554 S
C250   H266    1.108   .     S
C250   H265    1.114   .     S
C250   H325    1.109   .     S
C250   O348    1.404   .     S
C251   H269    1.114   .     S
C251   H268    1.108   .     S
C252   C254    1.386   .     A
C252   H278    1.075   .     S
C253   H262    1.076   .     S
C253   C255    1.386   .     A
C254   H261    1.085   .     S
C254   C768    1.389   1_554 S
C255   H271    1.085   .     S
C255   C769    1.389   .     S
C256   C431    1.327   .     S
C256   H437    1.087   .     S
C258   O286    1.306   .     A
C258   O288    1.304   .     A
Cu259  N280    2.035   .     S
Cu259  O285    1.949   .     S
Cu259  O286    1.948   .     S
Cu259  O281    1.955   .     S
Cu259  O289    1.933   .     S
Cu259  Cu260   2.708   .     S
Cu260  N279    2.035   .     S
Cu260  O288    1.933   .     S
Cu260  O283    1.955   .     S
Cu260  O284    1.949   .     S
Cu260  O287    1.948   .     S
H264   C431    1.087   .     S
H270   C309    1.109   .     S
H276   C295    1.084   .     S
N279   N338    1.287   .     S
N279   O348    1.344   .     S
O282   N338    1.344   .     S
O282   C309    1.404   .     S
C291   O342    1.291   .     A
C291   C314    1.427   .     S
C291   O339    1.298   .     A
C292   C294    1.466   .     S
C292   O345    1.305   .     A
C292   O347    1.303   .     A
C293   C299    1.399   .     A
C293   C316    1.468   .     S
C293   C297    1.399   .     A
C294   C298    1.398   .     A
C294   C300    1.397   .     A
C295   C304    1.404   .     A
C295   C297    1.392   .     A
C296   C298    1.392   .     A
C296   C305    1.404   .     A
C296   H219    1.084   1_655 S
C297   H333    1.083   .     S
C298   H332    1.083   .     S
C299   H331    1.073   .     S
C299   C301    1.405   .     A
C300   H330    1.074   .     S
C300   C303    1.405   .     A
C301   C304    1.418   .     A
C301   C306    1.427   .     A
C302   C315    1.427   .     S
C302   O341    1.298   .     A
C302   O343    1.291   .     A
C303   C307    1.428   .     A
C303   C305    1.419   .     A
C304   C834    1.389   .     S
C305   C835    1.389   1_554 S
C306   C311    1.417   .     A
C306   C829    1.425   .     S
C307   C310    1.417   .     A
C307   C828    1.425   1_554 S
C308   H324    1.108   .     S
C308   H323    1.114   .     S
C308   H209    1.109   1_655 S
C308   O232    1.404   1_655 S
C309   H327    1.114   .     S
C309   H326    1.108   .     S
C310   C312    1.386   .     A
C310   H336    1.075   .     S
C311   H320    1.076   .     S
C311   C313    1.386   .     A
C312   H319    1.085   .     S
C312   C826    1.389   1_554 S
C313   H329    1.085   .     S
C313   C827    1.389   .     S
C314   C489    1.327   .     S
C314   H495    1.087   .     S
C316   O344    1.306   .     A
C316   O346    1.304   .     A
Cu317  N338    2.035   .     S
Cu317  O343    1.949   .     S
Cu317  O344    1.948   .     S
Cu317  O339    1.955   .     S
Cu317  O347    1.933   .     S
Cu317  Cu318   2.708   .     S
Cu318  N337    2.035   .     S
Cu318  O346    1.933   .     S
Cu318  O341    1.955   .     S
Cu318  O342    1.949   .     S
Cu318  O345    1.948   .     S
H322   C489    1.087   .     S
H328   C193    1.109   1_655 S
H334   C179    1.084   1_655 S
N337   N222    1.287   1_655 S
N337   O232    1.344   1_655 S
O340   N222    1.344   1_655 S
O340   C193    1.404   1_655 S
C349   O400    1.291   .     A
C349   C372    1.427   .     S
C349   O397    1.298   .     A
C350   C352    1.466   .     S
C350   O403    1.305   .     A
C350   O405    1.303   .     A
C351   C357    1.399   .     A
C351   C374    1.468   .     S
C351   C355    1.399   .     A
C352   C356    1.398   .     A
C352   C358    1.397   .     A
C353   C362    1.404   .     A
C353   C355    1.392   .     A
C353   H508    1.084   1_455 S
C354   C356    1.392   .     A
C354   C363    1.404   .     A
C354   H451    1.084   .     S
C355   H391    1.083   .     S
C356   H390    1.083   .     S
C357   H389    1.073   .     S
C357   C359    1.405   .     A
C358   H388    1.074   .     S
C358   C361    1.405   .     A
C359   C362    1.418   .     A
C359   C364    1.427   .     A
C360   C373    1.427   .     S
C360   O399    1.298   .     A
C360   O401    1.291   .     A
C361   C365    1.428   .     A
C361   C363    1.419   .     A
C362   C892    1.389   .     S
C363   C893    1.389   1_554 S
C364   C369    1.417   .     A
C364   C887    1.425   .     S
C365   C368    1.417   .     A
C365   C886    1.425   1_554 S
C366   H382    1.108   .     S
C366   H381    1.114   .     S
C366   H441    1.109   .     S
C366   O464    1.404   .     S
C367   H385    1.114   .     S
C367   H384    1.108   .     S
C367   H502    1.109   1_455 S
C367   O514    1.404   1_455 S
C368   C370    1.386   .     A
C368   H394    1.075   .     S
C369   H378    1.076   .     S
C369   C371    1.386   .     A
C370   H377    1.085   .     S
C370   C884    1.389   1_554 S
C371   H387    1.085   .     S
C371   C885    1.389   .     S
C372   C25     1.327   1_565 S
C372   H31     1.087   1_565 S
C374   O402    1.306   .     A
C374   O404    1.304   .     A
Cu375  N396    2.035   .     S
Cu375  O401    1.949   .     S
Cu375  O402    1.948   .     S
Cu375  O397    1.955   .     S
Cu375  O405    1.933   .     S
Cu375  Cu376   2.708   .     S
Cu376  N395    2.035   .     S
Cu376  O404    1.933   .     S
Cu376  O399    1.955   .     S
Cu376  O400    1.949   .     S
Cu376  O403    1.948   .     S
H380   C25     1.087   1_565 S
H383   C482    1.109   1_455 S
H386   C425    1.109   .     S
H392   C411    1.084   .     S
H393   C470    1.084   1_455 S
N395   N454    1.287   .     S
N395   O464    1.344   .     S
N396   N511    1.287   1_455 S
N396   O514    1.344   1_455 S
O398   N454    1.344   .     S
O398   C425    1.404   .     S
O406   N511    1.344   1_455 S
O406   C482    1.404   1_455 S
C407   O458    1.291   .     A
C407   C430    1.427   .     S
C407   O455    1.298   .     A
C408   C410    1.466   .     S
C408   O461    1.305   .     A
C408   O463    1.303   .     A
C409   C415    1.399   .     A
C409   C432    1.468   .     S
C409   C413    1.399   .     A
C410   C414    1.398   .     A
C410   C416    1.397   .     A
C411   C420    1.404   .     A
C411   C413    1.392   .     A
C412   C414    1.392   .     A
C412   C421    1.404   .     A
C412   H509    1.084   .     S
C413   H449    1.083   .     S
C414   H448    1.083   .     S
C415   H447    1.073   .     S
C415   C417    1.405   .     A
C416   H446    1.074   .     S
C416   C419    1.405   .     A
C417   C420    1.418   .     A
C417   C422    1.427   .     A
C418   C431    1.427   .     S
C418   O457    1.298   .     A
C418   O459    1.291   .     A
C419   C423    1.428   .     A
C419   C421    1.419   .     A
C420   C950    1.389   .     S
C421   C951    1.389   1_554 S
C422   C427    1.417   .     A
C422   C945    1.425   .     S
C423   C426    1.417   .     A
C423   C944    1.425   1_554 S
C424   H440    1.108   .     S
C424   H439    1.114   .     S
C424   H499    1.109   .     S
C424   O522    1.404   .     S
C425   H443    1.114   .     S
C425   H442    1.108   .     S
C426   C428    1.386   .     A
C426   H452    1.075   .     S
C427   H436    1.076   .     S
C427   C429    1.386   .     A
C428   H435    1.085   .     S
C428   C942    1.389   1_554 S
C429   H445    1.085   .     S
C429   C943    1.389   .     S
C430   C83     1.327   1_565 S
C430   H89     1.087   1_565 S
C432   O460    1.306   .     A
C432   O462    1.304   .     A
Cu433  N454    2.035   .     S
Cu433  O459    1.949   .     S
Cu433  O460    1.948   .     S
Cu433  O455    1.955   .     S
Cu433  O463    1.933   .     S
Cu433  Cu434   2.708   .     S
Cu434  N453    2.035   .     S
Cu434  O462    1.933   .     S
Cu434  O457    1.955   .     S
Cu434  O458    1.949   .     S
Cu434  O461    1.948   .     S
H438   C83     1.087   1_565 S
H444   C483    1.109   .     S
H450   C469    1.084   .     S
N453   N512    1.287   .     S
N453   O522    1.344   .     S
O456   N512    1.344   .     S
O456   C483    1.404   .     S
C465   O516    1.291   .     A
C465   C488    1.427   .     S
C465   O513    1.298   .     A
C466   C468    1.466   .     S
C466   O519    1.305   .     A
C466   O521    1.303   .     A
C467   C473    1.399   .     A
C467   C490    1.468   .     S
C467   C471    1.399   .     A
C468   C472    1.398   .     A
C468   C474    1.397   .     A
C469   C478    1.404   .     A
C469   C471    1.392   .     A
C470   C472    1.392   .     A
C470   C479    1.404   .     A
C470   H393    1.084   1_655 S
C471   H507    1.083   .     S
C472   H506    1.083   .     S
C473   H505    1.073   .     S
C473   C475    1.405   .     A
C474   H504    1.074   .     S
C474   C477    1.405   .     A
C475   C478    1.418   .     A
C475   C480    1.427   .     A
C476   C489    1.427   .     S
C476   O515    1.298   .     A
C476   O517    1.291   .     A
C477   C481    1.428   .     A
C477   C479    1.419   .     A
C478   C1008   1.389   .     S
C479   C1009   1.389   1_554 S
C480   C485    1.417   .     A
C480   C1003   1.425   .     S
C481   C484    1.417   .     A
C481   C1002   1.425   1_554 S
C482   H498    1.108   .     S
C482   H497    1.114   .     S
C482   H383    1.109   1_655 S
C482   O406    1.404   1_655 S
C483   H501    1.114   .     S
C483   H500    1.108   .     S
C484   C486    1.386   .     A
C484   H510    1.075   .     S
C485   H494    1.076   .     S
C485   C487    1.386   .     A
C486   H493    1.085   .     S
C486   C1000   1.389   1_554 S
C487   H503    1.085   .     S
C487   C1001   1.389   .     S
C488   C141    1.327   1_565 S
C488   H147    1.087   1_565 S
C490   O518    1.306   .     A
C490   O520    1.304   .     A
Cu491  N512    2.035   .     S
Cu491  O517    1.949   .     S
Cu491  O518    1.948   .     S
Cu491  O513    1.955   .     S
Cu491  O521    1.933   .     S
Cu491  Cu492   2.708   .     S
Cu492  N511    2.035   .     S
Cu492  O520    1.933   .     S
Cu492  O515    1.955   .     S
Cu492  O516    1.949   .     S
Cu492  O519    1.948   .     S
H496   C141    1.087   1_565 S
H502   C367    1.109   1_655 S
H508   C353    1.084   1_655 S
N511   N396    1.287   1_655 S
N511   O406    1.344   1_655 S
O514   N396    1.344   1_655 S
O514   C367    1.404   1_655 S
C523   O574    1.291   .     A
C523   C546    1.427   .     S
C523   O571    1.298   .     A
C524   C526    1.466   .     S
C524   O577    1.305   .     A
C524   O579    1.303   .     A
C525   C531    1.399   .     A
C525   C548    1.468   .     S
C525   C529    1.399   .     A
C526   C530    1.398   .     A
C526   C532    1.397   .     A
C527   C536    1.404   .     A
C527   C529    1.392   .     A
C527   H682    1.084   1_455 S
C528   C530    1.392   .     A
C528   C537    1.404   .     A
C528   H625    1.084   .     S
C529   H565    1.083   .     S
C530   H564    1.083   .     S
C531   H563    1.073   .     S
C531   C533    1.405   .     A
C532   H562    1.074   .     S
C532   C535    1.405   .     A
C533   C536    1.418   .     A
C533   C538    1.427   .     A
C534   C547    1.427   .     S
C534   O573    1.298   .     A
C534   O575    1.291   .     A
C535   C539    1.428   .     A
C535   C537    1.419   .     A
C536   C22     1.389   1_556 S
C538   C543    1.417   .     A
C538   C17     1.425   1_556 S
C539   C542    1.417   .     A
C540   H556    1.108   .     S
C540   H555    1.114   .     S
C540   H615    1.109   .     S
C540   O638    1.404   .     S
C541   H559    1.114   .     S
C541   H558    1.108   .     S
C541   H676    1.109   1_455 S
C541   O688    1.404   1_455 S
C542   C544    1.386   .     A
C542   H568    1.075   .     S
C543   H552    1.076   .     S
C543   C545    1.386   .     A
C544   H551    1.085   .     S
C545   H561    1.085   .     S
C545   C15     1.389   1_556 S
C546   C721    1.327   .     S
C546   H727    1.087   .     S
C547   C894    1.327   1_545 S
C547   H902    1.087   1_545 S
C548   O576    1.306   .     A
C548   O578    1.304   .     A
Cu549  N570    2.035   .     S
Cu549  O575    1.949   .     S
Cu549  O576    1.948   .     S
Cu549  O571    1.955   .     S
Cu549  O579    1.933   .     S
Cu549  Cu550   2.708   .     S
Cu550  N569    2.035   .     S
Cu550  O578    1.933   .     S
Cu550  O573    1.955   .     S
Cu550  O574    1.949   .     S
Cu550  O577    1.948   .     S
H553   C894    1.087   1_545 S
H554   C721    1.087   .     S
H557   C656    1.109   1_455 S
H560   C599    1.109   .     S
H566   C585    1.084   .     S
H567   C644    1.084   1_455 S
N569   N628    1.287   .     S
N569   O638    1.344   .     S
N570   N685    1.287   1_455 S
N570   O688    1.344   1_455 S
O572   N628    1.344   .     S
O572   C599    1.404   .     S
O580   N685    1.344   1_455 S
O580   C656    1.404   1_455 S
C581   O632    1.291   .     A
C581   C604    1.427   .     S
C581   O629    1.298   .     A
C582   C584    1.466   .     S
C582   O635    1.305   .     A
C582   O637    1.303   .     A
C583   C589    1.399   .     A
C583   C606    1.468   .     S
C583   C587    1.399   .     A
C584   C588    1.398   .     A
C584   C590    1.397   .     A
C585   C594    1.404   .     A
C585   C587    1.392   .     A
C586   C588    1.392   .     A
C586   C595    1.404   .     A
C586   H683    1.084   .     S
C587   H623    1.083   .     S
C588   H622    1.083   .     S
C589   H621    1.073   .     S
C589   C591    1.405   .     A
C590   H620    1.074   .     S
C590   C593    1.405   .     A
C591   C594    1.418   .     A
C591   C596    1.427   .     A
C592   C605    1.427   .     S
C592   O631    1.298   .     A
C592   O633    1.291   .     A
C593   C597    1.428   .     A
C593   C595    1.419   .     A
C594   C80     1.389   1_556 S
C596   C601    1.417   .     A
C596   C75     1.425   1_556 S
C597   C600    1.417   .     A
C598   H614    1.108   .     S
C598   H613    1.114   .     S
C598   H673    1.109   .     S
C598   O696    1.404   .     S
C599   H617    1.114   .     S
C599   H616    1.108   .     S
C600   C602    1.386   .     A
C600   H626    1.075   .     S
C601   H610    1.076   .     S
C601   C603    1.386   .     A
C602   H609    1.085   .     S
C603   H619    1.085   .     S
C603   C73     1.389   1_556 S
C604   C779    1.327   .     S
C604   H785    1.087   .     S
C605   C952    1.327   1_545 S
C605   H960    1.087   1_545 S
C606   O634    1.306   .     A
C606   O636    1.304   .     A
Cu607  N628    2.035   .     S
Cu607  O633    1.949   .     S
Cu607  O634    1.948   .     S
Cu607  O629    1.955   .     S
Cu607  O637    1.933   .     S
Cu607  Cu608   2.708   .     S
Cu608  N627    2.035   .     S
Cu608  O636    1.933   .     S
Cu608  O631    1.955   .     S
Cu608  O632    1.949   .     S
Cu608  O635    1.948   .     S
H611   C952    1.087   1_545 S
H612   C779    1.087   .     S
H618   C657    1.109   .     S
H624   C643    1.084   .     S
N627   N686    1.287   .     S
N627   O696    1.344   .     S
O630   N686    1.344   .     S
O630   C657    1.404   .     S
C639   O690    1.291   .     A
C639   C662    1.427   .     S
C639   O687    1.298   .     A
C640   C642    1.466   .     S
C640   O693    1.305   .     A
C640   O695    1.303   .     A
C641   C647    1.399   .     A
C641   C664    1.468   .     S
C641   C645    1.399   .     A
C642   C646    1.398   .     A
C642   C648    1.397   .     A
C643   C652    1.404   .     A
C643   C645    1.392   .     A
C644   C646    1.392   .     A
C644   C653    1.404   .     A
C644   H567    1.084   1_655 S
C645   H681    1.083   .     S
C646   H680    1.083   .     S
C647   H679    1.073   .     S
C647   C649    1.405   .     A
C648   H678    1.074   .     S
C648   C651    1.405   .     A
C649   C652    1.418   .     A
C649   C654    1.427   .     A
C650   C663    1.427   .     S
C650   O689    1.298   .     A
C650   O691    1.291   .     A
C651   C655    1.428   .     A
C651   C653    1.419   .     A
C652   C138    1.389   1_556 S
C654   C659    1.417   .     A
C654   C133    1.425   1_556 S
C655   C658    1.417   .     A
C656   H672    1.108   .     S
C656   H671    1.114   .     S
C656   H557    1.109   1_655 S
C656   O580    1.404   1_655 S
C657   H675    1.114   .     S
C657   H674    1.108   .     S
C658   C660    1.386   .     A
C658   H684    1.075   .     S
C659   H668    1.076   .     S
C659   C661    1.386   .     A
C660   H667    1.085   .     S
C661   H677    1.085   .     S
C661   C131    1.389   1_556 S
C662   C837    1.327   .     S
C662   H843    1.087   .     S
C663   C1010   1.327   1_545 S
C663   H1018   1.087   1_545 S
C664   O692    1.306   .     A
C664   O694    1.304   .     A
Cu665  N686    2.035   .     S
Cu665  O691    1.949   .     S
Cu665  O692    1.948   .     S
Cu665  O687    1.955   .     S
Cu665  O695    1.933   .     S
Cu665  Cu666   2.708   .     S
Cu666  N685    2.035   .     S
Cu666  O694    1.933   .     S
Cu666  O689    1.955   .     S
Cu666  O690    1.949   .     S
Cu666  O693    1.948   .     S
H669   C1010   1.087   1_545 S
H670   C837    1.087   .     S
H676   C541    1.109   1_655 S
H682   C527    1.084   1_655 S
N685   N570    1.287   1_655 S
N685   O580    1.344   1_655 S
O688   N570    1.344   1_655 S
O688   C541    1.404   1_655 S
C697   O748    1.291   .     A
C697   C720    1.427   .     S
C697   O745    1.298   .     A
C698   C700    1.466   .     S
C698   O751    1.305   .     A
C698   O753    1.303   .     A
C699   C705    1.399   .     A
C699   C722    1.468   .     S
C699   C703    1.399   .     A
C700   C704    1.398   .     A
C700   C706    1.397   .     A
C701   C710    1.404   .     A
C701   C703    1.392   .     A
C701   H856    1.084   1_455 S
C702   C704    1.392   .     A
C702   C711    1.404   .     A
C702   H799    1.084   .     S
C703   H739    1.083   .     S
C704   H738    1.083   .     S
C705   H737    1.073   .     S
C705   C707    1.405   .     A
C706   H736    1.074   .     S
C706   C709    1.405   .     A
C707   C710    1.418   .     A
C707   C712    1.427   .     A
C708   C721    1.427   .     S
C708   O747    1.298   .     A
C708   O749    1.291   .     A
C709   C713    1.428   .     A
C709   C711    1.419   .     A
C710   C196    1.389   1_556 S
C712   C717    1.417   .     A
C712   C191    1.425   1_556 S
C713   C716    1.417   .     A
C714   H730    1.108   .     S
C714   H729    1.114   .     S
C714   H789    1.109   .     S
C714   O812    1.404   .     S
C715   H733    1.114   .     S
C715   H732    1.108   .     S
C715   H850    1.109   1_455 S
C715   O862    1.404   1_455 S
C716   C718    1.386   .     A
C716   H742    1.075   .     S
C717   H726    1.076   .     S
C717   C719    1.386   .     A
C718   H725    1.085   .     S
C719   H735    1.085   .     S
C719   C189    1.389   1_556 S
C720   C895    1.327   .     S
C720   H901    1.087   .     S
C722   O750    1.306   .     A
C722   O752    1.304   .     A
Cu723  N744    2.035   .     S
Cu723  O749    1.949   .     S
Cu723  O750    1.948   .     S
Cu723  O745    1.955   .     S
Cu723  O753    1.933   .     S
Cu723  Cu724   2.708   .     S
Cu724  N743    2.035   .     S
Cu724  O752    1.933   .     S
Cu724  O747    1.955   .     S
Cu724  O748    1.949   .     S
Cu724  O751    1.948   .     S
H728   C895    1.087   .     S
H731   C830    1.109   1_455 S
H734   C773    1.109   .     S
H740   C759    1.084   .     S
H741   C818    1.084   1_455 S
N743   N802    1.287   .     S
N743   O812    1.344   .     S
N744   N859    1.287   1_455 S
N744   O862    1.344   1_455 S
O746   N802    1.344   .     S
O746   C773    1.404   .     S
O754   N859    1.344   1_455 S
O754   C830    1.404   1_455 S
C755   O806    1.291   .     A
C755   C778    1.427   .     S
C755   O803    1.298   .     A
C756   C758    1.466   .     S
C756   O809    1.305   .     A
C756   O811    1.303   .     A
C757   C763    1.399   .     A
C757   C780    1.468   .     S
C757   C761    1.399   .     A
C758   C762    1.398   .     A
C758   C764    1.397   .     A
C759   C768    1.404   .     A
C759   C761    1.392   .     A
C760   C762    1.392   .     A
C760   C769    1.404   .     A
C760   H857    1.084   .     S
C761   H797    1.083   .     S
C762   H796    1.083   .     S
C763   H795    1.073   .     S
C763   C765    1.405   .     A
C764   H794    1.074   .     S
C764   C767    1.405   .     A
C765   C768    1.418   .     A
C765   C770    1.427   .     A
C766   C779    1.427   .     S
C766   O805    1.298   .     A
C766   O807    1.291   .     A
C767   C771    1.428   .     A
C767   C769    1.419   .     A
C768   C254    1.389   1_556 S
C770   C775    1.417   .     A
C770   C249    1.425   1_556 S
C771   C774    1.417   .     A
C772   H788    1.108   .     S
C772   H787    1.114   .     S
C772   H847    1.109   .     S
C772   O870    1.404   .     S
C773   H791    1.114   .     S
C773   H790    1.108   .     S
C774   C776    1.386   .     A
C774   H800    1.075   .     S
C775   H784    1.076   .     S
C775   C777    1.386   .     A
C776   H783    1.085   .     S
C777   H793    1.085   .     S
C777   C247    1.389   1_556 S
C778   C953    1.327   .     S
C778   H959    1.087   .     S
C780   O808    1.306   .     A
C780   O810    1.304   .     A
Cu781  N802    2.035   .     S
Cu781  O807    1.949   .     S
Cu781  O808    1.948   .     S
Cu781  O803    1.955   .     S
Cu781  O811    1.933   .     S
Cu781  Cu782   2.708   .     S
Cu782  N801    2.035   .     S
Cu782  O810    1.933   .     S
Cu782  O805    1.955   .     S
Cu782  O806    1.949   .     S
Cu782  O809    1.948   .     S
H786   C953    1.087   .     S
H792   C831    1.109   .     S
H798   C817    1.084   .     S
N801   N860    1.287   .     S
N801   O870    1.344   .     S
O804   N860    1.344   .     S
O804   C831    1.404   .     S
C813   O864    1.291   .     A
C813   C836    1.427   .     S
C813   O861    1.298   .     A
C814   C816    1.466   .     S
C814   O867    1.305   .     A
C814   O869    1.303   .     A
C815   C821    1.399   .     A
C815   C838    1.468   .     S
C815   C819    1.399   .     A
C816   C820    1.398   .     A
C816   C822    1.397   .     A
C817   C826    1.404   .     A
C817   C819    1.392   .     A
C818   C820    1.392   .     A
C818   C827    1.404   .     A
C818   H741    1.084   1_655 S
C819   H855    1.083   .     S
C820   H854    1.083   .     S
C821   H853    1.073   .     S
C821   C823    1.405   .     A
C822   H852    1.074   .     S
C822   C825    1.405   .     A
C823   C826    1.418   .     A
C823   C828    1.427   .     A
C824   C837    1.427   .     S
C824   O863    1.298   .     A
C824   O865    1.291   .     A
C825   C829    1.428   .     A
C825   C827    1.419   .     A
C826   C312    1.389   1_556 S
C828   C833    1.417   .     A
C828   C307    1.425   1_556 S
C829   C832    1.417   .     A
C830   H846    1.108   .     S
C830   H845    1.114   .     S
C830   H731    1.109   1_655 S
C830   O754    1.404   1_655 S
C831   H849    1.114   .     S
C831   H848    1.108   .     S
C832   C834    1.386   .     A
C832   H858    1.075   .     S
C833   H842    1.076   .     S
C833   C835    1.386   .     A
C834   H841    1.085   .     S
C835   H851    1.085   .     S
C835   C305    1.389   1_556 S
C836   C1011   1.327   .     S
C836   H1017   1.087   .     S
C838   O866    1.306   .     A
C838   O868    1.304   .     A
Cu839  N860    2.035   .     S
Cu839  O865    1.949   .     S
Cu839  O866    1.948   .     S
Cu839  O861    1.955   .     S
Cu839  O869    1.933   .     S
Cu839  Cu840   2.708   .     S
Cu840  N859    2.035   .     S
Cu840  O868    1.933   .     S
Cu840  O863    1.955   .     S
Cu840  O864    1.949   .     S
Cu840  O867    1.948   .     S
H844   C1011   1.087   .     S
H850   C715    1.109   1_655 S
H856   C701    1.084   1_655 S
N859   N744    1.287   1_655 S
N859   O754    1.344   1_655 S
O862   N744    1.344   1_655 S
O862   C715    1.404   1_655 S
C871   O922    1.291   .     A
C871   C894    1.427   .     S
C871   O919    1.298   .     A
C872   C874    1.466   .     S
C872   O925    1.305   .     A
C872   O927    1.303   .     A
C873   C879    1.399   .     A
C873   C896    1.468   .     S
C873   C877    1.399   .     A
C874   C878    1.398   .     A
C874   C880    1.397   .     A
C875   C884    1.404   .     A
C875   C877    1.392   .     A
C875   H1030   1.084   1_455 S
C876   C878    1.392   .     A
C876   C885    1.404   .     A
C876   H973    1.084   .     S
C877   H913    1.083   .     S
C878   H912    1.083   .     S
C879   H911    1.073   .     S
C879   C881    1.405   .     A
C880   H910    1.074   .     S
C880   C883    1.405   .     A
C881   C884    1.418   .     A
C881   C886    1.427   .     A
C882   C895    1.427   .     S
C882   O921    1.298   .     A
C882   O923    1.291   .     A
C883   C887    1.428   .     A
C883   C885    1.419   .     A
C884   C370    1.389   1_556 S
C886   C891    1.417   .     A
C886   C365    1.425   1_556 S
C887   C890    1.417   .     A
C888   H904    1.108   .     S
C888   H903    1.114   .     S
C888   H963    1.109   .     S
C888   O986    1.404   .     S
C889   H907    1.114   .     S
C889   H906    1.108   .     S
C889   H1024   1.109   1_455 S
C889   O1036   1.404   1_455 S
C890   C892    1.386   .     A
C890   H916    1.075   .     S
C891   H900    1.076   .     S
C891   C893    1.386   .     A
C892   H899    1.085   .     S
C893   H909    1.085   .     S
C893   C363    1.389   1_556 S
C894   C547    1.327   1_565 S
C894   H553    1.087   1_565 S
C896   O924    1.306   .     A
C896   O926    1.304   .     A
Cu897  N918    2.035   .     S
Cu897  O923    1.949   .     S
Cu897  O924    1.948   .     S
Cu897  O919    1.955   .     S
Cu897  O927    1.933   .     S
Cu897  Cu898   2.708   .     S
Cu898  N917    2.035   .     S
Cu898  O926    1.933   .     S
Cu898  O921    1.955   .     S
Cu898  O922    1.949   .     S
Cu898  O925    1.948   .     S
H902   C547    1.087   1_565 S
H905   C1004   1.109   1_455 S
H908   C947    1.109   .     S
H914   C933    1.084   .     S
H915   C992    1.084   1_455 S
N917   N976    1.287   .     S
N917   O986    1.344   .     S
N918   N1033   1.287   1_455 S
N918   O1036   1.344   1_455 S
O920   N976    1.344   .     S
O920   C947    1.404   .     S
O928   N1033   1.344   1_455 S
O928   C1004   1.404   1_455 S
C929   O980    1.291   .     A
C929   C952    1.427   .     S
C929   O977    1.298   .     A
C930   C932    1.466   .     S
C930   O983    1.305   .     A
C930   O985    1.303   .     A
C931   C937    1.399   .     A
C931   C954    1.468   .     S
C931   C935    1.399   .     A
C932   C936    1.398   .     A
C932   C938    1.397   .     A
C933   C942    1.404   .     A
C933   C935    1.392   .     A
C934   C936    1.392   .     A
C934   C943    1.404   .     A
C934   H1031   1.084   .     S
C935   H971    1.083   .     S
C936   H970    1.083   .     S
C937   H969    1.073   .     S
C937   C939    1.405   .     A
C938   H968    1.074   .     S
C938   C941    1.405   .     A
C939   C942    1.418   .     A
C939   C944    1.427   .     A
C940   C953    1.427   .     S
C940   O979    1.298   .     A
C940   O981    1.291   .     A
C941   C945    1.428   .     A
C941   C943    1.419   .     A
C942   C428    1.389   1_556 S
C944   C949    1.417   .     A
C944   C423    1.425   1_556 S
C945   C948    1.417   .     A
C946   H962    1.108   .     S
C946   H961    1.114   .     S
C946   H1021   1.109   .     S
C946   O1044   1.404   .     S
C947   H965    1.114   .     S
C947   H964    1.108   .     S
C948   C950    1.386   .     A
C948   H974    1.075   .     S
C949   H958    1.076   .     S
C949   C951    1.386   .     A
C950   H957    1.085   .     S
C951   H967    1.085   .     S
C951   C421    1.389   1_556 S
C952   C605    1.327   1_565 S
C952   H611    1.087   1_565 S
C954   O982    1.306   .     A
C954   O984    1.304   .     A
Cu955  N976    2.035   .     S
Cu955  O981    1.949   .     S
Cu955  O982    1.948   .     S
Cu955  O977    1.955   .     S
Cu955  O985    1.933   .     S
Cu955  Cu956   2.708   .     S
Cu956  N975    2.035   .     S
Cu956  O984    1.933   .     S
Cu956  O979    1.955   .     S
Cu956  O980    1.949   .     S
Cu956  O983    1.948   .     S
H960   C605    1.087   1_565 S
H966   C1005   1.109   .     S
H972   C991    1.084   .     S
N975   N1034   1.287   .     S
N975   O1044   1.344   .     S
O978   N1034   1.344   .     S
O978   C1005   1.404   .     S
C987   O1038   1.291   .     A
C987   C1010   1.427   .     S
C987   O1035   1.298   .     A
C988   C990    1.466   .     S
C988   O1041   1.305   .     A
C988   O1043   1.303   .     A
C989   C995    1.399   .     A
C989   C1012   1.468   .     S
C989   C993    1.399   .     A
C990   C994    1.398   .     A
C990   C996    1.397   .     A
C991   C1000   1.404   .     A
C991   C993    1.392   .     A
C992   C994    1.392   .     A
C992   C1001   1.404   .     A
C992   H915    1.084   1_655 S
C993   H1029   1.083   .     S
C994   H1028   1.083   .     S
C995   H1027   1.073   .     S
C995   C997    1.405   .     A
C996   H1026   1.074   .     S
C996   C999    1.405   .     A
C997   C1000   1.418   .     A
C997   C1002   1.427   .     A
C998   C1011   1.427   .     S
C998   O1037   1.298   .     A
C998   O1039   1.291   .     A
C999   C1003   1.428   .     A
C999   C1001   1.419   .     A
C1000  C486    1.389   1_556 S
C1002  C1007   1.417   .     A
C1002  C481    1.425   1_556 S
C1003  C1006   1.417   .     A
C1004  H1020   1.108   .     S
C1004  H1019   1.114   .     S
C1004  H905    1.109   1_655 S
C1004  O928    1.404   1_655 S
C1005  H1023   1.114   .     S
C1005  H1022   1.108   .     S
C1006  C1008   1.386   .     A
C1006  H1032   1.075   .     S
C1007  H1016   1.076   .     S
C1007  C1009   1.386   .     A
C1008  H1015   1.085   .     S
C1009  H1025   1.085   .     S
C1009  C479    1.389   1_556 S
C1010  C663    1.327   1_565 S
C1010  H669    1.087   1_565 S
C1012  O1040   1.306   .     A
C1012  O1042   1.304   .     A
Cu1013 N1034   2.035   .     S
Cu1013 O1039   1.949   .     S
Cu1013 O1040   1.948   .     S
Cu1013 O1035   1.955   .     S
Cu1013 O1043   1.933   .     S
Cu1013 Cu1014  2.708   .     S
Cu1014 N1033   2.035   .     S
Cu1014 O1042   1.933   .     S
Cu1014 O1037   1.955   .     S
Cu1014 O1038   1.949   .     S
Cu1014 O1041   1.948   .     S
H1018  C663    1.087   1_565 S
H1024  C889    1.109   1_655 S
H1030  C875    1.084   1_655 S
N1033  N918    1.287   1_655 S
N1033  O928    1.344   1_655 S
O1036  N918    1.344   1_655 S
O1036  C889    1.404   1_655 S
