data_str_m2_o10_o18_pcu_sym.163
_audit_creation_date              2020-01-03
_audit_creation_method            'Materials Studio'
_symmetry_space_group_name_H-M    'P1'
_symmetry_Int_Tables_number       1
_symmetry_cell_setting            triclinic
loop_
_symmetry_equiv_pos_as_xyz
  x,y,z
_cell_length_a                    22.5535
_cell_length_b                    26.0195
_cell_length_c                    31.5842
_cell_angle_alpha                 95.4539
_cell_angle_beta                  75.2337
_cell_angle_gamma                 102.8594
loop_
_atom_site_label
_atom_site_type_symbol
_atom_site_fract_x
_atom_site_fract_y
_atom_site_fract_z
_atom_site_U_iso_or_equiv
_atom_site_adp_type
_atom_site_occupancy
O1     O     0.12815   0.23809   0.24686   0.00000  Uiso   1.00
O2     O     0.20518   0.09524   0.25314   0.00000  Uiso   1.00
O3     O     0.22829   0.24753   0.25503   0.00000  Uiso   1.00
O4     O     0.10504   0.08580   0.24498   0.00000  Uiso   1.00
C5     C     0.18095   0.26655   0.25231   0.00000  Uiso   1.00
C6     C     0.15239   0.06679   0.24770   0.00000  Uiso   1.00
O7     O     0.08851   0.15930   0.30855   0.00000  Uiso   1.00
O8     O     0.24482   0.17403   0.19146   0.00000  Uiso   1.00
O9     O     0.18866   0.16874   0.31671   0.00000  Uiso   1.00
O10    O     0.14468   0.16460   0.18329   0.00000  Uiso   1.00
C11    C     0.12795   0.16182   0.33307   0.00000  Uiso   1.00
C12    C     0.20538   0.17151   0.16693   0.00000  Uiso   1.00
Cu13   Cu    0.10737   0.16108   0.24517   0.00000  Uiso   1.00
Cu14   Cu    0.22596   0.17225   0.25484   0.00000  Uiso   1.00
C15    C     0.10402   0.15584   0.38091   0.00000  Uiso   1.00
C16    C     0.22931   0.17749   0.11909   0.00000  Uiso   1.00
C17    C     0.02407   0.12371   0.44546   0.00000  Uiso   1.00
C18    C     0.30926   0.20962   0.05453   0.00000  Uiso   1.00
C19    C     0.04062   0.13493   0.40115   0.00000  Uiso   1.00
C20    C     0.29272   0.19840   0.09885   0.00000  Uiso   1.00
C21    C     0.14783   0.16833   0.40676   0.00000  Uiso   1.00
C22    C     0.18550   0.16500   0.09324   0.00000  Uiso   1.00
C23    C     0.13045   0.16242   0.45218   0.00000  Uiso   1.00
C24    C     0.20288   0.17092   0.04783   0.00000  Uiso   1.00
C25    C     0.06895   0.13511   0.47042   0.00000  Uiso   1.00
C26    C     0.26438   0.19822   0.02958   0.00000  Uiso   1.00
C27    C     0.17432   0.17754   0.47885   0.00000  Uiso   1.00
C28    C     0.15901   0.15579   0.02115   0.00000  Uiso   1.00
C29    C     0.10054   0.11981   0.03482   0.00000  Uiso   1.00
C30    C     0.23279   0.21352   0.46519   0.00000  Uiso   1.00
C31    C     0.05467   0.11426   0.01157   0.00000  Uiso   1.00
C32    C     0.27866   0.21907   0.48843   0.00000  Uiso   1.00
H33    H     0.00938   0.08880   0.02371   0.00000  Uiso   1.00
H34    H     0.32396   0.24453   0.47629   0.00000  Uiso   1.00
H35    H     0.13660   0.15465   0.10949   0.00000  Uiso   1.00
H36    H     0.19673   0.17868   0.39051   0.00000  Uiso   1.00
H37    H     0.30977   0.10400   0.46003   0.00000  Uiso   1.00
H38    H     0.02356   0.22933   0.03997   0.00000  Uiso   1.00
C39    C     0.18627   0.32237   0.25689   0.00000  Uiso   1.00
C40    C     0.14706   0.01097   0.24311   0.00000  Uiso   1.00
H41    H     0.22111   0.01194   0.27316   0.00000  Uiso   1.00
H42    H     0.11222   0.32139   0.22684   0.00000  Uiso   1.00
N43    N     0.31506   0.18068   0.26212   0.00000  Uiso   1.00
N44    N     0.01827   0.15265   0.23788   0.00000  Uiso   1.00
Cl45   Cl    0.01898   0.21701   0.12752   0.00000  Uiso   1.00
Cl46   Cl    0.31436   0.11632   0.37247   0.00000  Uiso   1.00
Cl47   Cl    0.08531   0.07199   0.07457   0.00000  Uiso   1.00
Cl48   Cl    0.24803   0.26134   0.42543   0.00000  Uiso   1.00
N49    N     0.00919   0.22646   0.28181   0.00000  Uiso   1.00
O50    O     0.01122   0.27144   0.26625   0.00000  Uiso   1.00
O51    O     0.01116   0.22599   0.32254   0.00000  Uiso   1.00
N52    N     0.32414   0.10687   0.21819   0.00000  Uiso   1.00
O53    O     0.32211   0.06189   0.23376   0.00000  Uiso   1.00
O54    O     0.32217   0.10734   0.17746   0.00000  Uiso   1.00
O55    O     0.46148   0.23809   0.24686   0.00000  Uiso   1.00
O56    O     0.53852   0.09524   0.25314   0.00000  Uiso   1.00
O57    O     0.56163   0.24753   0.25503   0.00000  Uiso   1.00
O58    O     0.43837   0.08580   0.24498   0.00000  Uiso   1.00
C59    C     0.51428   0.26655   0.25231   0.00000  Uiso   1.00
C60    C     0.48572   0.06679   0.24770   0.00000  Uiso   1.00
O61    O     0.42185   0.15930   0.30855   0.00000  Uiso   1.00
O62    O     0.57815   0.17403   0.19146   0.00000  Uiso   1.00
O63    O     0.52199   0.16874   0.31671   0.00000  Uiso   1.00
O64    O     0.47801   0.16460   0.18329   0.00000  Uiso   1.00
C65    C     0.46128   0.16182   0.33307   0.00000  Uiso   1.00
C66    C     0.53872   0.17151   0.16693   0.00000  Uiso   1.00
Cu67   Cu    0.44071   0.16108   0.24517   0.00000  Uiso   1.00
Cu68   Cu    0.55929   0.17225   0.25484   0.00000  Uiso   1.00
C69    C     0.43736   0.15584   0.38091   0.00000  Uiso   1.00
C70    C     0.56264   0.17749   0.11909   0.00000  Uiso   1.00
C71    C     0.35740   0.12371   0.44546   0.00000  Uiso   1.00
C72    C     0.64260   0.20962   0.05453   0.00000  Uiso   1.00
C73    C     0.37395   0.13493   0.40115   0.00000  Uiso   1.00
C74    C     0.62605   0.19840   0.09885   0.00000  Uiso   1.00
C75    C     0.48116   0.16833   0.40676   0.00000  Uiso   1.00
C76    C     0.51884   0.16500   0.09324   0.00000  Uiso   1.00
C77    C     0.46378   0.16242   0.45218   0.00000  Uiso   1.00
C78    C     0.53621   0.17092   0.04783   0.00000  Uiso   1.00
C79    C     0.40229   0.13511   0.47042   0.00000  Uiso   1.00
C80    C     0.59771   0.19822   0.02958   0.00000  Uiso   1.00
C81    C     0.50765   0.17754   0.47885   0.00000  Uiso   1.00
C82    C     0.49235   0.15579   0.02115   0.00000  Uiso   1.00
C83    C     0.43388   0.11981   0.03482   0.00000  Uiso   1.00
C84    C     0.56612   0.21352   0.46519   0.00000  Uiso   1.00
C85    C     0.38801   0.11426   0.01157   0.00000  Uiso   1.00
C86    C     0.61199   0.21907   0.48843   0.00000  Uiso   1.00
H87    H     0.34271   0.08880   0.02371   0.00000  Uiso   1.00
H88    H     0.65729   0.24453   0.47629   0.00000  Uiso   1.00
H89    H     0.46994   0.15465   0.10949   0.00000  Uiso   1.00
H90    H     0.53006   0.17868   0.39051   0.00000  Uiso   1.00
H91    H     0.64310   0.10400   0.46003   0.00000  Uiso   1.00
H92    H     0.35690   0.22933   0.03997   0.00000  Uiso   1.00
C93    C     0.51960   0.32237   0.25689   0.00000  Uiso   1.00
C94    C     0.48040   0.01097   0.24311   0.00000  Uiso   1.00
H95    H     0.55444   0.01194   0.27316   0.00000  Uiso   1.00
H96    H     0.44556   0.32139   0.22684   0.00000  Uiso   1.00
N97    N     0.64839   0.18068   0.26212   0.00000  Uiso   1.00
N98    N     0.35161   0.15265   0.23788   0.00000  Uiso   1.00
Cl99   Cl    0.35231   0.21701   0.12752   0.00000  Uiso   1.00
Cl100  Cl    0.64769   0.11632   0.37247   0.00000  Uiso   1.00
Cl101  Cl    0.41864   0.07199   0.07457   0.00000  Uiso   1.00
Cl102  Cl    0.58136   0.26134   0.42543   0.00000  Uiso   1.00
N103   N     0.34253   0.22646   0.28181   0.00000  Uiso   1.00
O104   O     0.34455   0.27144   0.26625   0.00000  Uiso   1.00
O105   O     0.34449   0.22599   0.32254   0.00000  Uiso   1.00
N106   N     0.65747   0.10687   0.21819   0.00000  Uiso   1.00
O107   O     0.65544   0.06189   0.23376   0.00000  Uiso   1.00
O108   O     0.65550   0.10734   0.17746   0.00000  Uiso   1.00
O109   O     0.79482   0.23809   0.24686   0.00000  Uiso   1.00
O110   O     0.87185   0.09524   0.25314   0.00000  Uiso   1.00
O111   O     0.89496   0.24753   0.25503   0.00000  Uiso   1.00
O112   O     0.77171   0.08580   0.24498   0.00000  Uiso   1.00
C113   C     0.84761   0.26655   0.25231   0.00000  Uiso   1.00
C114   C     0.81905   0.06679   0.24770   0.00000  Uiso   1.00
O115   O     0.75518   0.15930   0.30855   0.00000  Uiso   1.00
O116   O     0.91149   0.17403   0.19146   0.00000  Uiso   1.00
O117   O     0.85532   0.16874   0.31671   0.00000  Uiso   1.00
O118   O     0.81134   0.16460   0.18329   0.00000  Uiso   1.00
C119   C     0.79462   0.16182   0.33307   0.00000  Uiso   1.00
C120   C     0.87205   0.17151   0.16693   0.00000  Uiso   1.00
Cu121  Cu    0.77404   0.16108   0.24517   0.00000  Uiso   1.00
Cu122  Cu    0.89263   0.17225   0.25484   0.00000  Uiso   1.00
C123   C     0.77069   0.15584   0.38091   0.00000  Uiso   1.00
C124   C     0.89598   0.17749   0.11909   0.00000  Uiso   1.00
C125   C     0.69074   0.12371   0.44546   0.00000  Uiso   1.00
C126   C     0.97593   0.20962   0.05453   0.00000  Uiso   1.00
C127   C     0.70728   0.13493   0.40115   0.00000  Uiso   1.00
C128   C     0.95938   0.19840   0.09885   0.00000  Uiso   1.00
C129   C     0.81449   0.16833   0.40676   0.00000  Uiso   1.00
C130   C     0.85217   0.16500   0.09324   0.00000  Uiso   1.00
C131   C     0.79712   0.16242   0.45218   0.00000  Uiso   1.00
C132   C     0.86955   0.17092   0.04783   0.00000  Uiso   1.00
C133   C     0.73562   0.13511   0.47042   0.00000  Uiso   1.00
C134   C     0.93105   0.19822   0.02958   0.00000  Uiso   1.00
C135   C     0.84098   0.17754   0.47885   0.00000  Uiso   1.00
C136   C     0.82568   0.15579   0.02115   0.00000  Uiso   1.00
C137   C     0.76721   0.11981   0.03482   0.00000  Uiso   1.00
C138   C     0.89946   0.21352   0.46519   0.00000  Uiso   1.00
C139   C     0.72134   0.11426   0.01157   0.00000  Uiso   1.00
C140   C     0.94533   0.21907   0.48843   0.00000  Uiso   1.00
H141   H     0.67604   0.08880   0.02371   0.00000  Uiso   1.00
H142   H     0.99062   0.24453   0.47629   0.00000  Uiso   1.00
H143   H     0.80327   0.15465   0.10949   0.00000  Uiso   1.00
H144   H     0.86340   0.17868   0.39051   0.00000  Uiso   1.00
H145   H     0.97644   0.10400   0.46003   0.00000  Uiso   1.00
H146   H     0.69023   0.22933   0.03997   0.00000  Uiso   1.00
C147   C     0.85294   0.32237   0.25689   0.00000  Uiso   1.00
C148   C     0.81373   0.01097   0.24311   0.00000  Uiso   1.00
H149   H     0.88778   0.01194   0.27316   0.00000  Uiso   1.00
H150   H     0.77889   0.32139   0.22684   0.00000  Uiso   1.00
N151   N     0.98173   0.18068   0.26212   0.00000  Uiso   1.00
N152   N     0.68494   0.15265   0.23788   0.00000  Uiso   1.00
Cl153  Cl    0.68565   0.21701   0.12752   0.00000  Uiso   1.00
Cl154  Cl    0.98102   0.11632   0.37247   0.00000  Uiso   1.00
Cl155  Cl    0.75197   0.07199   0.07457   0.00000  Uiso   1.00
Cl156  Cl    0.91469   0.26134   0.42543   0.00000  Uiso   1.00
N157   N     0.67586   0.22646   0.28181   0.00000  Uiso   1.00
O158   O     0.67789   0.27144   0.26625   0.00000  Uiso   1.00
O159   O     0.67783   0.22599   0.32254   0.00000  Uiso   1.00
N160   N     0.99080   0.10687   0.21819   0.00000  Uiso   1.00
O161   O     0.98878   0.06189   0.23376   0.00000  Uiso   1.00
O162   O     0.98884   0.10734   0.17746   0.00000  Uiso   1.00
O163   O     0.12815   0.57142   0.24686   0.00000  Uiso   1.00
O164   O     0.20518   0.42858   0.25314   0.00000  Uiso   1.00
O165   O     0.22829   0.58086   0.25503   0.00000  Uiso   1.00
O166   O     0.10504   0.41914   0.24498   0.00000  Uiso   1.00
C167   C     0.18095   0.59988   0.25231   0.00000  Uiso   1.00
C168   C     0.15239   0.40012   0.24770   0.00000  Uiso   1.00
O169   O     0.08851   0.49263   0.30855   0.00000  Uiso   1.00
O170   O     0.24482   0.50737   0.19146   0.00000  Uiso   1.00
O171   O     0.18866   0.50207   0.31671   0.00000  Uiso   1.00
O172   O     0.14468   0.49793   0.18329   0.00000  Uiso   1.00
C173   C     0.12795   0.49516   0.33307   0.00000  Uiso   1.00
C174   C     0.20538   0.50484   0.16693   0.00000  Uiso   1.00
Cu175  Cu    0.10737   0.49441   0.24517   0.00000  Uiso   1.00
Cu176  Cu    0.22596   0.50559   0.25484   0.00000  Uiso   1.00
C177   C     0.10402   0.48918   0.38091   0.00000  Uiso   1.00
C178   C     0.22931   0.51082   0.11909   0.00000  Uiso   1.00
C179   C     0.02407   0.45704   0.44546   0.00000  Uiso   1.00
C180   C     0.30926   0.54295   0.05453   0.00000  Uiso   1.00
C181   C     0.04062   0.46826   0.40115   0.00000  Uiso   1.00
C182   C     0.29272   0.53173   0.09885   0.00000  Uiso   1.00
C183   C     0.14783   0.50166   0.40676   0.00000  Uiso   1.00
C184   C     0.18550   0.49834   0.09324   0.00000  Uiso   1.00
C185   C     0.13045   0.49575   0.45218   0.00000  Uiso   1.00
C186   C     0.20288   0.50425   0.04783   0.00000  Uiso   1.00
C187   C     0.06895   0.46845   0.47042   0.00000  Uiso   1.00
C188   C     0.26438   0.53155   0.02958   0.00000  Uiso   1.00
C189   C     0.17432   0.51087   0.47885   0.00000  Uiso   1.00
C190   C     0.15901   0.48913   0.02115   0.00000  Uiso   1.00
C191   C     0.10054   0.45314   0.03482   0.00000  Uiso   1.00
C192   C     0.23279   0.54685   0.46519   0.00000  Uiso   1.00
C193   C     0.05467   0.44759   0.01157   0.00000  Uiso   1.00
C194   C     0.27866   0.55241   0.48843   0.00000  Uiso   1.00
H195   H     0.00938   0.42213   0.02371   0.00000  Uiso   1.00
H196   H     0.32396   0.57787   0.47629   0.00000  Uiso   1.00
H197   H     0.13660   0.48798   0.10949   0.00000  Uiso   1.00
H198   H     0.19673   0.51202   0.39051   0.00000  Uiso   1.00
H199   H     0.30977   0.43733   0.46003   0.00000  Uiso   1.00
H200   H     0.02356   0.56266   0.03997   0.00000  Uiso   1.00
C201   C     0.18627   0.65570   0.25689   0.00000  Uiso   1.00
C202   C     0.14706   0.34430   0.24311   0.00000  Uiso   1.00
H203   H     0.22111   0.34527   0.27316   0.00000  Uiso   1.00
H204   H     0.11222   0.65473   0.22684   0.00000  Uiso   1.00
N205   N     0.31506   0.51401   0.26212   0.00000  Uiso   1.00
N206   N     0.01827   0.48599   0.23788   0.00000  Uiso   1.00
Cl207  Cl    0.01898   0.55034   0.12752   0.00000  Uiso   1.00
Cl208  Cl    0.31436   0.44965   0.37247   0.00000  Uiso   1.00
Cl209  Cl    0.08531   0.40532   0.07457   0.00000  Uiso   1.00
Cl210  Cl    0.24803   0.59468   0.42543   0.00000  Uiso   1.00
N211   N     0.00919   0.55980   0.28181   0.00000  Uiso   1.00
O212   O     0.01122   0.60478   0.26625   0.00000  Uiso   1.00
O213   O     0.01116   0.55932   0.32254   0.00000  Uiso   1.00
N214   N     0.32414   0.44020   0.21819   0.00000  Uiso   1.00
O215   O     0.32211   0.39523   0.23376   0.00000  Uiso   1.00
O216   O     0.32217   0.44067   0.17746   0.00000  Uiso   1.00
O217   O     0.46148   0.57142   0.24686   0.00000  Uiso   1.00
O218   O     0.53852   0.42858   0.25314   0.00000  Uiso   1.00
O219   O     0.56163   0.58086   0.25503   0.00000  Uiso   1.00
O220   O     0.43837   0.41914   0.24498   0.00000  Uiso   1.00
C221   C     0.51428   0.59988   0.25231   0.00000  Uiso   1.00
C222   C     0.48572   0.40012   0.24770   0.00000  Uiso   1.00
O223   O     0.42185   0.49263   0.30855   0.00000  Uiso   1.00
O224   O     0.57815   0.50737   0.19146   0.00000  Uiso   1.00
O225   O     0.52199   0.50207   0.31671   0.00000  Uiso   1.00
O226   O     0.47801   0.49793   0.18329   0.00000  Uiso   1.00
C227   C     0.46128   0.49516   0.33307   0.00000  Uiso   1.00
C228   C     0.53872   0.50484   0.16693   0.00000  Uiso   1.00
Cu229  Cu    0.44071   0.49441   0.24517   0.00000  Uiso   1.00
Cu230  Cu    0.55929   0.50559   0.25484   0.00000  Uiso   1.00
C231   C     0.43736   0.48918   0.38091   0.00000  Uiso   1.00
C232   C     0.56264   0.51082   0.11909   0.00000  Uiso   1.00
C233   C     0.35740   0.45704   0.44546   0.00000  Uiso   1.00
C234   C     0.64260   0.54295   0.05453   0.00000  Uiso   1.00
C235   C     0.37395   0.46826   0.40115   0.00000  Uiso   1.00
C236   C     0.62605   0.53173   0.09885   0.00000  Uiso   1.00
C237   C     0.48116   0.50166   0.40676   0.00000  Uiso   1.00
C238   C     0.51884   0.49834   0.09324   0.00000  Uiso   1.00
C239   C     0.46378   0.49575   0.45218   0.00000  Uiso   1.00
C240   C     0.53621   0.50425   0.04783   0.00000  Uiso   1.00
C241   C     0.40229   0.46845   0.47042   0.00000  Uiso   1.00
C242   C     0.59771   0.53155   0.02958   0.00000  Uiso   1.00
C243   C     0.50765   0.51087   0.47885   0.00000  Uiso   1.00
C244   C     0.49235   0.48913   0.02115   0.00000  Uiso   1.00
C245   C     0.43388   0.45314   0.03482   0.00000  Uiso   1.00
C246   C     0.56612   0.54685   0.46519   0.00000  Uiso   1.00
C247   C     0.38801   0.44759   0.01157   0.00000  Uiso   1.00
C248   C     0.61199   0.55241   0.48843   0.00000  Uiso   1.00
H249   H     0.34271   0.42213   0.02371   0.00000  Uiso   1.00
H250   H     0.65729   0.57787   0.47629   0.00000  Uiso   1.00
H251   H     0.46994   0.48798   0.10949   0.00000  Uiso   1.00
H252   H     0.53006   0.51202   0.39051   0.00000  Uiso   1.00
H253   H     0.64310   0.43733   0.46003   0.00000  Uiso   1.00
H254   H     0.35690   0.56266   0.03997   0.00000  Uiso   1.00
C255   C     0.51960   0.65570   0.25689   0.00000  Uiso   1.00
C256   C     0.48040   0.34430   0.24311   0.00000  Uiso   1.00
H257   H     0.55444   0.34527   0.27316   0.00000  Uiso   1.00
H258   H     0.44556   0.65473   0.22684   0.00000  Uiso   1.00
N259   N     0.64839   0.51401   0.26212   0.00000  Uiso   1.00
N260   N     0.35161   0.48599   0.23788   0.00000  Uiso   1.00
Cl261  Cl    0.35231   0.55034   0.12752   0.00000  Uiso   1.00
Cl262  Cl    0.64769   0.44965   0.37247   0.00000  Uiso   1.00
Cl263  Cl    0.41864   0.40532   0.07457   0.00000  Uiso   1.00
Cl264  Cl    0.58136   0.59468   0.42543   0.00000  Uiso   1.00
N265   N     0.34253   0.55980   0.28181   0.00000  Uiso   1.00
O266   O     0.34455   0.60478   0.26625   0.00000  Uiso   1.00
O267   O     0.34449   0.55932   0.32254   0.00000  Uiso   1.00
N268   N     0.65747   0.44020   0.21819   0.00000  Uiso   1.00
O269   O     0.65544   0.39523   0.23376   0.00000  Uiso   1.00
O270   O     0.65550   0.44067   0.17746   0.00000  Uiso   1.00
O271   O     0.79482   0.57142   0.24686   0.00000  Uiso   1.00
O272   O     0.87185   0.42858   0.25314   0.00000  Uiso   1.00
O273   O     0.89496   0.58086   0.25503   0.00000  Uiso   1.00
O274   O     0.77171   0.41914   0.24498   0.00000  Uiso   1.00
C275   C     0.84761   0.59988   0.25231   0.00000  Uiso   1.00
C276   C     0.81905   0.40012   0.24770   0.00000  Uiso   1.00
O277   O     0.75518   0.49263   0.30855   0.00000  Uiso   1.00
O278   O     0.91149   0.50737   0.19146   0.00000  Uiso   1.00
O279   O     0.85532   0.50207   0.31671   0.00000  Uiso   1.00
O280   O     0.81134   0.49793   0.18329   0.00000  Uiso   1.00
C281   C     0.79462   0.49516   0.33307   0.00000  Uiso   1.00
C282   C     0.87205   0.50484   0.16693   0.00000  Uiso   1.00
Cu283  Cu    0.77404   0.49441   0.24517   0.00000  Uiso   1.00
Cu284  Cu    0.89263   0.50559   0.25484   0.00000  Uiso   1.00
C285   C     0.77069   0.48918   0.38091   0.00000  Uiso   1.00
C286   C     0.89598   0.51082   0.11909   0.00000  Uiso   1.00
C287   C     0.69074   0.45704   0.44546   0.00000  Uiso   1.00
C288   C     0.97593   0.54295   0.05453   0.00000  Uiso   1.00
C289   C     0.70728   0.46826   0.40115   0.00000  Uiso   1.00
C290   C     0.95938   0.53173   0.09885   0.00000  Uiso   1.00
C291   C     0.81449   0.50166   0.40676   0.00000  Uiso   1.00
C292   C     0.85217   0.49834   0.09324   0.00000  Uiso   1.00
C293   C     0.79712   0.49575   0.45218   0.00000  Uiso   1.00
C294   C     0.86955   0.50425   0.04783   0.00000  Uiso   1.00
C295   C     0.73562   0.46845   0.47042   0.00000  Uiso   1.00
C296   C     0.93105   0.53155   0.02958   0.00000  Uiso   1.00
C297   C     0.84098   0.51087   0.47885   0.00000  Uiso   1.00
C298   C     0.82568   0.48913   0.02115   0.00000  Uiso   1.00
C299   C     0.76721   0.45314   0.03482   0.00000  Uiso   1.00
C300   C     0.89946   0.54685   0.46519   0.00000  Uiso   1.00
C301   C     0.72134   0.44759   0.01157   0.00000  Uiso   1.00
C302   C     0.94533   0.55241   0.48843   0.00000  Uiso   1.00
H303   H     0.67604   0.42213   0.02371   0.00000  Uiso   1.00
H304   H     0.99062   0.57787   0.47629   0.00000  Uiso   1.00
H305   H     0.80327   0.48798   0.10949   0.00000  Uiso   1.00
H306   H     0.86340   0.51202   0.39051   0.00000  Uiso   1.00
H307   H     0.97644   0.43733   0.46003   0.00000  Uiso   1.00
H308   H     0.69023   0.56266   0.03997   0.00000  Uiso   1.00
C309   C     0.85294   0.65570   0.25689   0.00000  Uiso   1.00
C310   C     0.81373   0.34430   0.24311   0.00000  Uiso   1.00
H311   H     0.88778   0.34527   0.27316   0.00000  Uiso   1.00
H312   H     0.77889   0.65473   0.22684   0.00000  Uiso   1.00
N313   N     0.98173   0.51401   0.26212   0.00000  Uiso   1.00
N314   N     0.68494   0.48599   0.23788   0.00000  Uiso   1.00
Cl315  Cl    0.68565   0.55034   0.12752   0.00000  Uiso   1.00
Cl316  Cl    0.98102   0.44965   0.37247   0.00000  Uiso   1.00
Cl317  Cl    0.75197   0.40532   0.07457   0.00000  Uiso   1.00
Cl318  Cl    0.91469   0.59468   0.42543   0.00000  Uiso   1.00
N319   N     0.67586   0.55980   0.28181   0.00000  Uiso   1.00
O320   O     0.67789   0.60478   0.26625   0.00000  Uiso   1.00
O321   O     0.67783   0.55932   0.32254   0.00000  Uiso   1.00
N322   N     0.99080   0.44020   0.21819   0.00000  Uiso   1.00
O323   O     0.98878   0.39523   0.23376   0.00000  Uiso   1.00
O324   O     0.98884   0.44067   0.17746   0.00000  Uiso   1.00
O325   O     0.12815   0.90476   0.24686   0.00000  Uiso   1.00
O326   O     0.20518   0.76191   0.25314   0.00000  Uiso   1.00
O327   O     0.22829   0.91420   0.25503   0.00000  Uiso   1.00
O328   O     0.10504   0.75247   0.24498   0.00000  Uiso   1.00
C329   C     0.18095   0.93321   0.25231   0.00000  Uiso   1.00
C330   C     0.15239   0.73345   0.24770   0.00000  Uiso   1.00
O331   O     0.08851   0.82597   0.30855   0.00000  Uiso   1.00
O332   O     0.24482   0.84070   0.19146   0.00000  Uiso   1.00
O333   O     0.18866   0.83540   0.31671   0.00000  Uiso   1.00
O334   O     0.14468   0.83126   0.18329   0.00000  Uiso   1.00
C335   C     0.12795   0.82849   0.33307   0.00000  Uiso   1.00
C336   C     0.20538   0.83817   0.16693   0.00000  Uiso   1.00
Cu337  Cu    0.10737   0.82775   0.24517   0.00000  Uiso   1.00
Cu338  Cu    0.22596   0.83892   0.25484   0.00000  Uiso   1.00
C339   C     0.10402   0.82251   0.38091   0.00000  Uiso   1.00
C340   C     0.22931   0.84415   0.11909   0.00000  Uiso   1.00
C341   C     0.02407   0.79038   0.44546   0.00000  Uiso   1.00
C342   C     0.30926   0.87629   0.05453   0.00000  Uiso   1.00
C343   C     0.04062   0.80160   0.40115   0.00000  Uiso   1.00
C344   C     0.29272   0.86506   0.09885   0.00000  Uiso   1.00
C345   C     0.14783   0.83500   0.40676   0.00000  Uiso   1.00
C346   C     0.18550   0.83167   0.09324   0.00000  Uiso   1.00
C347   C     0.13045   0.82908   0.45218   0.00000  Uiso   1.00
C348   C     0.20288   0.83758   0.04783   0.00000  Uiso   1.00
C349   C     0.06895   0.80178   0.47042   0.00000  Uiso   1.00
C350   C     0.26438   0.86489   0.02958   0.00000  Uiso   1.00
C351   C     0.17432   0.84421   0.47885   0.00000  Uiso   1.00
C352   C     0.15901   0.82246   0.02115   0.00000  Uiso   1.00
C353   C     0.10054   0.78648   0.03482   0.00000  Uiso   1.00
C354   C     0.23279   0.88019   0.46519   0.00000  Uiso   1.00
C355   C     0.05467   0.78093   0.01157   0.00000  Uiso   1.00
C356   C     0.27866   0.88574   0.48843   0.00000  Uiso   1.00
H357   H     0.00938   0.75546   0.02371   0.00000  Uiso   1.00
H358   H     0.32396   0.91120   0.47629   0.00000  Uiso   1.00
H359   H     0.13660   0.82132   0.10949   0.00000  Uiso   1.00
H360   H     0.19673   0.84535   0.39051   0.00000  Uiso   1.00
H361   H     0.30977   0.77067   0.46003   0.00000  Uiso   1.00
H362   H     0.02356   0.89600   0.03997   0.00000  Uiso   1.00
C363   C     0.18627   0.98903   0.25689   0.00000  Uiso   1.00
C364   C     0.14706   0.67763   0.24311   0.00000  Uiso   1.00
H365   H     0.22111   0.67861   0.27316   0.00000  Uiso   1.00
H366   H     0.11222   0.98806   0.22684   0.00000  Uiso   1.00
N367   N     0.31506   0.84735   0.26212   0.00000  Uiso   1.00
N368   N     0.01827   0.81932   0.23788   0.00000  Uiso   1.00
Cl369  Cl    0.01898   0.88368   0.12752   0.00000  Uiso   1.00
Cl370  Cl    0.31436   0.78298   0.37247   0.00000  Uiso   1.00
Cl371  Cl    0.08531   0.73866   0.07457   0.00000  Uiso   1.00
Cl372  Cl    0.24803   0.92801   0.42543   0.00000  Uiso   1.00
N373   N     0.00919   0.89313   0.28181   0.00000  Uiso   1.00
O374   O     0.01122   0.93811   0.26625   0.00000  Uiso   1.00
O375   O     0.01116   0.89265   0.32254   0.00000  Uiso   1.00
N376   N     0.32414   0.77353   0.21819   0.00000  Uiso   1.00
O377   O     0.32211   0.72856   0.23376   0.00000  Uiso   1.00
O378   O     0.32217   0.77401   0.17746   0.00000  Uiso   1.00
O379   O     0.46148   0.90476   0.24686   0.00000  Uiso   1.00
O380   O     0.53852   0.76191   0.25314   0.00000  Uiso   1.00
O381   O     0.56163   0.91420   0.25503   0.00000  Uiso   1.00
O382   O     0.43837   0.75247   0.24498   0.00000  Uiso   1.00
C383   C     0.51428   0.93321   0.25231   0.00000  Uiso   1.00
C384   C     0.48572   0.73345   0.24770   0.00000  Uiso   1.00
O385   O     0.42185   0.82597   0.30855   0.00000  Uiso   1.00
O386   O     0.57815   0.84070   0.19146   0.00000  Uiso   1.00
O387   O     0.52199   0.83540   0.31671   0.00000  Uiso   1.00
O388   O     0.47801   0.83126   0.18329   0.00000  Uiso   1.00
C389   C     0.46128   0.82849   0.33307   0.00000  Uiso   1.00
C390   C     0.53872   0.83817   0.16693   0.00000  Uiso   1.00
Cu391  Cu    0.44071   0.82775   0.24517   0.00000  Uiso   1.00
Cu392  Cu    0.55929   0.83892   0.25484   0.00000  Uiso   1.00
C393   C     0.43736   0.82251   0.38091   0.00000  Uiso   1.00
C394   C     0.56264   0.84415   0.11909   0.00000  Uiso   1.00
C395   C     0.35740   0.79038   0.44546   0.00000  Uiso   1.00
C396   C     0.64260   0.87629   0.05453   0.00000  Uiso   1.00
C397   C     0.37395   0.80160   0.40115   0.00000  Uiso   1.00
C398   C     0.62605   0.86506   0.09885   0.00000  Uiso   1.00
C399   C     0.48116   0.83500   0.40676   0.00000  Uiso   1.00
C400   C     0.51884   0.83167   0.09324   0.00000  Uiso   1.00
C401   C     0.46378   0.82908   0.45218   0.00000  Uiso   1.00
C402   C     0.53621   0.83758   0.04783   0.00000  Uiso   1.00
C403   C     0.40229   0.80178   0.47042   0.00000  Uiso   1.00
C404   C     0.59771   0.86489   0.02958   0.00000  Uiso   1.00
C405   C     0.50765   0.84421   0.47885   0.00000  Uiso   1.00
C406   C     0.49235   0.82246   0.02115   0.00000  Uiso   1.00
C407   C     0.43388   0.78648   0.03482   0.00000  Uiso   1.00
C408   C     0.56612   0.88019   0.46519   0.00000  Uiso   1.00
C409   C     0.38801   0.78093   0.01157   0.00000  Uiso   1.00
C410   C     0.61199   0.88574   0.48843   0.00000  Uiso   1.00
H411   H     0.34271   0.75546   0.02371   0.00000  Uiso   1.00
H412   H     0.65729   0.91120   0.47629   0.00000  Uiso   1.00
H413   H     0.46994   0.82132   0.10949   0.00000  Uiso   1.00
H414   H     0.53006   0.84535   0.39051   0.00000  Uiso   1.00
H415   H     0.64310   0.77067   0.46003   0.00000  Uiso   1.00
H416   H     0.35690   0.89600   0.03997   0.00000  Uiso   1.00
C417   C     0.51960   0.98903   0.25689   0.00000  Uiso   1.00
C418   C     0.48040   0.67763   0.24311   0.00000  Uiso   1.00
H419   H     0.55444   0.67861   0.27316   0.00000  Uiso   1.00
H420   H     0.44556   0.98806   0.22684   0.00000  Uiso   1.00
N421   N     0.64839   0.84735   0.26212   0.00000  Uiso   1.00
N422   N     0.35161   0.81932   0.23788   0.00000  Uiso   1.00
Cl423  Cl    0.35231   0.88368   0.12752   0.00000  Uiso   1.00
Cl424  Cl    0.64769   0.78298   0.37247   0.00000  Uiso   1.00
Cl425  Cl    0.41864   0.73866   0.07457   0.00000  Uiso   1.00
Cl426  Cl    0.58136   0.92801   0.42543   0.00000  Uiso   1.00
N427   N     0.34253   0.89313   0.28181   0.00000  Uiso   1.00
O428   O     0.34455   0.93811   0.26625   0.00000  Uiso   1.00
O429   O     0.34449   0.89265   0.32254   0.00000  Uiso   1.00
N430   N     0.65747   0.77353   0.21819   0.00000  Uiso   1.00
O431   O     0.65544   0.72856   0.23376   0.00000  Uiso   1.00
O432   O     0.65550   0.77401   0.17746   0.00000  Uiso   1.00
O433   O     0.79482   0.90476   0.24686   0.00000  Uiso   1.00
O434   O     0.87185   0.76191   0.25314   0.00000  Uiso   1.00
O435   O     0.89496   0.91420   0.25503   0.00000  Uiso   1.00
O436   O     0.77171   0.75247   0.24498   0.00000  Uiso   1.00
C437   C     0.84761   0.93321   0.25231   0.00000  Uiso   1.00
C438   C     0.81905   0.73345   0.24770   0.00000  Uiso   1.00
O439   O     0.75518   0.82597   0.30855   0.00000  Uiso   1.00
O440   O     0.91149   0.84070   0.19146   0.00000  Uiso   1.00
O441   O     0.85532   0.83540   0.31671   0.00000  Uiso   1.00
O442   O     0.81134   0.83126   0.18329   0.00000  Uiso   1.00
C443   C     0.79462   0.82849   0.33307   0.00000  Uiso   1.00
C444   C     0.87205   0.83817   0.16693   0.00000  Uiso   1.00
Cu445  Cu    0.77404   0.82775   0.24517   0.00000  Uiso   1.00
Cu446  Cu    0.89263   0.83892   0.25484   0.00000  Uiso   1.00
C447   C     0.77069   0.82251   0.38091   0.00000  Uiso   1.00
C448   C     0.89598   0.84415   0.11909   0.00000  Uiso   1.00
C449   C     0.69074   0.79038   0.44546   0.00000  Uiso   1.00
C450   C     0.97593   0.87629   0.05453   0.00000  Uiso   1.00
C451   C     0.70728   0.80160   0.40115   0.00000  Uiso   1.00
C452   C     0.95938   0.86506   0.09885   0.00000  Uiso   1.00
C453   C     0.81449   0.83500   0.40676   0.00000  Uiso   1.00
C454   C     0.85217   0.83167   0.09324   0.00000  Uiso   1.00
C455   C     0.79712   0.82908   0.45218   0.00000  Uiso   1.00
C456   C     0.86955   0.83758   0.04783   0.00000  Uiso   1.00
C457   C     0.73562   0.80178   0.47042   0.00000  Uiso   1.00
C458   C     0.93105   0.86489   0.02958   0.00000  Uiso   1.00
C459   C     0.84098   0.84421   0.47885   0.00000  Uiso   1.00
C460   C     0.82568   0.82246   0.02115   0.00000  Uiso   1.00
C461   C     0.76721   0.78648   0.03482   0.00000  Uiso   1.00
C462   C     0.89946   0.88019   0.46519   0.00000  Uiso   1.00
C463   C     0.72134   0.78093   0.01157   0.00000  Uiso   1.00
C464   C     0.94533   0.88574   0.48843   0.00000  Uiso   1.00
H465   H     0.67604   0.75546   0.02371   0.00000  Uiso   1.00
H466   H     0.99062   0.91120   0.47629   0.00000  Uiso   1.00
H467   H     0.80327   0.82132   0.10949   0.00000  Uiso   1.00
H468   H     0.86340   0.84535   0.39051   0.00000  Uiso   1.00
H469   H     0.97644   0.77067   0.46003   0.00000  Uiso   1.00
H470   H     0.69023   0.89600   0.03997   0.00000  Uiso   1.00
C471   C     0.85294   0.98903   0.25689   0.00000  Uiso   1.00
C472   C     0.81373   0.67763   0.24311   0.00000  Uiso   1.00
H473   H     0.88778   0.67861   0.27316   0.00000  Uiso   1.00
H474   H     0.77889   0.98806   0.22684   0.00000  Uiso   1.00
N475   N     0.98173   0.84735   0.26212   0.00000  Uiso   1.00
N476   N     0.68494   0.81932   0.23788   0.00000  Uiso   1.00
Cl477  Cl    0.68565   0.88368   0.12752   0.00000  Uiso   1.00
Cl478  Cl    0.98102   0.78298   0.37247   0.00000  Uiso   1.00
Cl479  Cl    0.75197   0.73866   0.07457   0.00000  Uiso   1.00
Cl480  Cl    0.91469   0.92801   0.42543   0.00000  Uiso   1.00
N481   N     0.67586   0.89313   0.28181   0.00000  Uiso   1.00
O482   O     0.67789   0.93811   0.26625   0.00000  Uiso   1.00
O483   O     0.67783   0.89265   0.32254   0.00000  Uiso   1.00
N484   N     0.99080   0.77353   0.21819   0.00000  Uiso   1.00
O485   O     0.98878   0.72856   0.23376   0.00000  Uiso   1.00
O486   O     0.98884   0.77401   0.17746   0.00000  Uiso   1.00
O487   O     0.12815   0.23809   0.74686   0.00000  Uiso   1.00
O488   O     0.20518   0.09524   0.75314   0.00000  Uiso   1.00
O489   O     0.22829   0.24753   0.75503   0.00000  Uiso   1.00
O490   O     0.10504   0.08580   0.74498   0.00000  Uiso   1.00
C491   C     0.18095   0.26655   0.75231   0.00000  Uiso   1.00
C492   C     0.15239   0.06679   0.74770   0.00000  Uiso   1.00
O493   O     0.08851   0.15930   0.80855   0.00000  Uiso   1.00
O494   O     0.24482   0.17403   0.69146   0.00000  Uiso   1.00
O495   O     0.18866   0.16874   0.81671   0.00000  Uiso   1.00
O496   O     0.14468   0.16460   0.68329   0.00000  Uiso   1.00
C497   C     0.12795   0.16182   0.83307   0.00000  Uiso   1.00
C498   C     0.20538   0.17151   0.66693   0.00000  Uiso   1.00
Cu499  Cu    0.10737   0.16108   0.74517   0.00000  Uiso   1.00
Cu500  Cu    0.22596   0.17225   0.75484   0.00000  Uiso   1.00
C501   C     0.10402   0.15584   0.88091   0.00000  Uiso   1.00
C502   C     0.22931   0.17749   0.61909   0.00000  Uiso   1.00
C503   C     0.02407   0.12371   0.94546   0.00000  Uiso   1.00
C504   C     0.30926   0.20962   0.55453   0.00000  Uiso   1.00
C505   C     0.04062   0.13493   0.90115   0.00000  Uiso   1.00
C506   C     0.29272   0.19840   0.59885   0.00000  Uiso   1.00
C507   C     0.14783   0.16833   0.90676   0.00000  Uiso   1.00
C508   C     0.18550   0.16500   0.59324   0.00000  Uiso   1.00
C509   C     0.13045   0.16242   0.95218   0.00000  Uiso   1.00
C510   C     0.20288   0.17092   0.54783   0.00000  Uiso   1.00
C511   C     0.06895   0.13511   0.97042   0.00000  Uiso   1.00
C512   C     0.26438   0.19822   0.52958   0.00000  Uiso   1.00
C513   C     0.17432   0.17754   0.97885   0.00000  Uiso   1.00
C514   C     0.15901   0.15579   0.52115   0.00000  Uiso   1.00
C515   C     0.10054   0.11981   0.53482   0.00000  Uiso   1.00
C516   C     0.23279   0.21352   0.96519   0.00000  Uiso   1.00
C517   C     0.05467   0.11426   0.51157   0.00000  Uiso   1.00
C518   C     0.27866   0.21907   0.98843   0.00000  Uiso   1.00
H519   H     0.00938   0.08880   0.52371   0.00000  Uiso   1.00
H520   H     0.32396   0.24453   0.97629   0.00000  Uiso   1.00
H521   H     0.13660   0.15465   0.60949   0.00000  Uiso   1.00
H522   H     0.19673   0.17868   0.89051   0.00000  Uiso   1.00
H523   H     0.30977   0.10400   0.96003   0.00000  Uiso   1.00
H524   H     0.02356   0.22933   0.53997   0.00000  Uiso   1.00
C525   C     0.18627   0.32237   0.75689   0.00000  Uiso   1.00
C526   C     0.14706   0.01097   0.74311   0.00000  Uiso   1.00
H527   H     0.22111   0.01194   0.77316   0.00000  Uiso   1.00
H528   H     0.11222   0.32139   0.72684   0.00000  Uiso   1.00
N529   N     0.31506   0.18068   0.76212   0.00000  Uiso   1.00
N530   N     0.01827   0.15265   0.73788   0.00000  Uiso   1.00
Cl531  Cl    0.01898   0.21701   0.62752   0.00000  Uiso   1.00
Cl532  Cl    0.31436   0.11632   0.87247   0.00000  Uiso   1.00
Cl533  Cl    0.08531   0.07199   0.57457   0.00000  Uiso   1.00
Cl534  Cl    0.24803   0.26134   0.92543   0.00000  Uiso   1.00
N535   N     0.00919   0.22646   0.78181   0.00000  Uiso   1.00
O536   O     0.01122   0.27144   0.76625   0.00000  Uiso   1.00
O537   O     0.01116   0.22599   0.82254   0.00000  Uiso   1.00
N538   N     0.32414   0.10687   0.71819   0.00000  Uiso   1.00
O539   O     0.32211   0.06189   0.73376   0.00000  Uiso   1.00
O540   O     0.32217   0.10734   0.67746   0.00000  Uiso   1.00
O541   O     0.46148   0.23809   0.74686   0.00000  Uiso   1.00
O542   O     0.53852   0.09524   0.75314   0.00000  Uiso   1.00
O543   O     0.56163   0.24753   0.75503   0.00000  Uiso   1.00
O544   O     0.43837   0.08580   0.74498   0.00000  Uiso   1.00
C545   C     0.51428   0.26655   0.75231   0.00000  Uiso   1.00
C546   C     0.48572   0.06679   0.74770   0.00000  Uiso   1.00
O547   O     0.42185   0.15930   0.80855   0.00000  Uiso   1.00
O548   O     0.57815   0.17403   0.69146   0.00000  Uiso   1.00
O549   O     0.52199   0.16874   0.81671   0.00000  Uiso   1.00
O550   O     0.47801   0.16460   0.68329   0.00000  Uiso   1.00
C551   C     0.46128   0.16182   0.83307   0.00000  Uiso   1.00
C552   C     0.53872   0.17151   0.66693   0.00000  Uiso   1.00
Cu553  Cu    0.44071   0.16108   0.74517   0.00000  Uiso   1.00
Cu554  Cu    0.55929   0.17225   0.75484   0.00000  Uiso   1.00
C555   C     0.43736   0.15584   0.88091   0.00000  Uiso   1.00
C556   C     0.56264   0.17749   0.61909   0.00000  Uiso   1.00
C557   C     0.35740   0.12371   0.94546   0.00000  Uiso   1.00
C558   C     0.64260   0.20962   0.55453   0.00000  Uiso   1.00
C559   C     0.37395   0.13493   0.90115   0.00000  Uiso   1.00
C560   C     0.62605   0.19840   0.59885   0.00000  Uiso   1.00
C561   C     0.48116   0.16833   0.90676   0.00000  Uiso   1.00
C562   C     0.51884   0.16500   0.59324   0.00000  Uiso   1.00
C563   C     0.46378   0.16242   0.95218   0.00000  Uiso   1.00
C564   C     0.53621   0.17092   0.54783   0.00000  Uiso   1.00
C565   C     0.40229   0.13511   0.97042   0.00000  Uiso   1.00
C566   C     0.59771   0.19822   0.52958   0.00000  Uiso   1.00
C567   C     0.50765   0.17754   0.97885   0.00000  Uiso   1.00
C568   C     0.49235   0.15579   0.52115   0.00000  Uiso   1.00
C569   C     0.43388   0.11981   0.53482   0.00000  Uiso   1.00
C570   C     0.56612   0.21352   0.96519   0.00000  Uiso   1.00
C571   C     0.38801   0.11426   0.51157   0.00000  Uiso   1.00
C572   C     0.61199   0.21907   0.98843   0.00000  Uiso   1.00
H573   H     0.34271   0.08880   0.52371   0.00000  Uiso   1.00
H574   H     0.65729   0.24453   0.97629   0.00000  Uiso   1.00
H575   H     0.46994   0.15465   0.60949   0.00000  Uiso   1.00
H576   H     0.53006   0.17868   0.89051   0.00000  Uiso   1.00
H577   H     0.64310   0.10400   0.96003   0.00000  Uiso   1.00
H578   H     0.35690   0.22933   0.53997   0.00000  Uiso   1.00
C579   C     0.51960   0.32237   0.75689   0.00000  Uiso   1.00
C580   C     0.48040   0.01097   0.74311   0.00000  Uiso   1.00
H581   H     0.55444   0.01194   0.77316   0.00000  Uiso   1.00
H582   H     0.44556   0.32139   0.72684   0.00000  Uiso   1.00
N583   N     0.64839   0.18068   0.76212   0.00000  Uiso   1.00
N584   N     0.35161   0.15265   0.73788   0.00000  Uiso   1.00
Cl585  Cl    0.35231   0.21701   0.62752   0.00000  Uiso   1.00
Cl586  Cl    0.64769   0.11632   0.87247   0.00000  Uiso   1.00
Cl587  Cl    0.41864   0.07199   0.57457   0.00000  Uiso   1.00
Cl588  Cl    0.58136   0.26134   0.92543   0.00000  Uiso   1.00
N589   N     0.34253   0.22646   0.78181   0.00000  Uiso   1.00
O590   O     0.34455   0.27144   0.76625   0.00000  Uiso   1.00
O591   O     0.34449   0.22599   0.82254   0.00000  Uiso   1.00
N592   N     0.65747   0.10687   0.71819   0.00000  Uiso   1.00
O593   O     0.65544   0.06189   0.73376   0.00000  Uiso   1.00
O594   O     0.65550   0.10734   0.67746   0.00000  Uiso   1.00
O595   O     0.79482   0.23809   0.74686   0.00000  Uiso   1.00
O596   O     0.87185   0.09524   0.75314   0.00000  Uiso   1.00
O597   O     0.89496   0.24753   0.75503   0.00000  Uiso   1.00
O598   O     0.77171   0.08580   0.74498   0.00000  Uiso   1.00
C599   C     0.84761   0.26655   0.75231   0.00000  Uiso   1.00
C600   C     0.81905   0.06679   0.74770   0.00000  Uiso   1.00
O601   O     0.75518   0.15930   0.80855   0.00000  Uiso   1.00
O602   O     0.91149   0.17403   0.69146   0.00000  Uiso   1.00
O603   O     0.85532   0.16874   0.81671   0.00000  Uiso   1.00
O604   O     0.81134   0.16460   0.68329   0.00000  Uiso   1.00
C605   C     0.79462   0.16182   0.83307   0.00000  Uiso   1.00
C606   C     0.87205   0.17151   0.66693   0.00000  Uiso   1.00
Cu607  Cu    0.77404   0.16108   0.74517   0.00000  Uiso   1.00
Cu608  Cu    0.89263   0.17225   0.75484   0.00000  Uiso   1.00
C609   C     0.77069   0.15584   0.88091   0.00000  Uiso   1.00
C610   C     0.89598   0.17749   0.61909   0.00000  Uiso   1.00
C611   C     0.69074   0.12371   0.94546   0.00000  Uiso   1.00
C612   C     0.97593   0.20962   0.55453   0.00000  Uiso   1.00
C613   C     0.70728   0.13493   0.90115   0.00000  Uiso   1.00
C614   C     0.95938   0.19840   0.59885   0.00000  Uiso   1.00
C615   C     0.81449   0.16833   0.90676   0.00000  Uiso   1.00
C616   C     0.85217   0.16500   0.59324   0.00000  Uiso   1.00
C617   C     0.79712   0.16242   0.95218   0.00000  Uiso   1.00
C618   C     0.86955   0.17092   0.54783   0.00000  Uiso   1.00
C619   C     0.73562   0.13511   0.97042   0.00000  Uiso   1.00
C620   C     0.93105   0.19822   0.52958   0.00000  Uiso   1.00
C621   C     0.84098   0.17754   0.97885   0.00000  Uiso   1.00
C622   C     0.82568   0.15579   0.52115   0.00000  Uiso   1.00
C623   C     0.76721   0.11981   0.53482   0.00000  Uiso   1.00
C624   C     0.89946   0.21352   0.96519   0.00000  Uiso   1.00
C625   C     0.72134   0.11426   0.51157   0.00000  Uiso   1.00
C626   C     0.94533   0.21907   0.98843   0.00000  Uiso   1.00
H627   H     0.67604   0.08880   0.52371   0.00000  Uiso   1.00
H628   H     0.99062   0.24453   0.97629   0.00000  Uiso   1.00
H629   H     0.80327   0.15465   0.60949   0.00000  Uiso   1.00
H630   H     0.86340   0.17868   0.89051   0.00000  Uiso   1.00
H631   H     0.97644   0.10400   0.96003   0.00000  Uiso   1.00
H632   H     0.69023   0.22933   0.53997   0.00000  Uiso   1.00
C633   C     0.85294   0.32237   0.75689   0.00000  Uiso   1.00
C634   C     0.81373   0.01097   0.74311   0.00000  Uiso   1.00
H635   H     0.88778   0.01194   0.77316   0.00000  Uiso   1.00
H636   H     0.77889   0.32139   0.72684   0.00000  Uiso   1.00
N637   N     0.98173   0.18068   0.76212   0.00000  Uiso   1.00
N638   N     0.68494   0.15265   0.73788   0.00000  Uiso   1.00
Cl639  Cl    0.68565   0.21701   0.62752   0.00000  Uiso   1.00
Cl640  Cl    0.98102   0.11632   0.87247   0.00000  Uiso   1.00
Cl641  Cl    0.75197   0.07199   0.57457   0.00000  Uiso   1.00
Cl642  Cl    0.91469   0.26134   0.92543   0.00000  Uiso   1.00
N643   N     0.67586   0.22646   0.78181   0.00000  Uiso   1.00
O644   O     0.67789   0.27144   0.76625   0.00000  Uiso   1.00
O645   O     0.67783   0.22599   0.82254   0.00000  Uiso   1.00
N646   N     0.99080   0.10687   0.71819   0.00000  Uiso   1.00
O647   O     0.98878   0.06189   0.73376   0.00000  Uiso   1.00
O648   O     0.98884   0.10734   0.67746   0.00000  Uiso   1.00
O649   O     0.12815   0.57142   0.74686   0.00000  Uiso   1.00
O650   O     0.20518   0.42858   0.75314   0.00000  Uiso   1.00
O651   O     0.22829   0.58086   0.75503   0.00000  Uiso   1.00
O652   O     0.10504   0.41914   0.74498   0.00000  Uiso   1.00
C653   C     0.18095   0.59988   0.75231   0.00000  Uiso   1.00
C654   C     0.15239   0.40012   0.74770   0.00000  Uiso   1.00
O655   O     0.08851   0.49263   0.80855   0.00000  Uiso   1.00
O656   O     0.24482   0.50737   0.69146   0.00000  Uiso   1.00
O657   O     0.18866   0.50207   0.81671   0.00000  Uiso   1.00
O658   O     0.14468   0.49793   0.68329   0.00000  Uiso   1.00
C659   C     0.12795   0.49516   0.83307   0.00000  Uiso   1.00
C660   C     0.20538   0.50484   0.66693   0.00000  Uiso   1.00
Cu661  Cu    0.10737   0.49441   0.74517   0.00000  Uiso   1.00
Cu662  Cu    0.22596   0.50559   0.75484   0.00000  Uiso   1.00
C663   C     0.10402   0.48918   0.88091   0.00000  Uiso   1.00
C664   C     0.22931   0.51082   0.61909   0.00000  Uiso   1.00
C665   C     0.02407   0.45704   0.94546   0.00000  Uiso   1.00
C666   C     0.30926   0.54295   0.55453   0.00000  Uiso   1.00
C667   C     0.04062   0.46826   0.90115   0.00000  Uiso   1.00
C668   C     0.29272   0.53173   0.59885   0.00000  Uiso   1.00
C669   C     0.14783   0.50166   0.90676   0.00000  Uiso   1.00
C670   C     0.18550   0.49834   0.59324   0.00000  Uiso   1.00
C671   C     0.13045   0.49575   0.95218   0.00000  Uiso   1.00
C672   C     0.20288   0.50425   0.54783   0.00000  Uiso   1.00
C673   C     0.06895   0.46845   0.97042   0.00000  Uiso   1.00
C674   C     0.26438   0.53155   0.52958   0.00000  Uiso   1.00
C675   C     0.17432   0.51087   0.97885   0.00000  Uiso   1.00
C676   C     0.15901   0.48913   0.52115   0.00000  Uiso   1.00
C677   C     0.10054   0.45314   0.53482   0.00000  Uiso   1.00
C678   C     0.23279   0.54685   0.96519   0.00000  Uiso   1.00
C679   C     0.05467   0.44759   0.51157   0.00000  Uiso   1.00
C680   C     0.27866   0.55241   0.98843   0.00000  Uiso   1.00
H681   H     0.00938   0.42213   0.52371   0.00000  Uiso   1.00
H682   H     0.32396   0.57787   0.97629   0.00000  Uiso   1.00
H683   H     0.13660   0.48798   0.60949   0.00000  Uiso   1.00
H684   H     0.19673   0.51202   0.89051   0.00000  Uiso   1.00
H685   H     0.30977   0.43733   0.96003   0.00000  Uiso   1.00
H686   H     0.02356   0.56266   0.53997   0.00000  Uiso   1.00
C687   C     0.18627   0.65570   0.75689   0.00000  Uiso   1.00
C688   C     0.14706   0.34430   0.74311   0.00000  Uiso   1.00
H689   H     0.22111   0.34527   0.77316   0.00000  Uiso   1.00
H690   H     0.11222   0.65473   0.72684   0.00000  Uiso   1.00
N691   N     0.31506   0.51401   0.76212   0.00000  Uiso   1.00
N692   N     0.01827   0.48599   0.73788   0.00000  Uiso   1.00
Cl693  Cl    0.01898   0.55034   0.62752   0.00000  Uiso   1.00
Cl694  Cl    0.31436   0.44965   0.87247   0.00000  Uiso   1.00
Cl695  Cl    0.08531   0.40532   0.57457   0.00000  Uiso   1.00
Cl696  Cl    0.24803   0.59468   0.92543   0.00000  Uiso   1.00
N697   N     0.00919   0.55980   0.78181   0.00000  Uiso   1.00
O698   O     0.01122   0.60478   0.76625   0.00000  Uiso   1.00
O699   O     0.01116   0.55932   0.82254   0.00000  Uiso   1.00
N700   N     0.32414   0.44020   0.71819   0.00000  Uiso   1.00
O701   O     0.32211   0.39523   0.73376   0.00000  Uiso   1.00
O702   O     0.32217   0.44067   0.67746   0.00000  Uiso   1.00
O703   O     0.46148   0.57142   0.74686   0.00000  Uiso   1.00
O704   O     0.53852   0.42858   0.75314   0.00000  Uiso   1.00
O705   O     0.56163   0.58086   0.75503   0.00000  Uiso   1.00
O706   O     0.43837   0.41914   0.74498   0.00000  Uiso   1.00
C707   C     0.51428   0.59988   0.75231   0.00000  Uiso   1.00
C708   C     0.48572   0.40012   0.74770   0.00000  Uiso   1.00
O709   O     0.42185   0.49263   0.80855   0.00000  Uiso   1.00
O710   O     0.57815   0.50737   0.69146   0.00000  Uiso   1.00
O711   O     0.52199   0.50207   0.81671   0.00000  Uiso   1.00
O712   O     0.47801   0.49793   0.68329   0.00000  Uiso   1.00
C713   C     0.46128   0.49516   0.83307   0.00000  Uiso   1.00
C714   C     0.53872   0.50484   0.66693   0.00000  Uiso   1.00
Cu715  Cu    0.44071   0.49441   0.74517   0.00000  Uiso   1.00
Cu716  Cu    0.55929   0.50559   0.75484   0.00000  Uiso   1.00
C717   C     0.43736   0.48918   0.88091   0.00000  Uiso   1.00
C718   C     0.56264   0.51082   0.61909   0.00000  Uiso   1.00
C719   C     0.35740   0.45704   0.94546   0.00000  Uiso   1.00
C720   C     0.64260   0.54295   0.55453   0.00000  Uiso   1.00
C721   C     0.37395   0.46826   0.90115   0.00000  Uiso   1.00
C722   C     0.62605   0.53173   0.59885   0.00000  Uiso   1.00
C723   C     0.48116   0.50166   0.90676   0.00000  Uiso   1.00
C724   C     0.51884   0.49834   0.59324   0.00000  Uiso   1.00
C725   C     0.46378   0.49575   0.95218   0.00000  Uiso   1.00
C726   C     0.53621   0.50425   0.54783   0.00000  Uiso   1.00
C727   C     0.40229   0.46845   0.97042   0.00000  Uiso   1.00
C728   C     0.59771   0.53155   0.52958   0.00000  Uiso   1.00
C729   C     0.50765   0.51087   0.97885   0.00000  Uiso   1.00
C730   C     0.49235   0.48913   0.52115   0.00000  Uiso   1.00
C731   C     0.43388   0.45314   0.53482   0.00000  Uiso   1.00
C732   C     0.56612   0.54685   0.96519   0.00000  Uiso   1.00
C733   C     0.38801   0.44759   0.51157   0.00000  Uiso   1.00
C734   C     0.61199   0.55241   0.98843   0.00000  Uiso   1.00
H735   H     0.34271   0.42213   0.52371   0.00000  Uiso   1.00
H736   H     0.65729   0.57787   0.97629   0.00000  Uiso   1.00
H737   H     0.46994   0.48798   0.60949   0.00000  Uiso   1.00
H738   H     0.53006   0.51202   0.89051   0.00000  Uiso   1.00
H739   H     0.64310   0.43733   0.96003   0.00000  Uiso   1.00
H740   H     0.35690   0.56266   0.53997   0.00000  Uiso   1.00
C741   C     0.51960   0.65570   0.75689   0.00000  Uiso   1.00
C742   C     0.48040   0.34430   0.74311   0.00000  Uiso   1.00
H743   H     0.55444   0.34527   0.77316   0.00000  Uiso   1.00
H744   H     0.44556   0.65473   0.72684   0.00000  Uiso   1.00
N745   N     0.64839   0.51401   0.76212   0.00000  Uiso   1.00
N746   N     0.35161   0.48599   0.73788   0.00000  Uiso   1.00
Cl747  Cl    0.35231   0.55034   0.62752   0.00000  Uiso   1.00
Cl748  Cl    0.64769   0.44965   0.87247   0.00000  Uiso   1.00
Cl749  Cl    0.41864   0.40532   0.57457   0.00000  Uiso   1.00
Cl750  Cl    0.58136   0.59468   0.92543   0.00000  Uiso   1.00
N751   N     0.34253   0.55980   0.78181   0.00000  Uiso   1.00
O752   O     0.34455   0.60478   0.76625   0.00000  Uiso   1.00
O753   O     0.34449   0.55932   0.82254   0.00000  Uiso   1.00
N754   N     0.65747   0.44020   0.71819   0.00000  Uiso   1.00
O755   O     0.65544   0.39523   0.73376   0.00000  Uiso   1.00
O756   O     0.65550   0.44067   0.67746   0.00000  Uiso   1.00
O757   O     0.79482   0.57142   0.74686   0.00000  Uiso   1.00
O758   O     0.87185   0.42858   0.75314   0.00000  Uiso   1.00
O759   O     0.89496   0.58086   0.75503   0.00000  Uiso   1.00
O760   O     0.77171   0.41914   0.74498   0.00000  Uiso   1.00
C761   C     0.84761   0.59988   0.75231   0.00000  Uiso   1.00
C762   C     0.81905   0.40012   0.74770   0.00000  Uiso   1.00
O763   O     0.75518   0.49263   0.80855   0.00000  Uiso   1.00
O764   O     0.91149   0.50737   0.69146   0.00000  Uiso   1.00
O765   O     0.85532   0.50207   0.81671   0.00000  Uiso   1.00
O766   O     0.81134   0.49793   0.68329   0.00000  Uiso   1.00
C767   C     0.79462   0.49516   0.83307   0.00000  Uiso   1.00
C768   C     0.87205   0.50484   0.66693   0.00000  Uiso   1.00
Cu769  Cu    0.77404   0.49441   0.74517   0.00000  Uiso   1.00
Cu770  Cu    0.89263   0.50559   0.75484   0.00000  Uiso   1.00
C771   C     0.77069   0.48918   0.88091   0.00000  Uiso   1.00
C772   C     0.89598   0.51082   0.61909   0.00000  Uiso   1.00
C773   C     0.69074   0.45704   0.94546   0.00000  Uiso   1.00
C774   C     0.97593   0.54295   0.55453   0.00000  Uiso   1.00
C775   C     0.70728   0.46826   0.90115   0.00000  Uiso   1.00
C776   C     0.95938   0.53173   0.59885   0.00000  Uiso   1.00
C777   C     0.81449   0.50166   0.90676   0.00000  Uiso   1.00
C778   C     0.85217   0.49834   0.59324   0.00000  Uiso   1.00
C779   C     0.79712   0.49575   0.95218   0.00000  Uiso   1.00
C780   C     0.86955   0.50425   0.54783   0.00000  Uiso   1.00
C781   C     0.73562   0.46845   0.97042   0.00000  Uiso   1.00
C782   C     0.93105   0.53155   0.52958   0.00000  Uiso   1.00
C783   C     0.84098   0.51087   0.97885   0.00000  Uiso   1.00
C784   C     0.82568   0.48913   0.52115   0.00000  Uiso   1.00
C785   C     0.76721   0.45314   0.53482   0.00000  Uiso   1.00
C786   C     0.89946   0.54685   0.96519   0.00000  Uiso   1.00
C787   C     0.72134   0.44759   0.51157   0.00000  Uiso   1.00
C788   C     0.94533   0.55241   0.98843   0.00000  Uiso   1.00
H789   H     0.67604   0.42213   0.52371   0.00000  Uiso   1.00
H790   H     0.99062   0.57787   0.97629   0.00000  Uiso   1.00
H791   H     0.80327   0.48798   0.60949   0.00000  Uiso   1.00
H792   H     0.86340   0.51202   0.89051   0.00000  Uiso   1.00
H793   H     0.97644   0.43733   0.96003   0.00000  Uiso   1.00
H794   H     0.69023   0.56266   0.53997   0.00000  Uiso   1.00
C795   C     0.85294   0.65570   0.75689   0.00000  Uiso   1.00
C796   C     0.81373   0.34430   0.74311   0.00000  Uiso   1.00
H797   H     0.88778   0.34527   0.77316   0.00000  Uiso   1.00
H798   H     0.77889   0.65473   0.72684   0.00000  Uiso   1.00
N799   N     0.98173   0.51401   0.76212   0.00000  Uiso   1.00
N800   N     0.68494   0.48599   0.73788   0.00000  Uiso   1.00
Cl801  Cl    0.68565   0.55034   0.62752   0.00000  Uiso   1.00
Cl802  Cl    0.98102   0.44965   0.87247   0.00000  Uiso   1.00
Cl803  Cl    0.75197   0.40532   0.57457   0.00000  Uiso   1.00
Cl804  Cl    0.91469   0.59468   0.92543   0.00000  Uiso   1.00
N805   N     0.67586   0.55980   0.78181   0.00000  Uiso   1.00
O806   O     0.67789   0.60478   0.76625   0.00000  Uiso   1.00
O807   O     0.67783   0.55932   0.82254   0.00000  Uiso   1.00
N808   N     0.99080   0.44020   0.71819   0.00000  Uiso   1.00
O809   O     0.98878   0.39523   0.73376   0.00000  Uiso   1.00
O810   O     0.98884   0.44067   0.67746   0.00000  Uiso   1.00
O811   O     0.12815   0.90476   0.74686   0.00000  Uiso   1.00
O812   O     0.20518   0.76191   0.75314   0.00000  Uiso   1.00
O813   O     0.22829   0.91420   0.75503   0.00000  Uiso   1.00
O814   O     0.10504   0.75247   0.74498   0.00000  Uiso   1.00
C815   C     0.18095   0.93321   0.75231   0.00000  Uiso   1.00
C816   C     0.15239   0.73345   0.74770   0.00000  Uiso   1.00
O817   O     0.08851   0.82597   0.80855   0.00000  Uiso   1.00
O818   O     0.24482   0.84070   0.69146   0.00000  Uiso   1.00
O819   O     0.18866   0.83540   0.81671   0.00000  Uiso   1.00
O820   O     0.14468   0.83126   0.68329   0.00000  Uiso   1.00
C821   C     0.12795   0.82849   0.83307   0.00000  Uiso   1.00
C822   C     0.20538   0.83817   0.66693   0.00000  Uiso   1.00
Cu823  Cu    0.10737   0.82775   0.74517   0.00000  Uiso   1.00
Cu824  Cu    0.22596   0.83892   0.75484   0.00000  Uiso   1.00
C825   C     0.10402   0.82251   0.88091   0.00000  Uiso   1.00
C826   C     0.22931   0.84415   0.61909   0.00000  Uiso   1.00
C827   C     0.02407   0.79038   0.94546   0.00000  Uiso   1.00
C828   C     0.30926   0.87629   0.55453   0.00000  Uiso   1.00
C829   C     0.04062   0.80160   0.90115   0.00000  Uiso   1.00
C830   C     0.29272   0.86506   0.59885   0.00000  Uiso   1.00
C831   C     0.14783   0.83500   0.90676   0.00000  Uiso   1.00
C832   C     0.18550   0.83167   0.59324   0.00000  Uiso   1.00
C833   C     0.13045   0.82908   0.95218   0.00000  Uiso   1.00
C834   C     0.20288   0.83758   0.54783   0.00000  Uiso   1.00
C835   C     0.06895   0.80178   0.97042   0.00000  Uiso   1.00
C836   C     0.26438   0.86489   0.52958   0.00000  Uiso   1.00
C837   C     0.17432   0.84421   0.97885   0.00000  Uiso   1.00
C838   C     0.15901   0.82246   0.52115   0.00000  Uiso   1.00
C839   C     0.10054   0.78648   0.53482   0.00000  Uiso   1.00
C840   C     0.23279   0.88019   0.96519   0.00000  Uiso   1.00
C841   C     0.05467   0.78093   0.51157   0.00000  Uiso   1.00
C842   C     0.27866   0.88574   0.98843   0.00000  Uiso   1.00
H843   H     0.00938   0.75546   0.52371   0.00000  Uiso   1.00
H844   H     0.32396   0.91120   0.97629   0.00000  Uiso   1.00
H845   H     0.13660   0.82132   0.60949   0.00000  Uiso   1.00
H846   H     0.19673   0.84535   0.89051   0.00000  Uiso   1.00
H847   H     0.30977   0.77067   0.96003   0.00000  Uiso   1.00
H848   H     0.02356   0.89600   0.53997   0.00000  Uiso   1.00
C849   C     0.18627   0.98903   0.75689   0.00000  Uiso   1.00
C850   C     0.14706   0.67763   0.74311   0.00000  Uiso   1.00
H851   H     0.22111   0.67861   0.77316   0.00000  Uiso   1.00
H852   H     0.11222   0.98806   0.72684   0.00000  Uiso   1.00
N853   N     0.31506   0.84735   0.76212   0.00000  Uiso   1.00
N854   N     0.01827   0.81932   0.73788   0.00000  Uiso   1.00
Cl855  Cl    0.01898   0.88368   0.62752   0.00000  Uiso   1.00
Cl856  Cl    0.31436   0.78298   0.87247   0.00000  Uiso   1.00
Cl857  Cl    0.08531   0.73866   0.57457   0.00000  Uiso   1.00
Cl858  Cl    0.24803   0.92801   0.92543   0.00000  Uiso   1.00
N859   N     0.00919   0.89313   0.78181   0.00000  Uiso   1.00
O860   O     0.01122   0.93811   0.76625   0.00000  Uiso   1.00
O861   O     0.01116   0.89265   0.82254   0.00000  Uiso   1.00
N862   N     0.32414   0.77353   0.71819   0.00000  Uiso   1.00
O863   O     0.32211   0.72856   0.73376   0.00000  Uiso   1.00
O864   O     0.32217   0.77401   0.67746   0.00000  Uiso   1.00
O865   O     0.46148   0.90476   0.74686   0.00000  Uiso   1.00
O866   O     0.53852   0.76191   0.75314   0.00000  Uiso   1.00
O867   O     0.56163   0.91420   0.75503   0.00000  Uiso   1.00
O868   O     0.43837   0.75247   0.74498   0.00000  Uiso   1.00
C869   C     0.51428   0.93321   0.75231   0.00000  Uiso   1.00
C870   C     0.48572   0.73345   0.74770   0.00000  Uiso   1.00
O871   O     0.42185   0.82597   0.80855   0.00000  Uiso   1.00
O872   O     0.57815   0.84070   0.69146   0.00000  Uiso   1.00
O873   O     0.52199   0.83540   0.81671   0.00000  Uiso   1.00
O874   O     0.47801   0.83126   0.68329   0.00000  Uiso   1.00
C875   C     0.46128   0.82849   0.83307   0.00000  Uiso   1.00
C876   C     0.53872   0.83817   0.66693   0.00000  Uiso   1.00
Cu877  Cu    0.44071   0.82775   0.74517   0.00000  Uiso   1.00
Cu878  Cu    0.55929   0.83892   0.75484   0.00000  Uiso   1.00
C879   C     0.43736   0.82251   0.88091   0.00000  Uiso   1.00
C880   C     0.56264   0.84415   0.61909   0.00000  Uiso   1.00
C881   C     0.35740   0.79038   0.94546   0.00000  Uiso   1.00
C882   C     0.64260   0.87629   0.55453   0.00000  Uiso   1.00
C883   C     0.37395   0.80160   0.90115   0.00000  Uiso   1.00
C884   C     0.62605   0.86506   0.59885   0.00000  Uiso   1.00
C885   C     0.48116   0.83500   0.90676   0.00000  Uiso   1.00
C886   C     0.51884   0.83167   0.59324   0.00000  Uiso   1.00
C887   C     0.46378   0.82908   0.95218   0.00000  Uiso   1.00
C888   C     0.53621   0.83758   0.54783   0.00000  Uiso   1.00
C889   C     0.40229   0.80178   0.97042   0.00000  Uiso   1.00
C890   C     0.59771   0.86489   0.52958   0.00000  Uiso   1.00
C891   C     0.50765   0.84421   0.97885   0.00000  Uiso   1.00
C892   C     0.49235   0.82246   0.52115   0.00000  Uiso   1.00
C893   C     0.43388   0.78648   0.53482   0.00000  Uiso   1.00
C894   C     0.56612   0.88019   0.96519   0.00000  Uiso   1.00
C895   C     0.38801   0.78093   0.51157   0.00000  Uiso   1.00
C896   C     0.61199   0.88574   0.98843   0.00000  Uiso   1.00
H897   H     0.34271   0.75546   0.52371   0.00000  Uiso   1.00
H898   H     0.65729   0.91120   0.97629   0.00000  Uiso   1.00
H899   H     0.46994   0.82132   0.60949   0.00000  Uiso   1.00
H900   H     0.53006   0.84535   0.89051   0.00000  Uiso   1.00
H901   H     0.64310   0.77067   0.96003   0.00000  Uiso   1.00
H902   H     0.35690   0.89600   0.53997   0.00000  Uiso   1.00
C903   C     0.51960   0.98903   0.75689   0.00000  Uiso   1.00
C904   C     0.48040   0.67763   0.74311   0.00000  Uiso   1.00
H905   H     0.55444   0.67861   0.77316   0.00000  Uiso   1.00
H906   H     0.44556   0.98806   0.72684   0.00000  Uiso   1.00
N907   N     0.64839   0.84735   0.76212   0.00000  Uiso   1.00
N908   N     0.35161   0.81932   0.73788   0.00000  Uiso   1.00
Cl909  Cl    0.35231   0.88368   0.62752   0.00000  Uiso   1.00
Cl910  Cl    0.64769   0.78298   0.87247   0.00000  Uiso   1.00
Cl911  Cl    0.41864   0.73866   0.57457   0.00000  Uiso   1.00
Cl912  Cl    0.58136   0.92801   0.92543   0.00000  Uiso   1.00
N913   N     0.34253   0.89313   0.78181   0.00000  Uiso   1.00
O914   O     0.34455   0.93811   0.76625   0.00000  Uiso   1.00
O915   O     0.34449   0.89265   0.82254   0.00000  Uiso   1.00
N916   N     0.65747   0.77353   0.71819   0.00000  Uiso   1.00
O917   O     0.65544   0.72856   0.73376   0.00000  Uiso   1.00
O918   O     0.65550   0.77401   0.67746   0.00000  Uiso   1.00
O919   O     0.79482   0.90476   0.74686   0.00000  Uiso   1.00
O920   O     0.87185   0.76191   0.75314   0.00000  Uiso   1.00
O921   O     0.89496   0.91420   0.75503   0.00000  Uiso   1.00
O922   O     0.77171   0.75247   0.74498   0.00000  Uiso   1.00
C923   C     0.84761   0.93321   0.75231   0.00000  Uiso   1.00
C924   C     0.81905   0.73345   0.74770   0.00000  Uiso   1.00
O925   O     0.75518   0.82597   0.80855   0.00000  Uiso   1.00
O926   O     0.91149   0.84070   0.69146   0.00000  Uiso   1.00
O927   O     0.85532   0.83540   0.81671   0.00000  Uiso   1.00
O928   O     0.81134   0.83126   0.68329   0.00000  Uiso   1.00
C929   C     0.79462   0.82849   0.83307   0.00000  Uiso   1.00
C930   C     0.87205   0.83817   0.66693   0.00000  Uiso   1.00
Cu931  Cu    0.77404   0.82775   0.74517   0.00000  Uiso   1.00
Cu932  Cu    0.89263   0.83892   0.75484   0.00000  Uiso   1.00
C933   C     0.77069   0.82251   0.88091   0.00000  Uiso   1.00
C934   C     0.89598   0.84415   0.61909   0.00000  Uiso   1.00
C935   C     0.69074   0.79038   0.94546   0.00000  Uiso   1.00
C936   C     0.97593   0.87629   0.55453   0.00000  Uiso   1.00
C937   C     0.70728   0.80160   0.90115   0.00000  Uiso   1.00
C938   C     0.95938   0.86506   0.59885   0.00000  Uiso   1.00
C939   C     0.81449   0.83500   0.90676   0.00000  Uiso   1.00
C940   C     0.85217   0.83167   0.59324   0.00000  Uiso   1.00
C941   C     0.79712   0.82908   0.95218   0.00000  Uiso   1.00
C942   C     0.86955   0.83758   0.54783   0.00000  Uiso   1.00
C943   C     0.73562   0.80178   0.97042   0.00000  Uiso   1.00
C944   C     0.93105   0.86489   0.52958   0.00000  Uiso   1.00
C945   C     0.84098   0.84421   0.97885   0.00000  Uiso   1.00
C946   C     0.82568   0.82246   0.52115   0.00000  Uiso   1.00
C947   C     0.76721   0.78648   0.53482   0.00000  Uiso   1.00
C948   C     0.89946   0.88019   0.96519   0.00000  Uiso   1.00
C949   C     0.72134   0.78093   0.51157   0.00000  Uiso   1.00
C950   C     0.94533   0.88574   0.98843   0.00000  Uiso   1.00
H951   H     0.67604   0.75546   0.52371   0.00000  Uiso   1.00
H952   H     0.99062   0.91120   0.97629   0.00000  Uiso   1.00
H953   H     0.80327   0.82132   0.60949   0.00000  Uiso   1.00
H954   H     0.86340   0.84535   0.89051   0.00000  Uiso   1.00
H955   H     0.97644   0.77067   0.96003   0.00000  Uiso   1.00
H956   H     0.69023   0.89600   0.53997   0.00000  Uiso   1.00
C957   C     0.85294   0.98903   0.75689   0.00000  Uiso   1.00
C958   C     0.81373   0.67763   0.74311   0.00000  Uiso   1.00
H959   H     0.88778   0.67861   0.77316   0.00000  Uiso   1.00
H960   H     0.77889   0.98806   0.72684   0.00000  Uiso   1.00
N961   N     0.98173   0.84735   0.76212   0.00000  Uiso   1.00
N962   N     0.68494   0.81932   0.73788   0.00000  Uiso   1.00
Cl963  Cl    0.68565   0.88368   0.62752   0.00000  Uiso   1.00
Cl964  Cl    0.98102   0.78298   0.87247   0.00000  Uiso   1.00
Cl965  Cl    0.75197   0.73866   0.57457   0.00000  Uiso   1.00
Cl966  Cl    0.91469   0.92801   0.92543   0.00000  Uiso   1.00
N967   N     0.67586   0.89313   0.78181   0.00000  Uiso   1.00
O968   O     0.67789   0.93811   0.76625   0.00000  Uiso   1.00
O969   O     0.67783   0.89265   0.82254   0.00000  Uiso   1.00
N970   N     0.99080   0.77353   0.71819   0.00000  Uiso   1.00
O971   O     0.98878   0.72856   0.73376   0.00000  Uiso   1.00
O972   O     0.98884   0.77401   0.67746   0.00000  Uiso   1.00
loop_
_geom_bond_atom_site_label_1
_geom_bond_atom_site_label_2
_geom_bond_distance
_geom_bond_site_symmetry_2
_ccdc_geom_bond_type
O1     C5      1.297   .     A
O1     Cu13    1.952   .     S
O2     C6      1.297   .     A
O2     Cu14    1.952   .     S
O3     Cu14    1.947   .     S
O3     C5      1.297   .     A
O4     Cu13    1.947   .     S
O4     C6      1.297   .     A
C5     C39     1.427   .     S
C6     C40     1.427   .     S
O7     Cu13    1.940   .     S
O7     C11     1.308   .     A
O8     C12     1.308   .     A
O8     Cu14    1.940   .     S
O9     Cu14    1.923   .     S
O9     C11     1.312   .     A
O10    C12     1.312   .     A
O10    Cu13    1.923   .     S
C11    C15     1.480   .     S
C12    C16     1.480   .     S
Cu13   Cu14    2.717   .     S
Cu13   N44     2.042   .     S
Cu14   N43     2.042   .     S
C15    C21     1.402   .     A
C15    C19     1.415   .     A
C16    C20     1.415   .     A
C16    C22     1.402   .     A
C17    C25     1.401   .     A
C17    C19     1.395   .     A
C17    H145    1.085   1_455 S
C18    C26     1.401   .     A
C18    C20     1.395   .     A
C18    H92     1.085   .     S
C19    Cl154   1.763   1_455 S
C20    Cl99    1.763   .     S
C21    H36     1.076   .     S
C21    C23     1.401   .     A
C22    H35     1.076   .     S
C22    C24     1.401   .     A
C23    C27     1.425   .     A
C23    C25     1.412   .     A
C24    C28     1.425   .     A
C24    C26     1.412   .     A
C25    C517    1.389   .     S
C26    C518    1.389   1_554 S
C27    C30     1.428   .     A
C27    C514    1.430   .     S
C28    C29     1.428   .     A
C28    C513    1.430   1_554 S
C29    C31     1.389   .     A
C29    Cl47    1.769   .     S
C30    C32     1.389   .     A
C30    Cl48    1.769   .     S
C31    H33     1.085   .     S
C31    C511    1.389   1_554 S
C32    H34     1.085   .     S
C32    C512    1.389   .     S
H37    C71     1.085   .     S
H38    C126    1.085   1_455 S
C39    C202    1.329   .     S
C39    H203    1.084   .     S
C40    C363    1.329   1_545 S
C40    H366    1.084   1_545 S
H41    C363    1.084   1_545 S
H42    C202    1.084   .     S
N43    N98     1.279   .     S
N43    N103    1.384   .     S
N44    N151    1.279   1_455 S
N44    N160    1.384   1_455 S
Cl45   C128    1.763   1_455 S
Cl46   C73     1.763   .     S
N49    O50     1.299   .     A
N49    O51     1.300   .     A
N49    N151    1.384   1_455 S
N52    O54     1.300   .     A
N52    O53     1.299   .     A
N52    N98     1.384   .     S
O55    C59     1.297   .     A
O55    Cu67    1.952   .     S
O56    C60     1.297   .     A
O56    Cu68    1.952   .     S
O57    Cu68    1.947   .     S
O57    C59     1.297   .     A
O58    Cu67    1.947   .     S
O58    C60     1.297   .     A
C59    C93     1.427   .     S
C60    C94     1.427   .     S
O61    Cu67    1.940   .     S
O61    C65     1.308   .     A
O62    C66     1.308   .     A
O62    Cu68    1.940   .     S
O63    Cu68    1.923   .     S
O63    C65     1.312   .     A
O64    C66     1.312   .     A
O64    Cu67    1.923   .     S
C65    C69     1.480   .     S
C66    C70     1.480   .     S
Cu67   Cu68    2.717   .     S
Cu67   N98     2.042   .     S
Cu68   N97     2.042   .     S
C69    C75     1.402   .     A
C69    C73     1.415   .     A
C70    C74     1.415   .     A
C70    C76     1.402   .     A
C71    C79     1.401   .     A
C71    C73     1.395   .     A
C72    C80     1.401   .     A
C72    C74     1.395   .     A
C72    H146    1.085   .     S
C74    Cl153   1.763   .     S
C75    H90     1.076   .     S
C75    C77     1.401   .     A
C76    H89     1.076   .     S
C76    C78     1.401   .     A
C77    C81     1.425   .     A
C77    C79     1.412   .     A
C78    C82     1.425   .     A
C78    C80     1.412   .     A
C79    C571    1.389   .     S
C80    C572    1.389   1_554 S
C81    C84     1.428   .     A
C81    C568    1.430   .     S
C82    C83     1.428   .     A
C82    C567    1.430   1_554 S
C83    C85     1.389   .     A
C83    Cl101   1.769   .     S
C84    C86     1.389   .     A
C84    Cl102   1.769   .     S
C85    H87     1.085   .     S
C85    C565    1.389   1_554 S
C86    H88     1.085   .     S
C86    C566    1.389   .     S
H91    C125    1.085   .     S
C93    C256    1.329   .     S
C93    H257    1.084   .     S
C94    C417    1.329   1_545 S
C94    H420    1.084   1_545 S
H95    C417    1.084   1_545 S
H96    C256    1.084   .     S
N97    N152    1.279   .     S
N97    N157    1.384   .     S
Cl100  C127    1.763   .     S
N103   O104    1.299   .     A
N103   O105    1.300   .     A
N106   O108    1.300   .     A
N106   O107    1.299   .     A
N106   N152    1.384   .     S
O109   C113    1.297   .     A
O109   Cu121   1.952   .     S
O110   C114    1.297   .     A
O110   Cu122   1.952   .     S
O111   Cu122   1.947   .     S
O111   C113    1.297   .     A
O112   Cu121   1.947   .     S
O112   C114    1.297   .     A
C113   C147    1.427   .     S
C114   C148    1.427   .     S
O115   Cu121   1.940   .     S
O115   C119    1.308   .     A
O116   C120    1.308   .     A
O116   Cu122   1.940   .     S
O117   Cu122   1.923   .     S
O117   C119    1.312   .     A
O118   C120    1.312   .     A
O118   Cu121   1.923   .     S
C119   C123    1.480   .     S
C120   C124    1.480   .     S
Cu121  Cu122   2.717   .     S
Cu121  N152    2.042   .     S
Cu122  N151    2.042   .     S
C123   C129    1.402   .     A
C123   C127    1.415   .     A
C124   C128    1.415   .     A
C124   C130    1.402   .     A
C125   C133    1.401   .     A
C125   C127    1.395   .     A
C126   C134    1.401   .     A
C126   C128    1.395   .     A
C126   H38     1.085   1_655 S
C128   Cl45    1.763   1_655 S
C129   H144    1.076   .     S
C129   C131    1.401   .     A
C130   H143    1.076   .     S
C130   C132    1.401   .     A
C131   C135    1.425   .     A
C131   C133    1.412   .     A
C132   C136    1.425   .     A
C132   C134    1.412   .     A
C133   C625    1.389   .     S
C134   C626    1.389   1_554 S
C135   C138    1.428   .     A
C135   C622    1.430   .     S
C136   C137    1.428   .     A
C136   C621    1.430   1_554 S
C137   C139    1.389   .     A
C137   Cl155   1.769   .     S
C138   C140    1.389   .     A
C138   Cl156   1.769   .     S
C139   H141    1.085   .     S
C139   C619    1.389   1_554 S
C140   H142    1.085   .     S
C140   C620    1.389   .     S
H145   C17     1.085   1_655 S
C147   C310    1.329   .     S
C147   H311    1.084   .     S
C148   C471    1.329   1_545 S
C148   H474    1.084   1_545 S
H149   C471    1.084   1_545 S
H150   C310    1.084   .     S
N151   N44     1.279   1_655 S
N151   N49     1.384   1_655 S
Cl154  C19     1.763   1_655 S
N157   O158    1.299   .     A
N157   O159    1.300   .     A
N160   O162    1.300   .     A
N160   O161    1.299   .     A
N160   N44     1.384   1_655 S
O163   C167    1.297   .     A
O163   Cu175   1.952   .     S
O164   C168    1.297   .     A
O164   Cu176   1.952   .     S
O165   Cu176   1.947   .     S
O165   C167    1.297   .     A
O166   Cu175   1.947   .     S
O166   C168    1.297   .     A
C167   C201    1.427   .     S
C168   C202    1.427   .     S
O169   Cu175   1.940   .     S
O169   C173    1.308   .     A
O170   C174    1.308   .     A
O170   Cu176   1.940   .     S
O171   Cu176   1.923   .     S
O171   C173    1.312   .     A
O172   C174    1.312   .     A
O172   Cu175   1.923   .     S
C173   C177    1.480   .     S
C174   C178    1.480   .     S
Cu175  Cu176   2.717   .     S
Cu175  N206    2.042   .     S
Cu176  N205    2.042   .     S
C177   C183    1.402   .     A
C177   C181    1.415   .     A
C178   C182    1.415   .     A
C178   C184    1.402   .     A
C179   C187    1.401   .     A
C179   C181    1.395   .     A
C179   H307    1.085   1_455 S
C180   C188    1.401   .     A
C180   C182    1.395   .     A
C180   H254    1.085   .     S
C181   Cl316   1.763   1_455 S
C182   Cl261   1.763   .     S
C183   H198    1.076   .     S
C183   C185    1.401   .     A
C184   H197    1.076   .     S
C184   C186    1.401   .     A
C185   C189    1.425   .     A
C185   C187    1.412   .     A
C186   C190    1.425   .     A
C186   C188    1.412   .     A
C187   C679    1.389   .     S
C188   C680    1.389   1_554 S
C189   C192    1.428   .     A
C189   C676    1.430   .     S
C190   C191    1.428   .     A
C190   C675    1.430   1_554 S
C191   C193    1.389   .     A
C191   Cl209   1.769   .     S
C192   C194    1.389   .     A
C192   Cl210   1.769   .     S
C193   H195    1.085   .     S
C193   C673    1.389   1_554 S
C194   H196    1.085   .     S
C194   C674    1.389   .     S
H199   C233    1.085   .     S
H200   C288    1.085   1_455 S
C201   C364    1.329   .     S
C201   H365    1.084   .     S
H204   C364    1.084   .     S
N205   N260    1.279   .     S
N205   N265    1.384   .     S
N206   N313    1.279   1_455 S
N206   N322    1.384   1_455 S
Cl207  C290    1.763   1_455 S
Cl208  C235    1.763   .     S
N211   O212    1.299   .     A
N211   O213    1.300   .     A
N211   N313    1.384   1_455 S
N214   O216    1.300   .     A
N214   O215    1.299   .     A
N214   N260    1.384   .     S
O217   C221    1.297   .     A
O217   Cu229   1.952   .     S
O218   C222    1.297   .     A
O218   Cu230   1.952   .     S
O219   Cu230   1.947   .     S
O219   C221    1.297   .     A
O220   Cu229   1.947   .     S
O220   C222    1.297   .     A
C221   C255    1.427   .     S
C222   C256    1.427   .     S
O223   Cu229   1.940   .     S
O223   C227    1.308   .     A
O224   C228    1.308   .     A
O224   Cu230   1.940   .     S
O225   Cu230   1.923   .     S
O225   C227    1.312   .     A
O226   C228    1.312   .     A
O226   Cu229   1.923   .     S
C227   C231    1.480   .     S
C228   C232    1.480   .     S
Cu229  Cu230   2.717   .     S
Cu229  N260    2.042   .     S
Cu230  N259    2.042   .     S
C231   C237    1.402   .     A
C231   C235    1.415   .     A
C232   C236    1.415   .     A
C232   C238    1.402   .     A
C233   C241    1.401   .     A
C233   C235    1.395   .     A
C234   C242    1.401   .     A
C234   C236    1.395   .     A
C234   H308    1.085   .     S
C236   Cl315   1.763   .     S
C237   H252    1.076   .     S
C237   C239    1.401   .     A
C238   H251    1.076   .     S
C238   C240    1.401   .     A
C239   C243    1.425   .     A
C239   C241    1.412   .     A
C240   C244    1.425   .     A
C240   C242    1.412   .     A
C241   C733    1.389   .     S
C242   C734    1.389   1_554 S
C243   C246    1.428   .     A
C243   C730    1.430   .     S
C244   C245    1.428   .     A
C244   C729    1.430   1_554 S
C245   C247    1.389   .     A
C245   Cl263   1.769   .     S
C246   C248    1.389   .     A
C246   Cl264   1.769   .     S
C247   H249    1.085   .     S
C247   C727    1.389   1_554 S
C248   H250    1.085   .     S
C248   C728    1.389   .     S
H253   C287    1.085   .     S
C255   C418    1.329   .     S
C255   H419    1.084   .     S
H258   C418    1.084   .     S
N259   N314    1.279   .     S
N259   N319    1.384   .     S
Cl262  C289    1.763   .     S
N265   O266    1.299   .     A
N265   O267    1.300   .     A
N268   O270    1.300   .     A
N268   O269    1.299   .     A
N268   N314    1.384   .     S
O271   C275    1.297   .     A
O271   Cu283   1.952   .     S
O272   C276    1.297   .     A
O272   Cu284   1.952   .     S
O273   Cu284   1.947   .     S
O273   C275    1.297   .     A
O274   Cu283   1.947   .     S
O274   C276    1.297   .     A
C275   C309    1.427   .     S
C276   C310    1.427   .     S
O277   Cu283   1.940   .     S
O277   C281    1.308   .     A
O278   C282    1.308   .     A
O278   Cu284   1.940   .     S
O279   Cu284   1.923   .     S
O279   C281    1.312   .     A
O280   C282    1.312   .     A
O280   Cu283   1.923   .     S
C281   C285    1.480   .     S
C282   C286    1.480   .     S
Cu283  Cu284   2.717   .     S
Cu283  N314    2.042   .     S
Cu284  N313    2.042   .     S
C285   C291    1.402   .     A
C285   C289    1.415   .     A
C286   C290    1.415   .     A
C286   C292    1.402   .     A
C287   C295    1.401   .     A
C287   C289    1.395   .     A
C288   C296    1.401   .     A
C288   C290    1.395   .     A
C288   H200    1.085   1_655 S
C290   Cl207   1.763   1_655 S
C291   H306    1.076   .     S
C291   C293    1.401   .     A
C292   H305    1.076   .     S
C292   C294    1.401   .     A
C293   C297    1.425   .     A
C293   C295    1.412   .     A
C294   C298    1.425   .     A
C294   C296    1.412   .     A
C295   C787    1.389   .     S
C296   C788    1.389   1_554 S
C297   C300    1.428   .     A
C297   C784    1.430   .     S
C298   C299    1.428   .     A
C298   C783    1.430   1_554 S
C299   C301    1.389   .     A
C299   Cl317   1.769   .     S
C300   C302    1.389   .     A
C300   Cl318   1.769   .     S
C301   H303    1.085   .     S
C301   C781    1.389   1_554 S
C302   H304    1.085   .     S
C302   C782    1.389   .     S
H307   C179    1.085   1_655 S
C309   C472    1.329   .     S
C309   H473    1.084   .     S
H312   C472    1.084   .     S
N313   N206    1.279   1_655 S
N313   N211    1.384   1_655 S
Cl316  C181    1.763   1_655 S
N319   O320    1.299   .     A
N319   O321    1.300   .     A
N322   O324    1.300   .     A
N322   O323    1.299   .     A
N322   N206    1.384   1_655 S
O325   C329    1.297   .     A
O325   Cu337   1.952   .     S
O326   C330    1.297   .     A
O326   Cu338   1.952   .     S
O327   Cu338   1.947   .     S
O327   C329    1.297   .     A
O328   Cu337   1.947   .     S
O328   C330    1.297   .     A
C329   C363    1.427   .     S
C330   C364    1.427   .     S
O331   Cu337   1.940   .     S
O331   C335    1.308   .     A
O332   C336    1.308   .     A
O332   Cu338   1.940   .     S
O333   Cu338   1.923   .     S
O333   C335    1.312   .     A
O334   C336    1.312   .     A
O334   Cu337   1.923   .     S
C335   C339    1.480   .     S
C336   C340    1.480   .     S
Cu337  Cu338   2.717   .     S
Cu337  N368    2.042   .     S
Cu338  N367    2.042   .     S
C339   C345    1.402   .     A
C339   C343    1.415   .     A
C340   C344    1.415   .     A
C340   C346    1.402   .     A
C341   C349    1.401   .     A
C341   C343    1.395   .     A
C341   H469    1.085   1_455 S
C342   C350    1.401   .     A
C342   C344    1.395   .     A
C342   H416    1.085   .     S
C343   Cl478   1.763   1_455 S
C344   Cl423   1.763   .     S
C345   H360    1.076   .     S
C345   C347    1.401   .     A
C346   H359    1.076   .     S
C346   C348    1.401   .     A
C347   C351    1.425   .     A
C347   C349    1.412   .     A
C348   C352    1.425   .     A
C348   C350    1.412   .     A
C349   C841    1.389   .     S
C350   C842    1.389   1_554 S
C351   C354    1.428   .     A
C351   C838    1.430   .     S
C352   C353    1.428   .     A
C352   C837    1.430   1_554 S
C353   C355    1.389   .     A
C353   Cl371   1.769   .     S
C354   C356    1.389   .     A
C354   Cl372   1.769   .     S
C355   H357    1.085   .     S
C355   C835    1.389   1_554 S
C356   H358    1.085   .     S
C356   C836    1.389   .     S
H361   C395    1.085   .     S
H362   C450    1.085   1_455 S
C363   C40     1.329   1_565 S
C363   H41     1.084   1_565 S
H366   C40     1.084   1_565 S
N367   N422    1.279   .     S
N367   N427    1.384   .     S
N368   N475    1.279   1_455 S
N368   N484    1.384   1_455 S
Cl369  C452    1.763   1_455 S
Cl370  C397    1.763   .     S
N373   O374    1.299   .     A
N373   O375    1.300   .     A
N373   N475    1.384   1_455 S
N376   O378    1.300   .     A
N376   O377    1.299   .     A
N376   N422    1.384   .     S
O379   C383    1.297   .     A
O379   Cu391   1.952   .     S
O380   C384    1.297   .     A
O380   Cu392   1.952   .     S
O381   Cu392   1.947   .     S
O381   C383    1.297   .     A
O382   Cu391   1.947   .     S
O382   C384    1.297   .     A
C383   C417    1.427   .     S
C384   C418    1.427   .     S
O385   Cu391   1.940   .     S
O385   C389    1.308   .     A
O386   C390    1.308   .     A
O386   Cu392   1.940   .     S
O387   Cu392   1.923   .     S
O387   C389    1.312   .     A
O388   C390    1.312   .     A
O388   Cu391   1.923   .     S
C389   C393    1.480   .     S
C390   C394    1.480   .     S
Cu391  Cu392   2.717   .     S
Cu391  N422    2.042   .     S
Cu392  N421    2.042   .     S
C393   C399    1.402   .     A
C393   C397    1.415   .     A
C394   C398    1.415   .     A
C394   C400    1.402   .     A
C395   C403    1.401   .     A
C395   C397    1.395   .     A
C396   C404    1.401   .     A
C396   C398    1.395   .     A
C396   H470    1.085   .     S
C398   Cl477   1.763   .     S
C399   H414    1.076   .     S
C399   C401    1.401   .     A
C400   H413    1.076   .     S
C400   C402    1.401   .     A
C401   C405    1.425   .     A
C401   C403    1.412   .     A
C402   C406    1.425   .     A
C402   C404    1.412   .     A
C403   C895    1.389   .     S
C404   C896    1.389   1_554 S
C405   C408    1.428   .     A
C405   C892    1.430   .     S
C406   C407    1.428   .     A
C406   C891    1.430   1_554 S
C407   C409    1.389   .     A
C407   Cl425   1.769   .     S
C408   C410    1.389   .     A
C408   Cl426   1.769   .     S
C409   H411    1.085   .     S
C409   C889    1.389   1_554 S
C410   H412    1.085   .     S
C410   C890    1.389   .     S
H415   C449    1.085   .     S
C417   C94     1.329   1_565 S
C417   H95     1.084   1_565 S
H420   C94     1.084   1_565 S
N421   N476    1.279   .     S
N421   N481    1.384   .     S
Cl424  C451    1.763   .     S
N427   O428    1.299   .     A
N427   O429    1.300   .     A
N430   O432    1.300   .     A
N430   O431    1.299   .     A
N430   N476    1.384   .     S
O433   C437    1.297   .     A
O433   Cu445   1.952   .     S
O434   C438    1.297   .     A
O434   Cu446   1.952   .     S
O435   Cu446   1.947   .     S
O435   C437    1.297   .     A
O436   Cu445   1.947   .     S
O436   C438    1.297   .     A
C437   C471    1.427   .     S
C438   C472    1.427   .     S
O439   Cu445   1.940   .     S
O439   C443    1.308   .     A
O440   C444    1.308   .     A
O440   Cu446   1.940   .     S
O441   Cu446   1.923   .     S
O441   C443    1.312   .     A
O442   C444    1.312   .     A
O442   Cu445   1.923   .     S
C443   C447    1.480   .     S
C444   C448    1.480   .     S
Cu445  Cu446   2.717   .     S
Cu445  N476    2.042   .     S
Cu446  N475    2.042   .     S
C447   C453    1.402   .     A
C447   C451    1.415   .     A
C448   C452    1.415   .     A
C448   C454    1.402   .     A
C449   C457    1.401   .     A
C449   C451    1.395   .     A
C450   C458    1.401   .     A
C450   C452    1.395   .     A
C450   H362    1.085   1_655 S
C452   Cl369   1.763   1_655 S
C453   H468    1.076   .     S
C453   C455    1.401   .     A
C454   H467    1.076   .     S
C454   C456    1.401   .     A
C455   C459    1.425   .     A
C455   C457    1.412   .     A
C456   C460    1.425   .     A
C456   C458    1.412   .     A
C457   C949    1.389   .     S
C458   C950    1.389   1_554 S
C459   C462    1.428   .     A
C459   C946    1.430   .     S
C460   C461    1.428   .     A
C460   C945    1.430   1_554 S
C461   C463    1.389   .     A
C461   Cl479   1.769   .     S
C462   C464    1.389   .     A
C462   Cl480   1.769   .     S
C463   H465    1.085   .     S
C463   C943    1.389   1_554 S
C464   H466    1.085   .     S
C464   C944    1.389   .     S
H469   C341    1.085   1_655 S
C471   C148    1.329   1_565 S
C471   H149    1.084   1_565 S
H474   C148    1.084   1_565 S
N475   N368    1.279   1_655 S
N475   N373    1.384   1_655 S
Cl478  C343    1.763   1_655 S
N481   O482    1.299   .     A
N481   O483    1.300   .     A
N484   O486    1.300   .     A
N484   O485    1.299   .     A
N484   N368    1.384   1_655 S
O487   C491    1.297   .     A
O487   Cu499   1.952   .     S
O488   C492    1.297   .     A
O488   Cu500   1.952   .     S
O489   Cu500   1.947   .     S
O489   C491    1.297   .     A
O490   Cu499   1.947   .     S
O490   C492    1.297   .     A
C491   C525    1.427   .     S
C492   C526    1.427   .     S
O493   Cu499   1.940   .     S
O493   C497    1.308   .     A
O494   C498    1.308   .     A
O494   Cu500   1.940   .     S
O495   Cu500   1.923   .     S
O495   C497    1.312   .     A
O496   C498    1.312   .     A
O496   Cu499   1.923   .     S
C497   C501    1.480   .     S
C498   C502    1.480   .     S
Cu499  Cu500   2.717   .     S
Cu499  N530    2.042   .     S
Cu500  N529    2.042   .     S
C501   C507    1.402   .     A
C501   C505    1.415   .     A
C502   C506    1.415   .     A
C502   C508    1.402   .     A
C503   C511    1.401   .     A
C503   C505    1.395   .     A
C503   H631    1.085   1_455 S
C504   C512    1.401   .     A
C504   C506    1.395   .     A
C504   H578    1.085   .     S
C505   Cl640   1.763   1_455 S
C506   Cl585   1.763   .     S
C507   H522    1.076   .     S
C507   C509    1.401   .     A
C508   H521    1.076   .     S
C508   C510    1.401   .     A
C509   C513    1.425   .     A
C509   C511    1.412   .     A
C510   C514    1.425   .     A
C510   C512    1.412   .     A
C511   C31     1.389   1_556 S
C513   C516    1.428   .     A
C513   C28     1.430   1_556 S
C514   C515    1.428   .     A
C515   C517    1.389   .     A
C515   Cl533   1.769   .     S
C516   C518    1.389   .     A
C516   Cl534   1.769   .     S
C517   H519    1.085   .     S
C518   H520    1.085   .     S
C518   C26     1.389   1_556 S
H523   C557    1.085   .     S
H524   C612    1.085   1_455 S
C525   C688    1.329   .     S
C525   H689    1.084   .     S
C526   C849    1.329   1_545 S
C526   H852    1.084   1_545 S
H527   C849    1.084   1_545 S
H528   C688    1.084   .     S
N529   N584    1.279   .     S
N529   N589    1.384   .     S
N530   N637    1.279   1_455 S
N530   N646    1.384   1_455 S
Cl531  C614    1.763   1_455 S
Cl532  C559    1.763   .     S
N535   O536    1.299   .     A
N535   O537    1.300   .     A
N535   N637    1.384   1_455 S
N538   O540    1.300   .     A
N538   O539    1.299   .     A
N538   N584    1.384   .     S
O541   C545    1.297   .     A
O541   Cu553   1.952   .     S
O542   C546    1.297   .     A
O542   Cu554   1.952   .     S
O543   Cu554   1.947   .     S
O543   C545    1.297   .     A
O544   Cu553   1.947   .     S
O544   C546    1.297   .     A
C545   C579    1.427   .     S
C546   C580    1.427   .     S
O547   Cu553   1.940   .     S
O547   C551    1.308   .     A
O548   C552    1.308   .     A
O548   Cu554   1.940   .     S
O549   Cu554   1.923   .     S
O549   C551    1.312   .     A
O550   C552    1.312   .     A
O550   Cu553   1.923   .     S
C551   C555    1.480   .     S
C552   C556    1.480   .     S
Cu553  Cu554   2.717   .     S
Cu553  N584    2.042   .     S
Cu554  N583    2.042   .     S
C555   C561    1.402   .     A
C555   C559    1.415   .     A
C556   C560    1.415   .     A
C556   C562    1.402   .     A
C557   C565    1.401   .     A
C557   C559    1.395   .     A
C558   C566    1.401   .     A
C558   C560    1.395   .     A
C558   H632    1.085   .     S
C560   Cl639   1.763   .     S
C561   H576    1.076   .     S
C561   C563    1.401   .     A
C562   H575    1.076   .     S
C562   C564    1.401   .     A
C563   C567    1.425   .     A
C563   C565    1.412   .     A
C564   C568    1.425   .     A
C564   C566    1.412   .     A
C565   C85     1.389   1_556 S
C567   C570    1.428   .     A
C567   C82     1.430   1_556 S
C568   C569    1.428   .     A
C569   C571    1.389   .     A
C569   Cl587   1.769   .     S
C570   C572    1.389   .     A
C570   Cl588   1.769   .     S
C571   H573    1.085   .     S
C572   H574    1.085   .     S
C572   C80     1.389   1_556 S
H577   C611    1.085   .     S
C579   C742    1.329   .     S
C579   H743    1.084   .     S
C580   C903    1.329   1_545 S
C580   H906    1.084   1_545 S
H581   C903    1.084   1_545 S
H582   C742    1.084   .     S
N583   N638    1.279   .     S
N583   N643    1.384   .     S
Cl586  C613    1.763   .     S
N589   O590    1.299   .     A
N589   O591    1.300   .     A
N592   O594    1.300   .     A
N592   O593    1.299   .     A
N592   N638    1.384   .     S
O595   C599    1.297   .     A
O595   Cu607   1.952   .     S
O596   C600    1.297   .     A
O596   Cu608   1.952   .     S
O597   Cu608   1.947   .     S
O597   C599    1.297   .     A
O598   Cu607   1.947   .     S
O598   C600    1.297   .     A
C599   C633    1.427   .     S
C600   C634    1.427   .     S
O601   Cu607   1.940   .     S
O601   C605    1.308   .     A
O602   C606    1.308   .     A
O602   Cu608   1.940   .     S
O603   Cu608   1.923   .     S
O603   C605    1.312   .     A
O604   C606    1.312   .     A
O604   Cu607   1.923   .     S
C605   C609    1.480   .     S
C606   C610    1.480   .     S
Cu607  Cu608   2.717   .     S
Cu607  N638    2.042   .     S
Cu608  N637    2.042   .     S
C609   C615    1.402   .     A
C609   C613    1.415   .     A
C610   C614    1.415   .     A
C610   C616    1.402   .     A
C611   C619    1.401   .     A
C611   C613    1.395   .     A
C612   C620    1.401   .     A
C612   C614    1.395   .     A
C612   H524    1.085   1_655 S
C614   Cl531   1.763   1_655 S
C615   H630    1.076   .     S
C615   C617    1.401   .     A
C616   H629    1.076   .     S
C616   C618    1.401   .     A
C617   C621    1.425   .     A
C617   C619    1.412   .     A
C618   C622    1.425   .     A
C618   C620    1.412   .     A
C619   C139    1.389   1_556 S
C621   C624    1.428   .     A
C621   C136    1.430   1_556 S
C622   C623    1.428   .     A
C623   C625    1.389   .     A
C623   Cl641   1.769   .     S
C624   C626    1.389   .     A
C624   Cl642   1.769   .     S
C625   H627    1.085   .     S
C626   H628    1.085   .     S
C626   C134    1.389   1_556 S
H631   C503    1.085   1_655 S
C633   C796    1.329   .     S
C633   H797    1.084   .     S
C634   C957    1.329   1_545 S
C634   H960    1.084   1_545 S
H635   C957    1.084   1_545 S
H636   C796    1.084   .     S
N637   N530    1.279   1_655 S
N637   N535    1.384   1_655 S
Cl640  C505    1.763   1_655 S
N643   O644    1.299   .     A
N643   O645    1.300   .     A
N646   O648    1.300   .     A
N646   O647    1.299   .     A
N646   N530    1.384   1_655 S
O649   C653    1.297   .     A
O649   Cu661   1.952   .     S
O650   C654    1.297   .     A
O650   Cu662   1.952   .     S
O651   Cu662   1.947   .     S
O651   C653    1.297   .     A
O652   Cu661   1.947   .     S
O652   C654    1.297   .     A
C653   C687    1.427   .     S
C654   C688    1.427   .     S
O655   Cu661   1.940   .     S
O655   C659    1.308   .     A
O656   C660    1.308   .     A
O656   Cu662   1.940   .     S
O657   Cu662   1.923   .     S
O657   C659    1.312   .     A
O658   C660    1.312   .     A
O658   Cu661   1.923   .     S
C659   C663    1.480   .     S
C660   C664    1.480   .     S
Cu661  Cu662   2.717   .     S
Cu661  N692    2.042   .     S
Cu662  N691    2.042   .     S
C663   C669    1.402   .     A
C663   C667    1.415   .     A
C664   C668    1.415   .     A
C664   C670    1.402   .     A
C665   C673    1.401   .     A
C665   C667    1.395   .     A
C665   H793    1.085   1_455 S
C666   C674    1.401   .     A
C666   C668    1.395   .     A
C666   H740    1.085   .     S
C667   Cl802   1.763   1_455 S
C668   Cl747   1.763   .     S
C669   H684    1.076   .     S
C669   C671    1.401   .     A
C670   H683    1.076   .     S
C670   C672    1.401   .     A
C671   C675    1.425   .     A
C671   C673    1.412   .     A
C672   C676    1.425   .     A
C672   C674    1.412   .     A
C673   C193    1.389   1_556 S
C675   C678    1.428   .     A
C675   C190    1.430   1_556 S
C676   C677    1.428   .     A
C677   C679    1.389   .     A
C677   Cl695   1.769   .     S
C678   C680    1.389   .     A
C678   Cl696   1.769   .     S
C679   H681    1.085   .     S
C680   H682    1.085   .     S
C680   C188    1.389   1_556 S
H685   C719    1.085   .     S
H686   C774    1.085   1_455 S
C687   C850    1.329   .     S
C687   H851    1.084   .     S
H690   C850    1.084   .     S
N691   N746    1.279   .     S
N691   N751    1.384   .     S
N692   N799    1.279   1_455 S
N692   N808    1.384   1_455 S
Cl693  C776    1.763   1_455 S
Cl694  C721    1.763   .     S
N697   O698    1.299   .     A
N697   O699    1.300   .     A
N697   N799    1.384   1_455 S
N700   O702    1.300   .     A
N700   O701    1.299   .     A
N700   N746    1.384   .     S
O703   C707    1.297   .     A
O703   Cu715   1.952   .     S
O704   C708    1.297   .     A
O704   Cu716   1.952   .     S
O705   Cu716   1.947   .     S
O705   C707    1.297   .     A
O706   Cu715   1.947   .     S
O706   C708    1.297   .     A
C707   C741    1.427   .     S
C708   C742    1.427   .     S
O709   Cu715   1.940   .     S
O709   C713    1.308   .     A
O710   C714    1.308   .     A
O710   Cu716   1.940   .     S
O711   Cu716   1.923   .     S
O711   C713    1.312   .     A
O712   C714    1.312   .     A
O712   Cu715   1.923   .     S
C713   C717    1.480   .     S
C714   C718    1.480   .     S
Cu715  Cu716   2.717   .     S
Cu715  N746    2.042   .     S
Cu716  N745    2.042   .     S
C717   C723    1.402   .     A
C717   C721    1.415   .     A
C718   C722    1.415   .     A
C718   C724    1.402   .     A
C719   C727    1.401   .     A
C719   C721    1.395   .     A
C720   C728    1.401   .     A
C720   C722    1.395   .     A
C720   H794    1.085   .     S
C722   Cl801   1.763   .     S
C723   H738    1.076   .     S
C723   C725    1.401   .     A
C724   H737    1.076   .     S
C724   C726    1.401   .     A
C725   C729    1.425   .     A
C725   C727    1.412   .     A
C726   C730    1.425   .     A
C726   C728    1.412   .     A
C727   C247    1.389   1_556 S
C729   C732    1.428   .     A
C729   C244    1.430   1_556 S
C730   C731    1.428   .     A
C731   C733    1.389   .     A
C731   Cl749   1.769   .     S
C732   C734    1.389   .     A
C732   Cl750   1.769   .     S
C733   H735    1.085   .     S
C734   H736    1.085   .     S
C734   C242    1.389   1_556 S
H739   C773    1.085   .     S
C741   C904    1.329   .     S
C741   H905    1.084   .     S
H744   C904    1.084   .     S
N745   N800    1.279   .     S
N745   N805    1.384   .     S
Cl748  C775    1.763   .     S
N751   O752    1.299   .     A
N751   O753    1.300   .     A
N754   O756    1.300   .     A
N754   O755    1.299   .     A
N754   N800    1.384   .     S
O757   C761    1.297   .     A
O757   Cu769   1.952   .     S
O758   C762    1.297   .     A
O758   Cu770   1.952   .     S
O759   Cu770   1.947   .     S
O759   C761    1.297   .     A
O760   Cu769   1.947   .     S
O760   C762    1.297   .     A
C761   C795    1.427   .     S
C762   C796    1.427   .     S
O763   Cu769   1.940   .     S
O763   C767    1.308   .     A
O764   C768    1.308   .     A
O764   Cu770   1.940   .     S
O765   Cu770   1.923   .     S
O765   C767    1.312   .     A
O766   C768    1.312   .     A
O766   Cu769   1.923   .     S
C767   C771    1.480   .     S
C768   C772    1.480   .     S
Cu769  Cu770   2.717   .     S
Cu769  N800    2.042   .     S
Cu770  N799    2.042   .     S
C771   C777    1.402   .     A
C771   C775    1.415   .     A
C772   C776    1.415   .     A
C772   C778    1.402   .     A
C773   C781    1.401   .     A
C773   C775    1.395   .     A
C774   C782    1.401   .     A
C774   C776    1.395   .     A
C774   H686    1.085   1_655 S
C776   Cl693   1.763   1_655 S
C777   H792    1.076   .     S
C777   C779    1.401   .     A
C778   H791    1.076   .     S
C778   C780    1.401   .     A
C779   C783    1.425   .     A
C779   C781    1.412   .     A
C780   C784    1.425   .     A
C780   C782    1.412   .     A
C781   C301    1.389   1_556 S
C783   C786    1.428   .     A
C783   C298    1.430   1_556 S
C784   C785    1.428   .     A
C785   C787    1.389   .     A
C785   Cl803   1.769   .     S
C786   C788    1.389   .     A
C786   Cl804   1.769   .     S
C787   H789    1.085   .     S
C788   H790    1.085   .     S
C788   C296    1.389   1_556 S
H793   C665    1.085   1_655 S
C795   C958    1.329   .     S
C795   H959    1.084   .     S
H798   C958    1.084   .     S
N799   N692    1.279   1_655 S
N799   N697    1.384   1_655 S
Cl802  C667    1.763   1_655 S
N805   O806    1.299   .     A
N805   O807    1.300   .     A
N808   O810    1.300   .     A
N808   O809    1.299   .     A
N808   N692    1.384   1_655 S
O811   C815    1.297   .     A
O811   Cu823   1.952   .     S
O812   C816    1.297   .     A
O812   Cu824   1.952   .     S
O813   Cu824   1.947   .     S
O813   C815    1.297   .     A
O814   Cu823   1.947   .     S
O814   C816    1.297   .     A
C815   C849    1.427   .     S
C816   C850    1.427   .     S
O817   Cu823   1.940   .     S
O817   C821    1.308   .     A
O818   C822    1.308   .     A
O818   Cu824   1.940   .     S
O819   Cu824   1.923   .     S
O819   C821    1.312   .     A
O820   C822    1.312   .     A
O820   Cu823   1.923   .     S
C821   C825    1.480   .     S
C822   C826    1.480   .     S
Cu823  Cu824   2.717   .     S
Cu823  N854    2.042   .     S
Cu824  N853    2.042   .     S
C825   C831    1.402   .     A
C825   C829    1.415   .     A
C826   C830    1.415   .     A
C826   C832    1.402   .     A
C827   C835    1.401   .     A
C827   C829    1.395   .     A
C827   H955    1.085   1_455 S
C828   C836    1.401   .     A
C828   C830    1.395   .     A
C828   H902    1.085   .     S
C829   Cl964   1.763   1_455 S
C830   Cl909   1.763   .     S
C831   H846    1.076   .     S
C831   C833    1.401   .     A
C832   H845    1.076   .     S
C832   C834    1.401   .     A
C833   C837    1.425   .     A
C833   C835    1.412   .     A
C834   C838    1.425   .     A
C834   C836    1.412   .     A
C835   C355    1.389   1_556 S
C837   C840    1.428   .     A
C837   C352    1.430   1_556 S
C838   C839    1.428   .     A
C839   C841    1.389   .     A
C839   Cl857   1.769   .     S
C840   C842    1.389   .     A
C840   Cl858   1.769   .     S
C841   H843    1.085   .     S
C842   H844    1.085   .     S
C842   C350    1.389   1_556 S
H847   C881    1.085   .     S
H848   C936    1.085   1_455 S
C849   C526    1.329   1_565 S
C849   H527    1.084   1_565 S
H852   C526    1.084   1_565 S
N853   N908    1.279   .     S
N853   N913    1.384   .     S
N854   N961    1.279   1_455 S
N854   N970    1.384   1_455 S
Cl855  C938    1.763   1_455 S
Cl856  C883    1.763   .     S
N859   O860    1.299   .     A
N859   O861    1.300   .     A
N859   N961    1.384   1_455 S
N862   O864    1.300   .     A
N862   O863    1.299   .     A
N862   N908    1.384   .     S
O865   C869    1.297   .     A
O865   Cu877   1.952   .     S
O866   C870    1.297   .     A
O866   Cu878   1.952   .     S
O867   Cu878   1.947   .     S
O867   C869    1.297   .     A
O868   Cu877   1.947   .     S
O868   C870    1.297   .     A
C869   C903    1.427   .     S
C870   C904    1.427   .     S
O871   Cu877   1.940   .     S
O871   C875    1.308   .     A
O872   C876    1.308   .     A
O872   Cu878   1.940   .     S
O873   Cu878   1.923   .     S
O873   C875    1.312   .     A
O874   C876    1.312   .     A
O874   Cu877   1.923   .     S
C875   C879    1.480   .     S
C876   C880    1.480   .     S
Cu877  Cu878   2.717   .     S
Cu877  N908    2.042   .     S
Cu878  N907    2.042   .     S
C879   C885    1.402   .     A
C879   C883    1.415   .     A
C880   C884    1.415   .     A
C880   C886    1.402   .     A
C881   C889    1.401   .     A
C881   C883    1.395   .     A
C882   C890    1.401   .     A
C882   C884    1.395   .     A
C882   H956    1.085   .     S
C884   Cl963   1.763   .     S
C885   H900    1.076   .     S
C885   C887    1.401   .     A
C886   H899    1.076   .     S
C886   C888    1.401   .     A
C887   C891    1.425   .     A
C887   C889    1.412   .     A
C888   C892    1.425   .     A
C888   C890    1.412   .     A
C889   C409    1.389   1_556 S
C891   C894    1.428   .     A
C891   C406    1.430   1_556 S
C892   C893    1.428   .     A
C893   C895    1.389   .     A
C893   Cl911   1.769   .     S
C894   C896    1.389   .     A
C894   Cl912   1.769   .     S
C895   H897    1.085   .     S
C896   H898    1.085   .     S
C896   C404    1.389   1_556 S
H901   C935    1.085   .     S
C903   C580    1.329   1_565 S
C903   H581    1.084   1_565 S
H906   C580    1.084   1_565 S
N907   N962    1.279   .     S
N907   N967    1.384   .     S
Cl910  C937    1.763   .     S
N913   O914    1.299   .     A
N913   O915    1.300   .     A
N916   O918    1.300   .     A
N916   O917    1.299   .     A
N916   N962    1.384   .     S
O919   C923    1.297   .     A
O919   Cu931   1.952   .     S
O920   C924    1.297   .     A
O920   Cu932   1.952   .     S
O921   Cu932   1.947   .     S
O921   C923    1.297   .     A
O922   Cu931   1.947   .     S
O922   C924    1.297   .     A
C923   C957    1.427   .     S
C924   C958    1.427   .     S
O925   Cu931   1.940   .     S
O925   C929    1.308   .     A
O926   C930    1.308   .     A
O926   Cu932   1.940   .     S
O927   Cu932   1.923   .     S
O927   C929    1.312   .     A
O928   C930    1.312   .     A
O928   Cu931   1.923   .     S
C929   C933    1.480   .     S
C930   C934    1.480   .     S
Cu931  Cu932   2.717   .     S
Cu931  N962    2.042   .     S
Cu932  N961    2.042   .     S
C933   C939    1.402   .     A
C933   C937    1.415   .     A
C934   C938    1.415   .     A
C934   C940    1.402   .     A
C935   C943    1.401   .     A
C935   C937    1.395   .     A
C936   C944    1.401   .     A
C936   C938    1.395   .     A
C936   H848    1.085   1_655 S
C938   Cl855   1.763   1_655 S
C939   H954    1.076   .     S
C939   C941    1.401   .     A
C940   H953    1.076   .     S
C940   C942    1.401   .     A
C941   C945    1.425   .     A
C941   C943    1.412   .     A
C942   C946    1.425   .     A
C942   C944    1.412   .     A
C943   C463    1.389   1_556 S
C945   C948    1.428   .     A
C945   C460    1.430   1_556 S
C946   C947    1.428   .     A
C947   C949    1.389   .     A
C947   Cl965   1.769   .     S
C948   C950    1.389   .     A
C948   Cl966   1.769   .     S
C949   H951    1.085   .     S
C950   H952    1.085   .     S
C950   C458    1.389   1_556 S
H955   C827    1.085   1_655 S
C957   C634    1.329   1_565 S
C957   H635    1.084   1_565 S
H960   C634    1.084   1_565 S
N961   N854    1.279   1_655 S
N961   N859    1.384   1_655 S
Cl964  C829    1.763   1_655 S
N967   O968    1.299   .     A
N967   O969    1.300   .     A
N970   O972    1.300   .     A
N970   O971    1.299   .     A
N970   N854    1.384   1_655 S
