data_str_m2_o2_o10_pcu_sym.144
_audit_creation_date              2020-01-03
_audit_creation_method            'Materials Studio'
_symmetry_space_group_name_H-M    'P1'
_symmetry_Int_Tables_number       1
_symmetry_cell_setting            triclinic
loop_
_symmetry_equiv_pos_as_xyz
  x,y,z
_cell_length_a                    26.1642
_cell_length_b                    30.2762
_cell_length_c                    27.8428
_cell_angle_alpha                 89.8960
_cell_angle_beta                  97.8837
_cell_angle_gamma                 90.7740
loop_
_atom_site_label
_atom_site_type_symbol
_atom_site_fract_x
_atom_site_fract_y
_atom_site_fract_z
_atom_site_U_iso_or_equiv
_atom_site_adp_type
_atom_site_occupancy
C1     C     0.16646   0.16502   0.25001   0.00000  Uiso   1.00
C2     C     0.16654   0.33504   0.24997   0.00000  Uiso   1.00
C3     C     0.20496   0.27242   0.05883   0.00000  Uiso   1.00
C4     C     0.13959   0.21743   0.44244   0.00000  Uiso   1.00
C5     C     0.20321   0.27421   0.10958   0.00000  Uiso   1.00
C6     C     0.13732   0.21943   0.39124   0.00000  Uiso   1.00
C7     C     0.12929   0.22678   0.10019   0.00000  Uiso   1.00
C8     C     0.19618   0.28019   0.39900   0.00000  Uiso   1.00
C9     C     0.12882   0.22672   0.04920   0.00000  Uiso   1.00
C10    C     0.19442   0.28177   0.44954   0.00000  Uiso   1.00
C11    C     0.16685   0.24960   0.02740   0.00000  Uiso   1.00
C12    C     0.16704   0.24952   0.47266   0.00000  Uiso   1.00
C13    C     0.06794   0.25008   0.23758   0.00000  Uiso   1.00
C14    C     0.26539   0.25034   0.26241   0.00000  Uiso   1.00
C15    C     0.01264   0.25011   0.23074   0.00000  Uiso   1.00
C16    C     0.32067   0.25102   0.26919   0.00000  Uiso   1.00
C17    C     0.18380   0.04783   0.29253   0.00000  Uiso   1.00
C18    C     0.17756   0.45279   0.20947   0.00000  Uiso   1.00
C19    C     0.18375   0.09374   0.29262   0.00000  Uiso   1.00
C20    C     0.17745   0.40689   0.20929   0.00000  Uiso   1.00
C21    C     0.16597   0.11683   0.25006   0.00000  Uiso   1.00
C22    C     0.16602   0.38332   0.24994   0.00000  Uiso   1.00
C23    C     0.14763   0.09358   0.20758   0.00000  Uiso   1.00
C24    C     0.15397   0.40623   0.29056   0.00000  Uiso   1.00
C25    C     0.14685   0.04767   0.20769   0.00000  Uiso   1.00
C26    C     0.15321   0.45213   0.29044   0.00000  Uiso   1.00
C27    C     0.16522   0.02440   0.25009   0.00000  Uiso   1.00
C28    C     0.16528   0.47581   0.24999   0.00000  Uiso   1.00
Cu29   Cu    0.16667   0.25000   0.29821   0.00000  Uiso   1.00
Cu30   Cu    0.16667   0.25001   0.20179   0.00000  Uiso   1.00
H31    H     0.32600   0.24921   0.19385   0.00000  Uiso   1.00
H32    H     0.00728   0.25233   0.30605   0.00000  Uiso   1.00
H33    H     0.19905   0.03073   0.32547   0.00000  Uiso   1.00
H34    H     0.18786   0.47022   0.17812   0.00000  Uiso   1.00
H35    H     0.19841   0.11116   0.32571   0.00000  Uiso   1.00
H36    H     0.18682   0.38992   0.17755   0.00000  Uiso   1.00
H37    H     0.13320   0.11088   0.17449   0.00000  Uiso   1.00
H38    H     0.14451   0.38871   0.32221   0.00000  Uiso   1.00
H39    H     0.13137   0.03042   0.17475   0.00000  Uiso   1.00
H40    H     0.14264   0.46904   0.32180   0.00000  Uiso   1.00
H41    H     0.23688   0.28801   0.04443   0.00000  Uiso   1.00
H42    H     0.12031   0.19035   0.45801   0.00000  Uiso   1.00
H43    H     0.09885   0.20829   0.02714   0.00000  Uiso   1.00
H44    H     0.21427   0.30865   0.46997   0.00000  Uiso   1.00
N45    N     0.16667   0.25001   0.12935   0.00000  Uiso   1.00
N46    N     0.16667   0.24999   0.37065   0.00000  Uiso   1.00
O47    O     0.16667   0.18573   0.29071   0.00000  Uiso   1.00
O48    O     0.16666   0.31428   0.20929   0.00000  Uiso   1.00
O49    O     0.16667   0.18573   0.20928   0.00000  Uiso   1.00
O50    O     0.16666   0.31427   0.29072   0.00000  Uiso   1.00
O51    O     0.09161   0.25000   0.28132   0.00000  Uiso   1.00
O52    O     0.24172   0.25001   0.21868   0.00000  Uiso   1.00
O53    O     0.09161   0.25000   0.19989   0.00000  Uiso   1.00
O54    O     0.24172   0.25000   0.30011   0.00000  Uiso   1.00
O55    O     0.24025   0.29715   0.14086   0.00000  Uiso   1.00
C56    C     0.25333   0.33840   0.12184   0.00000  Uiso   1.00
H57    H     0.27013   0.35982   0.15243   0.00000  Uiso   1.00
H58    H     0.21913   0.35569   0.10261   0.00000  Uiso   1.00
H59    H     0.28352   0.33443   0.09783   0.00000  Uiso   1.00
O60    O     0.10890   0.18876   0.36126   0.00000  Uiso   1.00
C61    C     0.05838   0.18351   0.37313   0.00000  Uiso   1.00
H62    H     0.03315   0.17069   0.34074   0.00000  Uiso   1.00
H63    H     0.04167   0.21523   0.38343   0.00000  Uiso   1.00
H64    H     0.05767   0.15864   0.40240   0.00000  Uiso   1.00
O65    O     0.09506   0.20050   0.12179   0.00000  Uiso   1.00
C66    C     0.04351   0.20913   0.10198   0.00000  Uiso   1.00
H67    H     0.01781   0.19733   0.12799   0.00000  Uiso   1.00
H68    H     0.03250   0.19038   0.06782   0.00000  Uiso   1.00
H69    H     0.03631   0.24509   0.09616   0.00000  Uiso   1.00
O70    O     0.22483   0.31112   0.37714   0.00000  Uiso   1.00
C71    C     0.27773   0.30651   0.39468   0.00000  Uiso   1.00
H72    H     0.30049   0.32504   0.37030   0.00000  Uiso   1.00
H73    H     0.29011   0.27142   0.39469   0.00000  Uiso   1.00
H74    H     0.28717   0.32101   0.43150   0.00000  Uiso   1.00
C75    C     0.49979   0.16502   0.25001   0.00000  Uiso   1.00
C76    C     0.49987   0.33504   0.24997   0.00000  Uiso   1.00
C77    C     0.53829   0.27242   0.05883   0.00000  Uiso   1.00
C78    C     0.47292   0.21743   0.44244   0.00000  Uiso   1.00
C79    C     0.53655   0.27421   0.10958   0.00000  Uiso   1.00
C80    C     0.47065   0.21943   0.39124   0.00000  Uiso   1.00
C81    C     0.46263   0.22678   0.10019   0.00000  Uiso   1.00
C82    C     0.52951   0.28019   0.39900   0.00000  Uiso   1.00
C83    C     0.46215   0.22672   0.04920   0.00000  Uiso   1.00
C84    C     0.52775   0.28177   0.44954   0.00000  Uiso   1.00
C85    C     0.50018   0.24960   0.02740   0.00000  Uiso   1.00
C86    C     0.50037   0.24952   0.47266   0.00000  Uiso   1.00
C87    C     0.40128   0.25008   0.23758   0.00000  Uiso   1.00
C88    C     0.59872   0.25034   0.26241   0.00000  Uiso   1.00
C89    C     0.34598   0.25011   0.23074   0.00000  Uiso   1.00
C90    C     0.65400   0.25102   0.26919   0.00000  Uiso   1.00
C91    C     0.51713   0.04783   0.29253   0.00000  Uiso   1.00
C92    C     0.51089   0.45279   0.20947   0.00000  Uiso   1.00
C93    C     0.51708   0.09374   0.29262   0.00000  Uiso   1.00
C94    C     0.51078   0.40689   0.20929   0.00000  Uiso   1.00
C95    C     0.49931   0.11683   0.25006   0.00000  Uiso   1.00
C96    C     0.49935   0.38332   0.24994   0.00000  Uiso   1.00
C97    C     0.48096   0.09358   0.20758   0.00000  Uiso   1.00
C98    C     0.48730   0.40623   0.29056   0.00000  Uiso   1.00
C99    C     0.48018   0.04767   0.20769   0.00000  Uiso   1.00
C100   C     0.48654   0.45213   0.29044   0.00000  Uiso   1.00
C101   C     0.49856   0.02440   0.25009   0.00000  Uiso   1.00
C102   C     0.49861   0.47581   0.24999   0.00000  Uiso   1.00
Cu103  Cu    0.50000   0.25000   0.29821   0.00000  Uiso   1.00
Cu104  Cu    0.50000   0.25001   0.20179   0.00000  Uiso   1.00
H105   H     0.65934   0.24921   0.19385   0.00000  Uiso   1.00
H106   H     0.34061   0.25233   0.30605   0.00000  Uiso   1.00
H107   H     0.53238   0.03073   0.32547   0.00000  Uiso   1.00
H108   H     0.52120   0.47022   0.17812   0.00000  Uiso   1.00
H109   H     0.53174   0.11116   0.32571   0.00000  Uiso   1.00
H110   H     0.52016   0.38992   0.17755   0.00000  Uiso   1.00
H111   H     0.46653   0.11088   0.17449   0.00000  Uiso   1.00
H112   H     0.47785   0.38871   0.32221   0.00000  Uiso   1.00
H113   H     0.46470   0.03042   0.17475   0.00000  Uiso   1.00
H114   H     0.47597   0.46904   0.32180   0.00000  Uiso   1.00
H115   H     0.57022   0.28801   0.04443   0.00000  Uiso   1.00
H116   H     0.45365   0.19035   0.45801   0.00000  Uiso   1.00
H117   H     0.43218   0.20829   0.02714   0.00000  Uiso   1.00
H118   H     0.54760   0.30865   0.46997   0.00000  Uiso   1.00
N119   N     0.50000   0.25001   0.12935   0.00000  Uiso   1.00
N120   N     0.50000   0.24999   0.37065   0.00000  Uiso   1.00
O121   O     0.50000   0.18573   0.29071   0.00000  Uiso   1.00
O122   O     0.50000   0.31428   0.20929   0.00000  Uiso   1.00
O123   O     0.50000   0.18573   0.20928   0.00000  Uiso   1.00
O124   O     0.50000   0.31427   0.29072   0.00000  Uiso   1.00
O125   O     0.42495   0.25000   0.28132   0.00000  Uiso   1.00
O126   O     0.57505   0.25001   0.21868   0.00000  Uiso   1.00
O127   O     0.42495   0.25000   0.19989   0.00000  Uiso   1.00
O128   O     0.57505   0.25000   0.30011   0.00000  Uiso   1.00
O129   O     0.57359   0.29715   0.14086   0.00000  Uiso   1.00
C130   C     0.58667   0.33840   0.12184   0.00000  Uiso   1.00
H131   H     0.60346   0.35982   0.15243   0.00000  Uiso   1.00
H132   H     0.55246   0.35569   0.10261   0.00000  Uiso   1.00
H133   H     0.61685   0.33443   0.09783   0.00000  Uiso   1.00
O134   O     0.44223   0.18876   0.36126   0.00000  Uiso   1.00
C135   C     0.39171   0.18351   0.37313   0.00000  Uiso   1.00
H136   H     0.36648   0.17069   0.34074   0.00000  Uiso   1.00
H137   H     0.37500   0.21523   0.38343   0.00000  Uiso   1.00
H138   H     0.39101   0.15864   0.40240   0.00000  Uiso   1.00
O139   O     0.42839   0.20050   0.12179   0.00000  Uiso   1.00
C140   C     0.37684   0.20913   0.10198   0.00000  Uiso   1.00
H141   H     0.35115   0.19733   0.12799   0.00000  Uiso   1.00
H142   H     0.36584   0.19038   0.06782   0.00000  Uiso   1.00
H143   H     0.36965   0.24509   0.09616   0.00000  Uiso   1.00
O144   O     0.55816   0.31112   0.37714   0.00000  Uiso   1.00
C145   C     0.61106   0.30651   0.39468   0.00000  Uiso   1.00
H146   H     0.63383   0.32504   0.37030   0.00000  Uiso   1.00
H147   H     0.62345   0.27142   0.39469   0.00000  Uiso   1.00
H148   H     0.62050   0.32101   0.43150   0.00000  Uiso   1.00
C149   C     0.83313   0.16502   0.25001   0.00000  Uiso   1.00
C150   C     0.83320   0.33504   0.24997   0.00000  Uiso   1.00
C151   C     0.87162   0.27242   0.05883   0.00000  Uiso   1.00
C152   C     0.80626   0.21743   0.44244   0.00000  Uiso   1.00
C153   C     0.86988   0.27421   0.10958   0.00000  Uiso   1.00
C154   C     0.80399   0.21943   0.39124   0.00000  Uiso   1.00
C155   C     0.79596   0.22678   0.10019   0.00000  Uiso   1.00
C156   C     0.86285   0.28019   0.39900   0.00000  Uiso   1.00
C157   C     0.79548   0.22672   0.04920   0.00000  Uiso   1.00
C158   C     0.86109   0.28177   0.44954   0.00000  Uiso   1.00
C159   C     0.83351   0.24960   0.02740   0.00000  Uiso   1.00
C160   C     0.83371   0.24952   0.47266   0.00000  Uiso   1.00
C161   C     0.73461   0.25008   0.23758   0.00000  Uiso   1.00
C162   C     0.93205   0.25034   0.26241   0.00000  Uiso   1.00
C163   C     0.67931   0.25011   0.23074   0.00000  Uiso   1.00
C164   C     0.98734   0.25102   0.26919   0.00000  Uiso   1.00
C165   C     0.85047   0.04783   0.29253   0.00000  Uiso   1.00
C166   C     0.84423   0.45279   0.20947   0.00000  Uiso   1.00
C167   C     0.85042   0.09374   0.29262   0.00000  Uiso   1.00
C168   C     0.84411   0.40689   0.20929   0.00000  Uiso   1.00
C169   C     0.83264   0.11683   0.25006   0.00000  Uiso   1.00
C170   C     0.83269   0.38332   0.24994   0.00000  Uiso   1.00
C171   C     0.81430   0.09358   0.20758   0.00000  Uiso   1.00
C172   C     0.82064   0.40623   0.29056   0.00000  Uiso   1.00
C173   C     0.81351   0.04767   0.20769   0.00000  Uiso   1.00
C174   C     0.81987   0.45213   0.29044   0.00000  Uiso   1.00
C175   C     0.83189   0.02440   0.25009   0.00000  Uiso   1.00
C176   C     0.83194   0.47581   0.24999   0.00000  Uiso   1.00
Cu177  Cu    0.83333   0.25000   0.29821   0.00000  Uiso   1.00
Cu178  Cu    0.83333   0.25001   0.20179   0.00000  Uiso   1.00
H179   H     0.99267   0.24921   0.19385   0.00000  Uiso   1.00
H180   H     0.67395   0.25233   0.30605   0.00000  Uiso   1.00
H181   H     0.86572   0.03073   0.32547   0.00000  Uiso   1.00
H182   H     0.85453   0.47022   0.17812   0.00000  Uiso   1.00
H183   H     0.86508   0.11116   0.32571   0.00000  Uiso   1.00
H184   H     0.85349   0.38992   0.17755   0.00000  Uiso   1.00
H185   H     0.79986   0.11088   0.17449   0.00000  Uiso   1.00
H186   H     0.81118   0.38871   0.32221   0.00000  Uiso   1.00
H187   H     0.79804   0.03042   0.17475   0.00000  Uiso   1.00
H188   H     0.80931   0.46904   0.32180   0.00000  Uiso   1.00
H189   H     0.90355   0.28801   0.04443   0.00000  Uiso   1.00
H190   H     0.78698   0.19035   0.45801   0.00000  Uiso   1.00
H191   H     0.76552   0.20829   0.02714   0.00000  Uiso   1.00
H192   H     0.88094   0.30865   0.46997   0.00000  Uiso   1.00
N193   N     0.83333   0.25001   0.12935   0.00000  Uiso   1.00
N194   N     0.83333   0.24999   0.37065   0.00000  Uiso   1.00
O195   O     0.83334   0.18573   0.29071   0.00000  Uiso   1.00
O196   O     0.83333   0.31428   0.20929   0.00000  Uiso   1.00
O197   O     0.83334   0.18573   0.20928   0.00000  Uiso   1.00
O198   O     0.83333   0.31427   0.29072   0.00000  Uiso   1.00
O199   O     0.75828   0.25000   0.28132   0.00000  Uiso   1.00
O200   O     0.90839   0.25001   0.21868   0.00000  Uiso   1.00
O201   O     0.75828   0.25000   0.19989   0.00000  Uiso   1.00
O202   O     0.90839   0.25000   0.30011   0.00000  Uiso   1.00
O203   O     0.90692   0.29715   0.14086   0.00000  Uiso   1.00
C204   C     0.92000   0.33840   0.12184   0.00000  Uiso   1.00
H205   H     0.93679   0.35982   0.15243   0.00000  Uiso   1.00
H206   H     0.88580   0.35569   0.10261   0.00000  Uiso   1.00
H207   H     0.95018   0.33443   0.09783   0.00000  Uiso   1.00
O208   O     0.77557   0.18876   0.36126   0.00000  Uiso   1.00
C209   C     0.72504   0.18351   0.37313   0.00000  Uiso   1.00
H210   H     0.69981   0.17069   0.34074   0.00000  Uiso   1.00
H211   H     0.70833   0.21523   0.38343   0.00000  Uiso   1.00
H212   H     0.72434   0.15864   0.40240   0.00000  Uiso   1.00
O213   O     0.76173   0.20050   0.12179   0.00000  Uiso   1.00
C214   C     0.71017   0.20913   0.10198   0.00000  Uiso   1.00
H215   H     0.68448   0.19733   0.12799   0.00000  Uiso   1.00
H216   H     0.69917   0.19038   0.06782   0.00000  Uiso   1.00
H217   H     0.70298   0.24509   0.09616   0.00000  Uiso   1.00
O218   O     0.89149   0.31112   0.37714   0.00000  Uiso   1.00
C219   C     0.94440   0.30651   0.39468   0.00000  Uiso   1.00
H220   H     0.96716   0.32504   0.37030   0.00000  Uiso   1.00
H221   H     0.95678   0.27142   0.39469   0.00000  Uiso   1.00
H222   H     0.95383   0.32101   0.43150   0.00000  Uiso   1.00
C223   C     0.16646   0.66502   0.25001   0.00000  Uiso   1.00
C224   C     0.16654   0.83504   0.24997   0.00000  Uiso   1.00
C225   C     0.20496   0.77242   0.05883   0.00000  Uiso   1.00
C226   C     0.13959   0.71743   0.44244   0.00000  Uiso   1.00
C227   C     0.20321   0.77421   0.10958   0.00000  Uiso   1.00
C228   C     0.13732   0.71943   0.39124   0.00000  Uiso   1.00
C229   C     0.12929   0.72678   0.10019   0.00000  Uiso   1.00
C230   C     0.19618   0.78019   0.39900   0.00000  Uiso   1.00
C231   C     0.12882   0.72672   0.04920   0.00000  Uiso   1.00
C232   C     0.19442   0.78177   0.44954   0.00000  Uiso   1.00
C233   C     0.16685   0.74960   0.02740   0.00000  Uiso   1.00
C234   C     0.16704   0.74952   0.47266   0.00000  Uiso   1.00
C235   C     0.06794   0.75008   0.23758   0.00000  Uiso   1.00
C236   C     0.26539   0.75034   0.26241   0.00000  Uiso   1.00
C237   C     0.01264   0.75011   0.23074   0.00000  Uiso   1.00
C238   C     0.32067   0.75102   0.26919   0.00000  Uiso   1.00
C239   C     0.18380   0.54783   0.29253   0.00000  Uiso   1.00
C240   C     0.17756   0.95279   0.20947   0.00000  Uiso   1.00
C241   C     0.18375   0.59374   0.29262   0.00000  Uiso   1.00
C242   C     0.17745   0.90689   0.20929   0.00000  Uiso   1.00
C243   C     0.16597   0.61683   0.25006   0.00000  Uiso   1.00
C244   C     0.16602   0.88332   0.24994   0.00000  Uiso   1.00
C245   C     0.14763   0.59358   0.20758   0.00000  Uiso   1.00
C246   C     0.15397   0.90623   0.29056   0.00000  Uiso   1.00
C247   C     0.14685   0.54767   0.20769   0.00000  Uiso   1.00
C248   C     0.15321   0.95213   0.29044   0.00000  Uiso   1.00
C249   C     0.16522   0.52440   0.25009   0.00000  Uiso   1.00
C250   C     0.16528   0.97581   0.24999   0.00000  Uiso   1.00
Cu251  Cu    0.16667   0.75000   0.29821   0.00000  Uiso   1.00
Cu252  Cu    0.16667   0.75001   0.20179   0.00000  Uiso   1.00
H253   H     0.32600   0.74921   0.19385   0.00000  Uiso   1.00
H254   H     0.00728   0.75233   0.30605   0.00000  Uiso   1.00
H255   H     0.19905   0.53073   0.32547   0.00000  Uiso   1.00
H256   H     0.18786   0.97022   0.17812   0.00000  Uiso   1.00
H257   H     0.19841   0.61116   0.32571   0.00000  Uiso   1.00
H258   H     0.18682   0.88992   0.17755   0.00000  Uiso   1.00
H259   H     0.13320   0.61088   0.17449   0.00000  Uiso   1.00
H260   H     0.14451   0.88871   0.32221   0.00000  Uiso   1.00
H261   H     0.13137   0.53042   0.17475   0.00000  Uiso   1.00
H262   H     0.14264   0.96904   0.32180   0.00000  Uiso   1.00
H263   H     0.23688   0.78801   0.04443   0.00000  Uiso   1.00
H264   H     0.12031   0.69035   0.45801   0.00000  Uiso   1.00
H265   H     0.09885   0.70829   0.02714   0.00000  Uiso   1.00
H266   H     0.21427   0.80865   0.46997   0.00000  Uiso   1.00
N267   N     0.16667   0.75001   0.12935   0.00000  Uiso   1.00
N268   N     0.16667   0.74999   0.37065   0.00000  Uiso   1.00
O269   O     0.16667   0.68573   0.29071   0.00000  Uiso   1.00
O270   O     0.16666   0.81428   0.20929   0.00000  Uiso   1.00
O271   O     0.16667   0.68573   0.20928   0.00000  Uiso   1.00
O272   O     0.16666   0.81427   0.29072   0.00000  Uiso   1.00
O273   O     0.09161   0.75000   0.28132   0.00000  Uiso   1.00
O274   O     0.24172   0.75001   0.21868   0.00000  Uiso   1.00
O275   O     0.09161   0.75000   0.19989   0.00000  Uiso   1.00
O276   O     0.24172   0.75000   0.30011   0.00000  Uiso   1.00
O277   O     0.24025   0.79715   0.14086   0.00000  Uiso   1.00
C278   C     0.25333   0.83840   0.12184   0.00000  Uiso   1.00
H279   H     0.27013   0.85982   0.15243   0.00000  Uiso   1.00
H280   H     0.21913   0.85569   0.10261   0.00000  Uiso   1.00
H281   H     0.28352   0.83443   0.09783   0.00000  Uiso   1.00
O282   O     0.10890   0.68876   0.36126   0.00000  Uiso   1.00
C283   C     0.05838   0.68351   0.37313   0.00000  Uiso   1.00
H284   H     0.03315   0.67069   0.34074   0.00000  Uiso   1.00
H285   H     0.04167   0.71523   0.38343   0.00000  Uiso   1.00
H286   H     0.05767   0.65864   0.40240   0.00000  Uiso   1.00
O287   O     0.09506   0.70050   0.12179   0.00000  Uiso   1.00
C288   C     0.04351   0.70913   0.10198   0.00000  Uiso   1.00
H289   H     0.01781   0.69733   0.12799   0.00000  Uiso   1.00
H290   H     0.03250   0.69038   0.06782   0.00000  Uiso   1.00
H291   H     0.03631   0.74509   0.09616   0.00000  Uiso   1.00
O292   O     0.22483   0.81112   0.37714   0.00000  Uiso   1.00
C293   C     0.27773   0.80651   0.39468   0.00000  Uiso   1.00
H294   H     0.30049   0.82504   0.37030   0.00000  Uiso   1.00
H295   H     0.29011   0.77142   0.39469   0.00000  Uiso   1.00
H296   H     0.28717   0.82101   0.43150   0.00000  Uiso   1.00
C297   C     0.49979   0.66502   0.25001   0.00000  Uiso   1.00
C298   C     0.49987   0.83504   0.24997   0.00000  Uiso   1.00
C299   C     0.53829   0.77242   0.05883   0.00000  Uiso   1.00
C300   C     0.47292   0.71743   0.44244   0.00000  Uiso   1.00
C301   C     0.53655   0.77421   0.10958   0.00000  Uiso   1.00
C302   C     0.47065   0.71943   0.39124   0.00000  Uiso   1.00
C303   C     0.46263   0.72678   0.10019   0.00000  Uiso   1.00
C304   C     0.52951   0.78019   0.39900   0.00000  Uiso   1.00
C305   C     0.46215   0.72672   0.04920   0.00000  Uiso   1.00
C306   C     0.52775   0.78177   0.44954   0.00000  Uiso   1.00
C307   C     0.50018   0.74960   0.02740   0.00000  Uiso   1.00
C308   C     0.50037   0.74952   0.47266   0.00000  Uiso   1.00
C309   C     0.40128   0.75008   0.23758   0.00000  Uiso   1.00
C310   C     0.59872   0.75034   0.26241   0.00000  Uiso   1.00
C311   C     0.34598   0.75011   0.23074   0.00000  Uiso   1.00
C312   C     0.65400   0.75102   0.26919   0.00000  Uiso   1.00
C313   C     0.51713   0.54783   0.29253   0.00000  Uiso   1.00
C314   C     0.51089   0.95279   0.20947   0.00000  Uiso   1.00
C315   C     0.51708   0.59374   0.29262   0.00000  Uiso   1.00
C316   C     0.51078   0.90689   0.20929   0.00000  Uiso   1.00
C317   C     0.49931   0.61683   0.25006   0.00000  Uiso   1.00
C318   C     0.49935   0.88332   0.24994   0.00000  Uiso   1.00
C319   C     0.48096   0.59358   0.20758   0.00000  Uiso   1.00
C320   C     0.48730   0.90623   0.29056   0.00000  Uiso   1.00
C321   C     0.48018   0.54767   0.20769   0.00000  Uiso   1.00
C322   C     0.48654   0.95213   0.29044   0.00000  Uiso   1.00
C323   C     0.49856   0.52440   0.25009   0.00000  Uiso   1.00
C324   C     0.49861   0.97581   0.24999   0.00000  Uiso   1.00
Cu325  Cu    0.50000   0.75000   0.29821   0.00000  Uiso   1.00
Cu326  Cu    0.50000   0.75001   0.20179   0.00000  Uiso   1.00
H327   H     0.65934   0.74921   0.19385   0.00000  Uiso   1.00
H328   H     0.34061   0.75233   0.30605   0.00000  Uiso   1.00
H329   H     0.53238   0.53073   0.32547   0.00000  Uiso   1.00
H330   H     0.52120   0.97022   0.17812   0.00000  Uiso   1.00
H331   H     0.53174   0.61116   0.32571   0.00000  Uiso   1.00
H332   H     0.52016   0.88992   0.17755   0.00000  Uiso   1.00
H333   H     0.46653   0.61088   0.17449   0.00000  Uiso   1.00
H334   H     0.47785   0.88871   0.32221   0.00000  Uiso   1.00
H335   H     0.46470   0.53042   0.17475   0.00000  Uiso   1.00
H336   H     0.47597   0.96904   0.32180   0.00000  Uiso   1.00
H337   H     0.57022   0.78801   0.04443   0.00000  Uiso   1.00
H338   H     0.45365   0.69035   0.45801   0.00000  Uiso   1.00
H339   H     0.43218   0.70829   0.02714   0.00000  Uiso   1.00
H340   H     0.54760   0.80865   0.46997   0.00000  Uiso   1.00
N341   N     0.50000   0.75001   0.12935   0.00000  Uiso   1.00
N342   N     0.50000   0.74999   0.37065   0.00000  Uiso   1.00
O343   O     0.50000   0.68573   0.29071   0.00000  Uiso   1.00
O344   O     0.50000   0.81428   0.20929   0.00000  Uiso   1.00
O345   O     0.50000   0.68573   0.20928   0.00000  Uiso   1.00
O346   O     0.50000   0.81427   0.29072   0.00000  Uiso   1.00
O347   O     0.42495   0.75000   0.28132   0.00000  Uiso   1.00
O348   O     0.57505   0.75001   0.21868   0.00000  Uiso   1.00
O349   O     0.42495   0.75000   0.19989   0.00000  Uiso   1.00
O350   O     0.57505   0.75000   0.30011   0.00000  Uiso   1.00
O351   O     0.57359   0.79715   0.14086   0.00000  Uiso   1.00
C352   C     0.58667   0.83840   0.12184   0.00000  Uiso   1.00
H353   H     0.60346   0.85982   0.15243   0.00000  Uiso   1.00
H354   H     0.55246   0.85569   0.10261   0.00000  Uiso   1.00
H355   H     0.61685   0.83443   0.09783   0.00000  Uiso   1.00
O356   O     0.44223   0.68876   0.36126   0.00000  Uiso   1.00
C357   C     0.39171   0.68351   0.37313   0.00000  Uiso   1.00
H358   H     0.36648   0.67069   0.34074   0.00000  Uiso   1.00
H359   H     0.37500   0.71523   0.38343   0.00000  Uiso   1.00
H360   H     0.39101   0.65864   0.40240   0.00000  Uiso   1.00
O361   O     0.42839   0.70050   0.12179   0.00000  Uiso   1.00
C362   C     0.37684   0.70913   0.10198   0.00000  Uiso   1.00
H363   H     0.35115   0.69733   0.12799   0.00000  Uiso   1.00
H364   H     0.36584   0.69038   0.06782   0.00000  Uiso   1.00
H365   H     0.36965   0.74509   0.09616   0.00000  Uiso   1.00
O366   O     0.55816   0.81112   0.37714   0.00000  Uiso   1.00
C367   C     0.61106   0.80651   0.39468   0.00000  Uiso   1.00
H368   H     0.63383   0.82504   0.37030   0.00000  Uiso   1.00
H369   H     0.62345   0.77142   0.39469   0.00000  Uiso   1.00
H370   H     0.62050   0.82101   0.43150   0.00000  Uiso   1.00
C371   C     0.83313   0.66502   0.25001   0.00000  Uiso   1.00
C372   C     0.83320   0.83504   0.24997   0.00000  Uiso   1.00
C373   C     0.87162   0.77242   0.05883   0.00000  Uiso   1.00
C374   C     0.80626   0.71743   0.44244   0.00000  Uiso   1.00
C375   C     0.86988   0.77421   0.10958   0.00000  Uiso   1.00
C376   C     0.80399   0.71943   0.39124   0.00000  Uiso   1.00
C377   C     0.79596   0.72678   0.10019   0.00000  Uiso   1.00
C378   C     0.86285   0.78019   0.39900   0.00000  Uiso   1.00
C379   C     0.79548   0.72672   0.04920   0.00000  Uiso   1.00
C380   C     0.86109   0.78177   0.44954   0.00000  Uiso   1.00
C381   C     0.83351   0.74960   0.02740   0.00000  Uiso   1.00
C382   C     0.83371   0.74952   0.47266   0.00000  Uiso   1.00
C383   C     0.73461   0.75008   0.23758   0.00000  Uiso   1.00
C384   C     0.93205   0.75034   0.26241   0.00000  Uiso   1.00
C385   C     0.67931   0.75011   0.23074   0.00000  Uiso   1.00
C386   C     0.98734   0.75102   0.26919   0.00000  Uiso   1.00
C387   C     0.85047   0.54783   0.29253   0.00000  Uiso   1.00
C388   C     0.84423   0.95279   0.20947   0.00000  Uiso   1.00
C389   C     0.85042   0.59374   0.29262   0.00000  Uiso   1.00
C390   C     0.84411   0.90689   0.20929   0.00000  Uiso   1.00
C391   C     0.83264   0.61683   0.25006   0.00000  Uiso   1.00
C392   C     0.83269   0.88332   0.24994   0.00000  Uiso   1.00
C393   C     0.81430   0.59358   0.20758   0.00000  Uiso   1.00
C394   C     0.82064   0.90623   0.29056   0.00000  Uiso   1.00
C395   C     0.81351   0.54767   0.20769   0.00000  Uiso   1.00
C396   C     0.81987   0.95213   0.29044   0.00000  Uiso   1.00
C397   C     0.83189   0.52440   0.25009   0.00000  Uiso   1.00
C398   C     0.83194   0.97581   0.24999   0.00000  Uiso   1.00
Cu399  Cu    0.83333   0.75000   0.29821   0.00000  Uiso   1.00
Cu400  Cu    0.83333   0.75001   0.20179   0.00000  Uiso   1.00
H401   H     0.99267   0.74921   0.19385   0.00000  Uiso   1.00
H402   H     0.67395   0.75233   0.30605   0.00000  Uiso   1.00
H403   H     0.86572   0.53073   0.32547   0.00000  Uiso   1.00
H404   H     0.85453   0.97022   0.17812   0.00000  Uiso   1.00
H405   H     0.86508   0.61116   0.32571   0.00000  Uiso   1.00
H406   H     0.85349   0.88992   0.17755   0.00000  Uiso   1.00
H407   H     0.79986   0.61088   0.17449   0.00000  Uiso   1.00
H408   H     0.81118   0.88871   0.32221   0.00000  Uiso   1.00
H409   H     0.79804   0.53042   0.17475   0.00000  Uiso   1.00
H410   H     0.80931   0.96904   0.32180   0.00000  Uiso   1.00
H411   H     0.90355   0.78801   0.04443   0.00000  Uiso   1.00
H412   H     0.78698   0.69035   0.45801   0.00000  Uiso   1.00
H413   H     0.76552   0.70829   0.02714   0.00000  Uiso   1.00
H414   H     0.88094   0.80865   0.46997   0.00000  Uiso   1.00
N415   N     0.83333   0.75001   0.12935   0.00000  Uiso   1.00
N416   N     0.83333   0.74999   0.37065   0.00000  Uiso   1.00
O417   O     0.83334   0.68573   0.29071   0.00000  Uiso   1.00
O418   O     0.83333   0.81428   0.20929   0.00000  Uiso   1.00
O419   O     0.83334   0.68573   0.20928   0.00000  Uiso   1.00
O420   O     0.83333   0.81427   0.29072   0.00000  Uiso   1.00
O421   O     0.75828   0.75000   0.28132   0.00000  Uiso   1.00
O422   O     0.90839   0.75001   0.21868   0.00000  Uiso   1.00
O423   O     0.75828   0.75000   0.19989   0.00000  Uiso   1.00
O424   O     0.90839   0.75000   0.30011   0.00000  Uiso   1.00
O425   O     0.90692   0.79715   0.14086   0.00000  Uiso   1.00
C426   C     0.92000   0.83840   0.12184   0.00000  Uiso   1.00
H427   H     0.93679   0.85982   0.15243   0.00000  Uiso   1.00
H428   H     0.88580   0.85569   0.10261   0.00000  Uiso   1.00
H429   H     0.95018   0.83443   0.09783   0.00000  Uiso   1.00
O430   O     0.77557   0.68876   0.36126   0.00000  Uiso   1.00
C431   C     0.72504   0.68351   0.37313   0.00000  Uiso   1.00
H432   H     0.69981   0.67069   0.34074   0.00000  Uiso   1.00
H433   H     0.70833   0.71523   0.38343   0.00000  Uiso   1.00
H434   H     0.72434   0.65864   0.40240   0.00000  Uiso   1.00
O435   O     0.76173   0.70050   0.12179   0.00000  Uiso   1.00
C436   C     0.71017   0.70913   0.10198   0.00000  Uiso   1.00
H437   H     0.68448   0.69733   0.12799   0.00000  Uiso   1.00
H438   H     0.69917   0.69038   0.06782   0.00000  Uiso   1.00
H439   H     0.70298   0.74509   0.09616   0.00000  Uiso   1.00
O440   O     0.89149   0.81112   0.37714   0.00000  Uiso   1.00
C441   C     0.94440   0.80651   0.39468   0.00000  Uiso   1.00
H442   H     0.96716   0.82504   0.37030   0.00000  Uiso   1.00
H443   H     0.95678   0.77142   0.39469   0.00000  Uiso   1.00
H444   H     0.95383   0.82101   0.43150   0.00000  Uiso   1.00
C445   C     0.16646   0.16502   0.75001   0.00000  Uiso   1.00
C446   C     0.16654   0.33504   0.74997   0.00000  Uiso   1.00
C447   C     0.20496   0.27242   0.55883   0.00000  Uiso   1.00
C448   C     0.13959   0.21743   0.94244   0.00000  Uiso   1.00
C449   C     0.20321   0.27421   0.60958   0.00000  Uiso   1.00
C450   C     0.13732   0.21943   0.89124   0.00000  Uiso   1.00
C451   C     0.12929   0.22678   0.60019   0.00000  Uiso   1.00
C452   C     0.19618   0.28019   0.89900   0.00000  Uiso   1.00
C453   C     0.12882   0.22672   0.54920   0.00000  Uiso   1.00
C454   C     0.19442   0.28177   0.94954   0.00000  Uiso   1.00
C455   C     0.16685   0.24960   0.52740   0.00000  Uiso   1.00
C456   C     0.16704   0.24952   0.97266   0.00000  Uiso   1.00
C457   C     0.06794   0.25008   0.73758   0.00000  Uiso   1.00
C458   C     0.26539   0.25034   0.76241   0.00000  Uiso   1.00
C459   C     0.01264   0.25011   0.73074   0.00000  Uiso   1.00
C460   C     0.32067   0.25102   0.76919   0.00000  Uiso   1.00
C461   C     0.18380   0.04783   0.79253   0.00000  Uiso   1.00
C462   C     0.17756   0.45279   0.70947   0.00000  Uiso   1.00
C463   C     0.18375   0.09374   0.79262   0.00000  Uiso   1.00
C464   C     0.17745   0.40689   0.70929   0.00000  Uiso   1.00
C465   C     0.16597   0.11683   0.75006   0.00000  Uiso   1.00
C466   C     0.16602   0.38332   0.74994   0.00000  Uiso   1.00
C467   C     0.14763   0.09358   0.70758   0.00000  Uiso   1.00
C468   C     0.15397   0.40623   0.79056   0.00000  Uiso   1.00
C469   C     0.14685   0.04767   0.70769   0.00000  Uiso   1.00
C470   C     0.15321   0.45213   0.79044   0.00000  Uiso   1.00
C471   C     0.16522   0.02440   0.75009   0.00000  Uiso   1.00
C472   C     0.16528   0.47581   0.74999   0.00000  Uiso   1.00
Cu473  Cu    0.16667   0.25000   0.79821   0.00000  Uiso   1.00
Cu474  Cu    0.16667   0.25001   0.70179   0.00000  Uiso   1.00
H475   H     0.32600   0.24921   0.69385   0.00000  Uiso   1.00
H476   H     0.00728   0.25233   0.80605   0.00000  Uiso   1.00
H477   H     0.19905   0.03073   0.82547   0.00000  Uiso   1.00
H478   H     0.18786   0.47022   0.67812   0.00000  Uiso   1.00
H479   H     0.19841   0.11116   0.82571   0.00000  Uiso   1.00
H480   H     0.18682   0.38992   0.67755   0.00000  Uiso   1.00
H481   H     0.13320   0.11088   0.67449   0.00000  Uiso   1.00
H482   H     0.14451   0.38871   0.82221   0.00000  Uiso   1.00
H483   H     0.13137   0.03042   0.67475   0.00000  Uiso   1.00
H484   H     0.14264   0.46904   0.82180   0.00000  Uiso   1.00
H485   H     0.23688   0.28801   0.54443   0.00000  Uiso   1.00
H486   H     0.12031   0.19035   0.95801   0.00000  Uiso   1.00
H487   H     0.09885   0.20829   0.52714   0.00000  Uiso   1.00
H488   H     0.21427   0.30865   0.96997   0.00000  Uiso   1.00
N489   N     0.16667   0.25001   0.62935   0.00000  Uiso   1.00
N490   N     0.16667   0.24999   0.87065   0.00000  Uiso   1.00
O491   O     0.16667   0.18573   0.79071   0.00000  Uiso   1.00
O492   O     0.16666   0.31428   0.70929   0.00000  Uiso   1.00
O493   O     0.16667   0.18573   0.70928   0.00000  Uiso   1.00
O494   O     0.16666   0.31427   0.79072   0.00000  Uiso   1.00
O495   O     0.09161   0.25000   0.78132   0.00000  Uiso   1.00
O496   O     0.24172   0.25001   0.71868   0.00000  Uiso   1.00
O497   O     0.09161   0.25000   0.69989   0.00000  Uiso   1.00
O498   O     0.24172   0.25000   0.80011   0.00000  Uiso   1.00
O499   O     0.24025   0.29715   0.64086   0.00000  Uiso   1.00
C500   C     0.25333   0.33840   0.62184   0.00000  Uiso   1.00
H501   H     0.27013   0.35982   0.65243   0.00000  Uiso   1.00
H502   H     0.21913   0.35569   0.60261   0.00000  Uiso   1.00
H503   H     0.28352   0.33443   0.59783   0.00000  Uiso   1.00
O504   O     0.10890   0.18876   0.86126   0.00000  Uiso   1.00
C505   C     0.05838   0.18351   0.87313   0.00000  Uiso   1.00
H506   H     0.03315   0.17069   0.84074   0.00000  Uiso   1.00
H507   H     0.04167   0.21523   0.88343   0.00000  Uiso   1.00
H508   H     0.05767   0.15864   0.90240   0.00000  Uiso   1.00
O509   O     0.09506   0.20050   0.62179   0.00000  Uiso   1.00
C510   C     0.04351   0.20913   0.60198   0.00000  Uiso   1.00
H511   H     0.01781   0.19733   0.62799   0.00000  Uiso   1.00
H512   H     0.03250   0.19038   0.56782   0.00000  Uiso   1.00
H513   H     0.03631   0.24509   0.59616   0.00000  Uiso   1.00
O514   O     0.22483   0.31112   0.87714   0.00000  Uiso   1.00
C515   C     0.27773   0.30651   0.89468   0.00000  Uiso   1.00
H516   H     0.30049   0.32504   0.87030   0.00000  Uiso   1.00
H517   H     0.29011   0.27142   0.89469   0.00000  Uiso   1.00
H518   H     0.28717   0.32101   0.93150   0.00000  Uiso   1.00
C519   C     0.49979   0.16502   0.75001   0.00000  Uiso   1.00
C520   C     0.49987   0.33504   0.74997   0.00000  Uiso   1.00
C521   C     0.53829   0.27242   0.55883   0.00000  Uiso   1.00
C522   C     0.47292   0.21743   0.94244   0.00000  Uiso   1.00
C523   C     0.53655   0.27421   0.60958   0.00000  Uiso   1.00
C524   C     0.47065   0.21943   0.89124   0.00000  Uiso   1.00
C525   C     0.46263   0.22678   0.60019   0.00000  Uiso   1.00
C526   C     0.52951   0.28019   0.89900   0.00000  Uiso   1.00
C527   C     0.46215   0.22672   0.54920   0.00000  Uiso   1.00
C528   C     0.52775   0.28177   0.94954   0.00000  Uiso   1.00
C529   C     0.50018   0.24960   0.52740   0.00000  Uiso   1.00
C530   C     0.50037   0.24952   0.97266   0.00000  Uiso   1.00
C531   C     0.40128   0.25008   0.73758   0.00000  Uiso   1.00
C532   C     0.59872   0.25034   0.76241   0.00000  Uiso   1.00
C533   C     0.34598   0.25011   0.73074   0.00000  Uiso   1.00
C534   C     0.65400   0.25102   0.76919   0.00000  Uiso   1.00
C535   C     0.51713   0.04783   0.79253   0.00000  Uiso   1.00
C536   C     0.51089   0.45279   0.70947   0.00000  Uiso   1.00
C537   C     0.51708   0.09374   0.79262   0.00000  Uiso   1.00
C538   C     0.51078   0.40689   0.70929   0.00000  Uiso   1.00
C539   C     0.49931   0.11683   0.75006   0.00000  Uiso   1.00
C540   C     0.49935   0.38332   0.74994   0.00000  Uiso   1.00
C541   C     0.48096   0.09358   0.70758   0.00000  Uiso   1.00
C542   C     0.48730   0.40623   0.79056   0.00000  Uiso   1.00
C543   C     0.48018   0.04767   0.70769   0.00000  Uiso   1.00
C544   C     0.48654   0.45213   0.79044   0.00000  Uiso   1.00
C545   C     0.49856   0.02440   0.75009   0.00000  Uiso   1.00
C546   C     0.49861   0.47581   0.74999   0.00000  Uiso   1.00
Cu547  Cu    0.50000   0.25000   0.79821   0.00000  Uiso   1.00
Cu548  Cu    0.50000   0.25001   0.70179   0.00000  Uiso   1.00
H549   H     0.65934   0.24921   0.69385   0.00000  Uiso   1.00
H550   H     0.34061   0.25233   0.80605   0.00000  Uiso   1.00
H551   H     0.53238   0.03073   0.82547   0.00000  Uiso   1.00
H552   H     0.52120   0.47022   0.67812   0.00000  Uiso   1.00
H553   H     0.53174   0.11116   0.82571   0.00000  Uiso   1.00
H554   H     0.52016   0.38992   0.67755   0.00000  Uiso   1.00
H555   H     0.46653   0.11088   0.67449   0.00000  Uiso   1.00
H556   H     0.47785   0.38871   0.82221   0.00000  Uiso   1.00
H557   H     0.46470   0.03042   0.67475   0.00000  Uiso   1.00
H558   H     0.47597   0.46904   0.82180   0.00000  Uiso   1.00
H559   H     0.57022   0.28801   0.54443   0.00000  Uiso   1.00
H560   H     0.45365   0.19035   0.95801   0.00000  Uiso   1.00
H561   H     0.43218   0.20829   0.52714   0.00000  Uiso   1.00
H562   H     0.54760   0.30865   0.96997   0.00000  Uiso   1.00
N563   N     0.50000   0.25001   0.62935   0.00000  Uiso   1.00
N564   N     0.50000   0.24999   0.87065   0.00000  Uiso   1.00
O565   O     0.50000   0.18573   0.79071   0.00000  Uiso   1.00
O566   O     0.50000   0.31428   0.70929   0.00000  Uiso   1.00
O567   O     0.50000   0.18573   0.70928   0.00000  Uiso   1.00
O568   O     0.50000   0.31427   0.79072   0.00000  Uiso   1.00
O569   O     0.42495   0.25000   0.78132   0.00000  Uiso   1.00
O570   O     0.57505   0.25001   0.71868   0.00000  Uiso   1.00
O571   O     0.42495   0.25000   0.69989   0.00000  Uiso   1.00
O572   O     0.57505   0.25000   0.80011   0.00000  Uiso   1.00
O573   O     0.57359   0.29715   0.64086   0.00000  Uiso   1.00
C574   C     0.58667   0.33840   0.62184   0.00000  Uiso   1.00
H575   H     0.60346   0.35982   0.65243   0.00000  Uiso   1.00
H576   H     0.55246   0.35569   0.60261   0.00000  Uiso   1.00
H577   H     0.61685   0.33443   0.59783   0.00000  Uiso   1.00
O578   O     0.44223   0.18876   0.86126   0.00000  Uiso   1.00
C579   C     0.39171   0.18351   0.87313   0.00000  Uiso   1.00
H580   H     0.36648   0.17069   0.84074   0.00000  Uiso   1.00
H581   H     0.37500   0.21523   0.88343   0.00000  Uiso   1.00
H582   H     0.39101   0.15864   0.90240   0.00000  Uiso   1.00
O583   O     0.42839   0.20050   0.62179   0.00000  Uiso   1.00
C584   C     0.37684   0.20913   0.60198   0.00000  Uiso   1.00
H585   H     0.35115   0.19733   0.62799   0.00000  Uiso   1.00
H586   H     0.36584   0.19038   0.56782   0.00000  Uiso   1.00
H587   H     0.36965   0.24509   0.59616   0.00000  Uiso   1.00
O588   O     0.55816   0.31112   0.87714   0.00000  Uiso   1.00
C589   C     0.61106   0.30651   0.89468   0.00000  Uiso   1.00
H590   H     0.63383   0.32504   0.87030   0.00000  Uiso   1.00
H591   H     0.62345   0.27142   0.89469   0.00000  Uiso   1.00
H592   H     0.62050   0.32101   0.93150   0.00000  Uiso   1.00
C593   C     0.83313   0.16502   0.75001   0.00000  Uiso   1.00
C594   C     0.83320   0.33504   0.74997   0.00000  Uiso   1.00
C595   C     0.87162   0.27242   0.55883   0.00000  Uiso   1.00
C596   C     0.80626   0.21743   0.94244   0.00000  Uiso   1.00
C597   C     0.86988   0.27421   0.60958   0.00000  Uiso   1.00
C598   C     0.80399   0.21943   0.89124   0.00000  Uiso   1.00
C599   C     0.79596   0.22678   0.60019   0.00000  Uiso   1.00
C600   C     0.86285   0.28019   0.89900   0.00000  Uiso   1.00
C601   C     0.79548   0.22672   0.54920   0.00000  Uiso   1.00
C602   C     0.86109   0.28177   0.94954   0.00000  Uiso   1.00
C603   C     0.83351   0.24960   0.52740   0.00000  Uiso   1.00
C604   C     0.83371   0.24952   0.97266   0.00000  Uiso   1.00
C605   C     0.73461   0.25008   0.73758   0.00000  Uiso   1.00
C606   C     0.93205   0.25034   0.76241   0.00000  Uiso   1.00
C607   C     0.67931   0.25011   0.73074   0.00000  Uiso   1.00
C608   C     0.98734   0.25102   0.76919   0.00000  Uiso   1.00
C609   C     0.85047   0.04783   0.79253   0.00000  Uiso   1.00
C610   C     0.84423   0.45279   0.70947   0.00000  Uiso   1.00
C611   C     0.85042   0.09374   0.79262   0.00000  Uiso   1.00
C612   C     0.84411   0.40689   0.70929   0.00000  Uiso   1.00
C613   C     0.83264   0.11683   0.75006   0.00000  Uiso   1.00
C614   C     0.83269   0.38332   0.74994   0.00000  Uiso   1.00
C615   C     0.81430   0.09358   0.70758   0.00000  Uiso   1.00
C616   C     0.82064   0.40623   0.79056   0.00000  Uiso   1.00
C617   C     0.81351   0.04767   0.70769   0.00000  Uiso   1.00
C618   C     0.81987   0.45213   0.79044   0.00000  Uiso   1.00
C619   C     0.83189   0.02440   0.75009   0.00000  Uiso   1.00
C620   C     0.83194   0.47581   0.74999   0.00000  Uiso   1.00
Cu621  Cu    0.83333   0.25000   0.79821   0.00000  Uiso   1.00
Cu622  Cu    0.83333   0.25001   0.70179   0.00000  Uiso   1.00
H623   H     0.99267   0.24921   0.69385   0.00000  Uiso   1.00
H624   H     0.67395   0.25233   0.80605   0.00000  Uiso   1.00
H625   H     0.86572   0.03073   0.82547   0.00000  Uiso   1.00
H626   H     0.85453   0.47022   0.67812   0.00000  Uiso   1.00
H627   H     0.86508   0.11116   0.82571   0.00000  Uiso   1.00
H628   H     0.85349   0.38992   0.67755   0.00000  Uiso   1.00
H629   H     0.79986   0.11088   0.67449   0.00000  Uiso   1.00
H630   H     0.81118   0.38871   0.82221   0.00000  Uiso   1.00
H631   H     0.79804   0.03042   0.67475   0.00000  Uiso   1.00
H632   H     0.80931   0.46904   0.82180   0.00000  Uiso   1.00
H633   H     0.90355   0.28801   0.54443   0.00000  Uiso   1.00
H634   H     0.78698   0.19035   0.95801   0.00000  Uiso   1.00
H635   H     0.76552   0.20829   0.52714   0.00000  Uiso   1.00
H636   H     0.88094   0.30865   0.96997   0.00000  Uiso   1.00
N637   N     0.83333   0.25001   0.62935   0.00000  Uiso   1.00
N638   N     0.83333   0.24999   0.87065   0.00000  Uiso   1.00
O639   O     0.83334   0.18573   0.79071   0.00000  Uiso   1.00
O640   O     0.83333   0.31428   0.70929   0.00000  Uiso   1.00
O641   O     0.83334   0.18573   0.70928   0.00000  Uiso   1.00
O642   O     0.83333   0.31427   0.79072   0.00000  Uiso   1.00
O643   O     0.75828   0.25000   0.78132   0.00000  Uiso   1.00
O644   O     0.90839   0.25001   0.71868   0.00000  Uiso   1.00
O645   O     0.75828   0.25000   0.69989   0.00000  Uiso   1.00
O646   O     0.90839   0.25000   0.80011   0.00000  Uiso   1.00
O647   O     0.90692   0.29715   0.64086   0.00000  Uiso   1.00
C648   C     0.92000   0.33840   0.62184   0.00000  Uiso   1.00
H649   H     0.93679   0.35982   0.65243   0.00000  Uiso   1.00
H650   H     0.88580   0.35569   0.60261   0.00000  Uiso   1.00
H651   H     0.95018   0.33443   0.59783   0.00000  Uiso   1.00
O652   O     0.77557   0.18876   0.86126   0.00000  Uiso   1.00
C653   C     0.72504   0.18351   0.87313   0.00000  Uiso   1.00
H654   H     0.69981   0.17069   0.84074   0.00000  Uiso   1.00
H655   H     0.70833   0.21523   0.88343   0.00000  Uiso   1.00
H656   H     0.72434   0.15864   0.90240   0.00000  Uiso   1.00
O657   O     0.76173   0.20050   0.62179   0.00000  Uiso   1.00
C658   C     0.71017   0.20913   0.60198   0.00000  Uiso   1.00
H659   H     0.68448   0.19733   0.62799   0.00000  Uiso   1.00
H660   H     0.69917   0.19038   0.56782   0.00000  Uiso   1.00
H661   H     0.70298   0.24509   0.59616   0.00000  Uiso   1.00
O662   O     0.89149   0.31112   0.87714   0.00000  Uiso   1.00
C663   C     0.94440   0.30651   0.89468   0.00000  Uiso   1.00
H664   H     0.96716   0.32504   0.87030   0.00000  Uiso   1.00
H665   H     0.95678   0.27142   0.89469   0.00000  Uiso   1.00
H666   H     0.95383   0.32101   0.93150   0.00000  Uiso   1.00
C667   C     0.16646   0.66502   0.75001   0.00000  Uiso   1.00
C668   C     0.16654   0.83504   0.74997   0.00000  Uiso   1.00
C669   C     0.20496   0.77242   0.55883   0.00000  Uiso   1.00
C670   C     0.13959   0.71743   0.94244   0.00000  Uiso   1.00
C671   C     0.20321   0.77421   0.60958   0.00000  Uiso   1.00
C672   C     0.13732   0.71943   0.89124   0.00000  Uiso   1.00
C673   C     0.12929   0.72678   0.60019   0.00000  Uiso   1.00
C674   C     0.19618   0.78019   0.89900   0.00000  Uiso   1.00
C675   C     0.12882   0.72672   0.54920   0.00000  Uiso   1.00
C676   C     0.19442   0.78177   0.94954   0.00000  Uiso   1.00
C677   C     0.16685   0.74960   0.52740   0.00000  Uiso   1.00
C678   C     0.16704   0.74952   0.97266   0.00000  Uiso   1.00
C679   C     0.06794   0.75008   0.73758   0.00000  Uiso   1.00
C680   C     0.26539   0.75034   0.76241   0.00000  Uiso   1.00
C681   C     0.01264   0.75011   0.73074   0.00000  Uiso   1.00
C682   C     0.32067   0.75102   0.76919   0.00000  Uiso   1.00
C683   C     0.18380   0.54783   0.79253   0.00000  Uiso   1.00
C684   C     0.17756   0.95279   0.70947   0.00000  Uiso   1.00
C685   C     0.18375   0.59374   0.79262   0.00000  Uiso   1.00
C686   C     0.17745   0.90689   0.70929   0.00000  Uiso   1.00
C687   C     0.16597   0.61683   0.75006   0.00000  Uiso   1.00
C688   C     0.16602   0.88332   0.74994   0.00000  Uiso   1.00
C689   C     0.14763   0.59358   0.70758   0.00000  Uiso   1.00
C690   C     0.15397   0.90623   0.79056   0.00000  Uiso   1.00
C691   C     0.14685   0.54767   0.70769   0.00000  Uiso   1.00
C692   C     0.15321   0.95213   0.79044   0.00000  Uiso   1.00
C693   C     0.16522   0.52440   0.75009   0.00000  Uiso   1.00
C694   C     0.16528   0.97581   0.74999   0.00000  Uiso   1.00
Cu695  Cu    0.16667   0.75000   0.79821   0.00000  Uiso   1.00
Cu696  Cu    0.16667   0.75001   0.70179   0.00000  Uiso   1.00
H697   H     0.32600   0.74921   0.69385   0.00000  Uiso   1.00
H698   H     0.00728   0.75233   0.80605   0.00000  Uiso   1.00
H699   H     0.19905   0.53073   0.82547   0.00000  Uiso   1.00
H700   H     0.18786   0.97022   0.67812   0.00000  Uiso   1.00
H701   H     0.19841   0.61116   0.82571   0.00000  Uiso   1.00
H702   H     0.18682   0.88992   0.67755   0.00000  Uiso   1.00
H703   H     0.13320   0.61088   0.67449   0.00000  Uiso   1.00
H704   H     0.14451   0.88871   0.82221   0.00000  Uiso   1.00
H705   H     0.13137   0.53042   0.67475   0.00000  Uiso   1.00
H706   H     0.14264   0.96904   0.82180   0.00000  Uiso   1.00
H707   H     0.23688   0.78801   0.54443   0.00000  Uiso   1.00
H708   H     0.12031   0.69035   0.95801   0.00000  Uiso   1.00
H709   H     0.09885   0.70829   0.52714   0.00000  Uiso   1.00
H710   H     0.21427   0.80865   0.96997   0.00000  Uiso   1.00
N711   N     0.16667   0.75001   0.62935   0.00000  Uiso   1.00
N712   N     0.16667   0.74999   0.87065   0.00000  Uiso   1.00
O713   O     0.16667   0.68573   0.79071   0.00000  Uiso   1.00
O714   O     0.16666   0.81428   0.70929   0.00000  Uiso   1.00
O715   O     0.16667   0.68573   0.70928   0.00000  Uiso   1.00
O716   O     0.16666   0.81427   0.79072   0.00000  Uiso   1.00
O717   O     0.09161   0.75000   0.78132   0.00000  Uiso   1.00
O718   O     0.24172   0.75001   0.71868   0.00000  Uiso   1.00
O719   O     0.09161   0.75000   0.69989   0.00000  Uiso   1.00
O720   O     0.24172   0.75000   0.80011   0.00000  Uiso   1.00
O721   O     0.24025   0.79715   0.64086   0.00000  Uiso   1.00
C722   C     0.25333   0.83840   0.62184   0.00000  Uiso   1.00
H723   H     0.27013   0.85982   0.65243   0.00000  Uiso   1.00
H724   H     0.21913   0.85569   0.60261   0.00000  Uiso   1.00
H725   H     0.28352   0.83443   0.59783   0.00000  Uiso   1.00
O726   O     0.10890   0.68876   0.86126   0.00000  Uiso   1.00
C727   C     0.05838   0.68351   0.87313   0.00000  Uiso   1.00
H728   H     0.03315   0.67069   0.84074   0.00000  Uiso   1.00
H729   H     0.04167   0.71523   0.88343   0.00000  Uiso   1.00
H730   H     0.05767   0.65864   0.90240   0.00000  Uiso   1.00
O731   O     0.09506   0.70050   0.62179   0.00000  Uiso   1.00
C732   C     0.04351   0.70913   0.60198   0.00000  Uiso   1.00
H733   H     0.01781   0.69733   0.62799   0.00000  Uiso   1.00
H734   H     0.03250   0.69038   0.56782   0.00000  Uiso   1.00
H735   H     0.03631   0.74509   0.59616   0.00000  Uiso   1.00
O736   O     0.22483   0.81112   0.87714   0.00000  Uiso   1.00
C737   C     0.27773   0.80651   0.89468   0.00000  Uiso   1.00
H738   H     0.30049   0.82504   0.87030   0.00000  Uiso   1.00
H739   H     0.29011   0.77142   0.89469   0.00000  Uiso   1.00
H740   H     0.28717   0.82101   0.93150   0.00000  Uiso   1.00
C741   C     0.49979   0.66502   0.75001   0.00000  Uiso   1.00
C742   C     0.49987   0.83504   0.74997   0.00000  Uiso   1.00
C743   C     0.53829   0.77242   0.55883   0.00000  Uiso   1.00
C744   C     0.47292   0.71743   0.94244   0.00000  Uiso   1.00
C745   C     0.53655   0.77421   0.60958   0.00000  Uiso   1.00
C746   C     0.47065   0.71943   0.89124   0.00000  Uiso   1.00
C747   C     0.46263   0.72678   0.60019   0.00000  Uiso   1.00
C748   C     0.52951   0.78019   0.89900   0.00000  Uiso   1.00
C749   C     0.46215   0.72672   0.54920   0.00000  Uiso   1.00
C750   C     0.52775   0.78177   0.94954   0.00000  Uiso   1.00
C751   C     0.50018   0.74960   0.52740   0.00000  Uiso   1.00
C752   C     0.50037   0.74952   0.97266   0.00000  Uiso   1.00
C753   C     0.40128   0.75008   0.73758   0.00000  Uiso   1.00
C754   C     0.59872   0.75034   0.76241   0.00000  Uiso   1.00
C755   C     0.34598   0.75011   0.73074   0.00000  Uiso   1.00
C756   C     0.65400   0.75102   0.76919   0.00000  Uiso   1.00
C757   C     0.51713   0.54783   0.79253   0.00000  Uiso   1.00
C758   C     0.51089   0.95279   0.70947   0.00000  Uiso   1.00
C759   C     0.51708   0.59374   0.79262   0.00000  Uiso   1.00
C760   C     0.51078   0.90689   0.70929   0.00000  Uiso   1.00
C761   C     0.49931   0.61683   0.75006   0.00000  Uiso   1.00
C762   C     0.49935   0.88332   0.74994   0.00000  Uiso   1.00
C763   C     0.48096   0.59358   0.70758   0.00000  Uiso   1.00
C764   C     0.48730   0.90623   0.79056   0.00000  Uiso   1.00
C765   C     0.48018   0.54767   0.70769   0.00000  Uiso   1.00
C766   C     0.48654   0.95213   0.79044   0.00000  Uiso   1.00
C767   C     0.49856   0.52440   0.75009   0.00000  Uiso   1.00
C768   C     0.49861   0.97581   0.74999   0.00000  Uiso   1.00
Cu769  Cu    0.50000   0.75000   0.79821   0.00000  Uiso   1.00
Cu770  Cu    0.50000   0.75001   0.70179   0.00000  Uiso   1.00
H771   H     0.65934   0.74921   0.69385   0.00000  Uiso   1.00
H772   H     0.34061   0.75233   0.80605   0.00000  Uiso   1.00
H773   H     0.53238   0.53073   0.82547   0.00000  Uiso   1.00
H774   H     0.52120   0.97022   0.67812   0.00000  Uiso   1.00
H775   H     0.53174   0.61116   0.82571   0.00000  Uiso   1.00
H776   H     0.52016   0.88992   0.67755   0.00000  Uiso   1.00
H777   H     0.46653   0.61088   0.67449   0.00000  Uiso   1.00
H778   H     0.47785   0.88871   0.82221   0.00000  Uiso   1.00
H779   H     0.46470   0.53042   0.67475   0.00000  Uiso   1.00
H780   H     0.47597   0.96904   0.82180   0.00000  Uiso   1.00
H781   H     0.57022   0.78801   0.54443   0.00000  Uiso   1.00
H782   H     0.45365   0.69035   0.95801   0.00000  Uiso   1.00
H783   H     0.43218   0.70829   0.52714   0.00000  Uiso   1.00
H784   H     0.54760   0.80865   0.96997   0.00000  Uiso   1.00
N785   N     0.50000   0.75001   0.62935   0.00000  Uiso   1.00
N786   N     0.50000   0.74999   0.87065   0.00000  Uiso   1.00
O787   O     0.50000   0.68573   0.79071   0.00000  Uiso   1.00
O788   O     0.50000   0.81428   0.70929   0.00000  Uiso   1.00
O789   O     0.50000   0.68573   0.70928   0.00000  Uiso   1.00
O790   O     0.50000   0.81427   0.79072   0.00000  Uiso   1.00
O791   O     0.42495   0.75000   0.78132   0.00000  Uiso   1.00
O792   O     0.57505   0.75001   0.71868   0.00000  Uiso   1.00
O793   O     0.42495   0.75000   0.69989   0.00000  Uiso   1.00
O794   O     0.57505   0.75000   0.80011   0.00000  Uiso   1.00
O795   O     0.57359   0.79715   0.64086   0.00000  Uiso   1.00
C796   C     0.58667   0.83840   0.62184   0.00000  Uiso   1.00
H797   H     0.60346   0.85982   0.65243   0.00000  Uiso   1.00
H798   H     0.55246   0.85569   0.60261   0.00000  Uiso   1.00
H799   H     0.61685   0.83443   0.59783   0.00000  Uiso   1.00
O800   O     0.44223   0.68876   0.86126   0.00000  Uiso   1.00
C801   C     0.39171   0.68351   0.87313   0.00000  Uiso   1.00
H802   H     0.36648   0.67069   0.84074   0.00000  Uiso   1.00
H803   H     0.37500   0.71523   0.88343   0.00000  Uiso   1.00
H804   H     0.39101   0.65864   0.90240   0.00000  Uiso   1.00
O805   O     0.42839   0.70050   0.62179   0.00000  Uiso   1.00
C806   C     0.37684   0.70913   0.60198   0.00000  Uiso   1.00
H807   H     0.35115   0.69733   0.62799   0.00000  Uiso   1.00
H808   H     0.36584   0.69038   0.56782   0.00000  Uiso   1.00
H809   H     0.36965   0.74509   0.59616   0.00000  Uiso   1.00
O810   O     0.55816   0.81112   0.87714   0.00000  Uiso   1.00
C811   C     0.61106   0.80651   0.89468   0.00000  Uiso   1.00
H812   H     0.63383   0.82504   0.87030   0.00000  Uiso   1.00
H813   H     0.62345   0.77142   0.89469   0.00000  Uiso   1.00
H814   H     0.62050   0.82101   0.93150   0.00000  Uiso   1.00
C815   C     0.83313   0.66502   0.75001   0.00000  Uiso   1.00
C816   C     0.83320   0.83504   0.74997   0.00000  Uiso   1.00
C817   C     0.87162   0.77242   0.55883   0.00000  Uiso   1.00
C818   C     0.80626   0.71743   0.94244   0.00000  Uiso   1.00
C819   C     0.86988   0.77421   0.60958   0.00000  Uiso   1.00
C820   C     0.80399   0.71943   0.89124   0.00000  Uiso   1.00
C821   C     0.79596   0.72678   0.60019   0.00000  Uiso   1.00
C822   C     0.86285   0.78019   0.89900   0.00000  Uiso   1.00
C823   C     0.79548   0.72672   0.54920   0.00000  Uiso   1.00
C824   C     0.86109   0.78177   0.94954   0.00000  Uiso   1.00
C825   C     0.83351   0.74960   0.52740   0.00000  Uiso   1.00
C826   C     0.83371   0.74952   0.97266   0.00000  Uiso   1.00
C827   C     0.73461   0.75008   0.73758   0.00000  Uiso   1.00
C828   C     0.93205   0.75034   0.76241   0.00000  Uiso   1.00
C829   C     0.67931   0.75011   0.73074   0.00000  Uiso   1.00
C830   C     0.98734   0.75102   0.76919   0.00000  Uiso   1.00
C831   C     0.85047   0.54783   0.79253   0.00000  Uiso   1.00
C832   C     0.84423   0.95279   0.70947   0.00000  Uiso   1.00
C833   C     0.85042   0.59374   0.79262   0.00000  Uiso   1.00
C834   C     0.84411   0.90689   0.70929   0.00000  Uiso   1.00
C835   C     0.83264   0.61683   0.75006   0.00000  Uiso   1.00
C836   C     0.83269   0.88332   0.74994   0.00000  Uiso   1.00
C837   C     0.81430   0.59358   0.70758   0.00000  Uiso   1.00
C838   C     0.82064   0.90623   0.79056   0.00000  Uiso   1.00
C839   C     0.81351   0.54767   0.70769   0.00000  Uiso   1.00
C840   C     0.81987   0.95213   0.79044   0.00000  Uiso   1.00
C841   C     0.83189   0.52440   0.75009   0.00000  Uiso   1.00
C842   C     0.83194   0.97581   0.74999   0.00000  Uiso   1.00
Cu843  Cu    0.83333   0.75000   0.79821   0.00000  Uiso   1.00
Cu844  Cu    0.83333   0.75001   0.70179   0.00000  Uiso   1.00
H845   H     0.99267   0.74921   0.69385   0.00000  Uiso   1.00
H846   H     0.67395   0.75233   0.80605   0.00000  Uiso   1.00
H847   H     0.86572   0.53073   0.82547   0.00000  Uiso   1.00
H848   H     0.85453   0.97022   0.67812   0.00000  Uiso   1.00
H849   H     0.86508   0.61116   0.82571   0.00000  Uiso   1.00
H850   H     0.85349   0.88992   0.67755   0.00000  Uiso   1.00
H851   H     0.79986   0.61088   0.67449   0.00000  Uiso   1.00
H852   H     0.81118   0.88871   0.82221   0.00000  Uiso   1.00
H853   H     0.79804   0.53042   0.67475   0.00000  Uiso   1.00
H854   H     0.80931   0.96904   0.82180   0.00000  Uiso   1.00
H855   H     0.90355   0.78801   0.54443   0.00000  Uiso   1.00
H856   H     0.78698   0.69035   0.95801   0.00000  Uiso   1.00
H857   H     0.76552   0.70829   0.52714   0.00000  Uiso   1.00
H858   H     0.88094   0.80865   0.96997   0.00000  Uiso   1.00
N859   N     0.83333   0.75001   0.62935   0.00000  Uiso   1.00
N860   N     0.83333   0.74999   0.87065   0.00000  Uiso   1.00
O861   O     0.83334   0.68573   0.79071   0.00000  Uiso   1.00
O862   O     0.83333   0.81428   0.70929   0.00000  Uiso   1.00
O863   O     0.83334   0.68573   0.70928   0.00000  Uiso   1.00
O864   O     0.83333   0.81427   0.79072   0.00000  Uiso   1.00
O865   O     0.75828   0.75000   0.78132   0.00000  Uiso   1.00
O866   O     0.90839   0.75001   0.71868   0.00000  Uiso   1.00
O867   O     0.75828   0.75000   0.69989   0.00000  Uiso   1.00
O868   O     0.90839   0.75000   0.80011   0.00000  Uiso   1.00
O869   O     0.90692   0.79715   0.64086   0.00000  Uiso   1.00
C870   C     0.92000   0.83840   0.62184   0.00000  Uiso   1.00
H871   H     0.93679   0.85982   0.65243   0.00000  Uiso   1.00
H872   H     0.88580   0.85569   0.60261   0.00000  Uiso   1.00
H873   H     0.95018   0.83443   0.59783   0.00000  Uiso   1.00
O874   O     0.77557   0.68876   0.86126   0.00000  Uiso   1.00
C875   C     0.72504   0.68351   0.87313   0.00000  Uiso   1.00
H876   H     0.69981   0.67069   0.84074   0.00000  Uiso   1.00
H877   H     0.70833   0.71523   0.88343   0.00000  Uiso   1.00
H878   H     0.72434   0.65864   0.90240   0.00000  Uiso   1.00
O879   O     0.76173   0.70050   0.62179   0.00000  Uiso   1.00
C880   C     0.71017   0.70913   0.60198   0.00000  Uiso   1.00
H881   H     0.68448   0.69733   0.62799   0.00000  Uiso   1.00
H882   H     0.69917   0.69038   0.56782   0.00000  Uiso   1.00
H883   H     0.70298   0.74509   0.59616   0.00000  Uiso   1.00
O884   O     0.89149   0.81112   0.87714   0.00000  Uiso   1.00
C885   C     0.94440   0.80651   0.89468   0.00000  Uiso   1.00
H886   H     0.96716   0.82504   0.87030   0.00000  Uiso   1.00
H887   H     0.95678   0.77142   0.89469   0.00000  Uiso   1.00
H888   H     0.95383   0.82101   0.93150   0.00000  Uiso   1.00
loop_
_geom_bond_atom_site_label_1
_geom_bond_atom_site_label_2
_geom_bond_distance
_geom_bond_site_symmetry_2
_ccdc_geom_bond_type
C1     C21     1.459   .     S
C1     O49     1.296   .     A
C1     O47     1.295   .     A
C2     C22     1.462   .     S
C2     O50     1.296   .     A
C2     O48     1.297   .     A
C3     C11     1.408   .     A
C3     C5      1.421   .     A
C3     H41     1.078   .     S
C4     H42     1.078   .     S
C4     C6      1.420   .     A
C4     C12     1.409   .     A
C5     N45     1.370   .     A
C5     O55     1.390   .     S
C6     O60     1.388   .     S
C6     N46     1.369   .     A
C7     O65     1.387   .     S
C7     C9      1.418   .     A
C7     N45     1.369   .     A
C8     O70     1.383   .     S
C8     N46     1.368   .     A
C8     C10     1.415   .     A
C9     C11     1.408   .     A
C9     H43     1.077   .     S
C10    C12     1.409   .     A
C10    H44     1.079   .     S
C11    C456    1.525   1_554 S
C12    C455    1.525   .     S
C13    C15     1.433   .     S
C13    O53     1.290   .     A
C13    O51     1.288   .     A
C14    O52     1.288   .     A
C14    C16     1.433   .     S
C14    O54     1.290   .     A
C15    C164    1.334   1_455 S
C15    H179    1.087   1_455 S
C16    C89     1.334   .     S
C16    H106    1.086   .     S
C17    H33     1.083   .     S
C17    C27     1.404   .     A
C17    C19     1.390   .     A
C18    H34     1.083   .     S
C18    C28     1.404   .     A
C18    C20     1.390   .     A
C19    C21     1.401   .     A
C19    H35     1.083   .     S
C20    C22     1.401   .     A
C20    H36     1.081   .     S
C21    C23     1.401   .     A
C22    C24     1.402   .     A
C23    H37     1.083   .     S
C23    C25     1.390   .     A
C24    C26     1.390   .     A
C24    H38     1.083   .     S
C25    H39     1.083   .     S
C25    C27     1.404   .     A
C26    H40     1.083   .     S
C26    C28     1.404   .     A
C27    C250    1.471   1_545 S
C28    C249    1.471   .     S
Cu29   N46     2.017   .     S
Cu29   Cu30    2.685   .     S
Cu29   O47     1.957   .     S
Cu29   O50     1.957   .     S
Cu29   O54     1.957   .     S
Cu29   O51     1.956   .     S
Cu30   N45     2.017   .     S
Cu30   O49     1.957   .     S
Cu30   O53     1.957   .     S
Cu30   O48     1.957   .     S
Cu30   O52     1.956   .     S
H31    C89     1.087   .     S
H32    C164    1.086   1_455 S
O55    C56     1.412   .     S
C56    H59     1.110   .     S
C56    H58     1.114   .     S
C56    H57     1.109   .     S
O60    C61     1.413   .     S
C61    H64     1.110   .     S
C61    H62     1.109   .     S
C61    H63     1.115   .     S
O65    C66     1.413   .     S
C66    H68     1.110   .     S
C66    H67     1.109   .     S
C66    H69     1.115   .     S
O70    C71     1.412   .     S
C71    H72     1.109   .     S
C71    H73     1.115   .     S
C71    H74     1.111   .     S
C75    C95     1.459   .     S
C75    O123    1.296   .     A
C75    O121    1.295   .     A
C76    C96     1.462   .     S
C76    O124    1.296   .     A
C76    O122    1.297   .     A
C77    C85     1.408   .     A
C77    C79     1.421   .     A
C77    H115    1.078   .     S
C78    H116    1.078   .     S
C78    C80     1.420   .     A
C78    C86     1.409   .     A
C79    N119    1.370   .     A
C79    O129    1.390   .     S
C80    O134    1.388   .     S
C80    N120    1.369   .     A
C81    O139    1.387   .     S
C81    C83     1.418   .     A
C81    N119    1.369   .     A
C82    O144    1.383   .     S
C82    N120    1.368   .     A
C82    C84     1.415   .     A
C83    C85     1.408   .     A
C83    H117    1.077   .     S
C84    C86     1.409   .     A
C84    H118    1.079   .     S
C85    C530    1.525   1_554 S
C86    C529    1.525   .     S
C87    C89     1.433   .     S
C87    O127    1.290   .     A
C87    O125    1.288   .     A
C88    O126    1.288   .     A
C88    C90     1.433   .     S
C88    O128    1.290   .     A
C90    C163    1.334   .     S
C90    H180    1.086   .     S
C91    H107    1.083   .     S
C91    C101    1.404   .     A
C91    C93     1.390   .     A
C92    H108    1.083   .     S
C92    C102    1.404   .     A
C92    C94     1.390   .     A
C93    C95     1.401   .     A
C93    H109    1.083   .     S
C94    C96     1.401   .     A
C94    H110    1.081   .     S
C95    C97     1.401   .     A
C96    C98     1.402   .     A
C97    H111    1.083   .     S
C97    C99     1.390   .     A
C98    C100    1.390   .     A
C98    H112    1.083   .     S
C99    H113    1.083   .     S
C99    C101    1.404   .     A
C100   H114    1.083   .     S
C100   C102    1.404   .     A
C101   C324    1.471   1_545 S
C102   C323    1.471   .     S
Cu103  N120    2.017   .     S
Cu103  Cu104   2.685   .     S
Cu103  O121    1.957   .     S
Cu103  O124    1.957   .     S
Cu103  O128    1.957   .     S
Cu103  O125    1.956   .     S
Cu104  N119    2.017   .     S
Cu104  O123    1.957   .     S
Cu104  O127    1.957   .     S
Cu104  O122    1.957   .     S
Cu104  O126    1.956   .     S
H105   C163    1.087   .     S
O129   C130    1.412   .     S
C130   H133    1.110   .     S
C130   H132    1.114   .     S
C130   H131    1.109   .     S
O134   C135    1.413   .     S
C135   H138    1.110   .     S
C135   H136    1.109   .     S
C135   H137    1.115   .     S
O139   C140    1.413   .     S
C140   H142    1.110   .     S
C140   H141    1.109   .     S
C140   H143    1.115   .     S
O144   C145    1.412   .     S
C145   H146    1.109   .     S
C145   H147    1.115   .     S
C145   H148    1.111   .     S
C149   C169    1.459   .     S
C149   O197    1.296   .     A
C149   O195    1.295   .     A
C150   C170    1.462   .     S
C150   O198    1.296   .     A
C150   O196    1.297   .     A
C151   C159    1.408   .     A
C151   C153    1.421   .     A
C151   H189    1.078   .     S
C152   H190    1.078   .     S
C152   C154    1.420   .     A
C152   C160    1.409   .     A
C153   N193    1.370   .     A
C153   O203    1.390   .     S
C154   O208    1.388   .     S
C154   N194    1.369   .     A
C155   O213    1.387   .     S
C155   C157    1.418   .     A
C155   N193    1.369   .     A
C156   O218    1.383   .     S
C156   N194    1.368   .     A
C156   C158    1.415   .     A
C157   C159    1.408   .     A
C157   H191    1.077   .     S
C158   C160    1.409   .     A
C158   H192    1.079   .     S
C159   C604    1.525   1_554 S
C160   C603    1.525   .     S
C161   C163    1.433   .     S
C161   O201    1.290   .     A
C161   O199    1.288   .     A
C162   O200    1.288   .     A
C162   C164    1.433   .     S
C162   O202    1.290   .     A
C164   C15     1.334   1_655 S
C164   H32     1.086   1_655 S
C165   H181    1.083   .     S
C165   C175    1.404   .     A
C165   C167    1.390   .     A
C166   H182    1.083   .     S
C166   C176    1.404   .     A
C166   C168    1.390   .     A
C167   C169    1.401   .     A
C167   H183    1.083   .     S
C168   C170    1.401   .     A
C168   H184    1.081   .     S
C169   C171    1.401   .     A
C170   C172    1.402   .     A
C171   H185    1.083   .     S
C171   C173    1.390   .     A
C172   C174    1.390   .     A
C172   H186    1.083   .     S
C173   H187    1.083   .     S
C173   C175    1.404   .     A
C174   H188    1.083   .     S
C174   C176    1.404   .     A
C175   C398    1.471   1_545 S
C176   C397    1.471   .     S
Cu177  N194    2.017   .     S
Cu177  Cu178   2.685   .     S
Cu177  O195    1.957   .     S
Cu177  O198    1.957   .     S
Cu177  O202    1.957   .     S
Cu177  O199    1.956   .     S
Cu178  N193    2.017   .     S
Cu178  O197    1.957   .     S
Cu178  O201    1.957   .     S
Cu178  O196    1.957   .     S
Cu178  O200    1.956   .     S
H179   C15     1.087   1_655 S
O203   C204    1.412   .     S
C204   H207    1.110   .     S
C204   H206    1.114   .     S
C204   H205    1.109   .     S
O208   C209    1.413   .     S
C209   H212    1.110   .     S
C209   H210    1.109   .     S
C209   H211    1.115   .     S
O213   C214    1.413   .     S
C214   H216    1.110   .     S
C214   H215    1.109   .     S
C214   H217    1.115   .     S
O218   C219    1.412   .     S
C219   H220    1.109   .     S
C219   H221    1.115   .     S
C219   H222    1.111   .     S
C223   C243    1.459   .     S
C223   O271    1.296   .     A
C223   O269    1.295   .     A
C224   C244    1.462   .     S
C224   O272    1.296   .     A
C224   O270    1.297   .     A
C225   C233    1.408   .     A
C225   C227    1.421   .     A
C225   H263    1.078   .     S
C226   H264    1.078   .     S
C226   C228    1.420   .     A
C226   C234    1.409   .     A
C227   N267    1.370   .     A
C227   O277    1.390   .     S
C228   O282    1.388   .     S
C228   N268    1.369   .     A
C229   O287    1.387   .     S
C229   C231    1.418   .     A
C229   N267    1.369   .     A
C230   O292    1.383   .     S
C230   N268    1.368   .     A
C230   C232    1.415   .     A
C231   C233    1.408   .     A
C231   H265    1.077   .     S
C232   C234    1.409   .     A
C232   H266    1.079   .     S
C233   C678    1.525   1_554 S
C234   C677    1.525   .     S
C235   C237    1.433   .     S
C235   O275    1.290   .     A
C235   O273    1.288   .     A
C236   O274    1.288   .     A
C236   C238    1.433   .     S
C236   O276    1.290   .     A
C237   C386    1.334   1_455 S
C237   H401    1.087   1_455 S
C238   C311    1.334   .     S
C238   H328    1.086   .     S
C239   H255    1.083   .     S
C239   C249    1.404   .     A
C239   C241    1.390   .     A
C240   H256    1.083   .     S
C240   C250    1.404   .     A
C240   C242    1.390   .     A
C241   C243    1.401   .     A
C241   H257    1.083   .     S
C242   C244    1.401   .     A
C242   H258    1.081   .     S
C243   C245    1.401   .     A
C244   C246    1.402   .     A
C245   H259    1.083   .     S
C245   C247    1.390   .     A
C246   C248    1.390   .     A
C246   H260    1.083   .     S
C247   H261    1.083   .     S
C247   C249    1.404   .     A
C248   H262    1.083   .     S
C248   C250    1.404   .     A
C250   C27     1.471   1_565 S
Cu251  N268    2.017   .     S
Cu251  Cu252   2.685   .     S
Cu251  O269    1.957   .     S
Cu251  O272    1.957   .     S
Cu251  O276    1.957   .     S
Cu251  O273    1.956   .     S
Cu252  N267    2.017   .     S
Cu252  O271    1.957   .     S
Cu252  O275    1.957   .     S
Cu252  O270    1.957   .     S
Cu252  O274    1.956   .     S
H253   C311    1.087   .     S
H254   C386    1.086   1_455 S
O277   C278    1.412   .     S
C278   H281    1.110   .     S
C278   H280    1.114   .     S
C278   H279    1.109   .     S
O282   C283    1.413   .     S
C283   H286    1.110   .     S
C283   H284    1.109   .     S
C283   H285    1.115   .     S
O287   C288    1.413   .     S
C288   H290    1.110   .     S
C288   H289    1.109   .     S
C288   H291    1.115   .     S
O292   C293    1.412   .     S
C293   H294    1.109   .     S
C293   H295    1.115   .     S
C293   H296    1.111   .     S
C297   C317    1.459   .     S
C297   O345    1.296   .     A
C297   O343    1.295   .     A
C298   C318    1.462   .     S
C298   O346    1.296   .     A
C298   O344    1.297   .     A
C299   C307    1.408   .     A
C299   C301    1.421   .     A
C299   H337    1.078   .     S
C300   H338    1.078   .     S
C300   C302    1.420   .     A
C300   C308    1.409   .     A
C301   N341    1.370   .     A
C301   O351    1.390   .     S
C302   O356    1.388   .     S
C302   N342    1.369   .     A
C303   O361    1.387   .     S
C303   C305    1.418   .     A
C303   N341    1.369   .     A
C304   O366    1.383   .     S
C304   N342    1.368   .     A
C304   C306    1.415   .     A
C305   C307    1.408   .     A
C305   H339    1.077   .     S
C306   C308    1.409   .     A
C306   H340    1.079   .     S
C307   C752    1.525   1_554 S
C308   C751    1.525   .     S
C309   C311    1.433   .     S
C309   O349    1.290   .     A
C309   O347    1.288   .     A
C310   O348    1.288   .     A
C310   C312    1.433   .     S
C310   O350    1.290   .     A
C312   C385    1.334   .     S
C312   H402    1.086   .     S
C313   H329    1.083   .     S
C313   C323    1.404   .     A
C313   C315    1.390   .     A
C314   H330    1.083   .     S
C314   C324    1.404   .     A
C314   C316    1.390   .     A
C315   C317    1.401   .     A
C315   H331    1.083   .     S
C316   C318    1.401   .     A
C316   H332    1.081   .     S
C317   C319    1.401   .     A
C318   C320    1.402   .     A
C319   H333    1.083   .     S
C319   C321    1.390   .     A
C320   C322    1.390   .     A
C320   H334    1.083   .     S
C321   H335    1.083   .     S
C321   C323    1.404   .     A
C322   H336    1.083   .     S
C322   C324    1.404   .     A
C324   C101    1.471   1_565 S
Cu325  N342    2.017   .     S
Cu325  Cu326   2.685   .     S
Cu325  O343    1.957   .     S
Cu325  O346    1.957   .     S
Cu325  O350    1.957   .     S
Cu325  O347    1.956   .     S
Cu326  N341    2.017   .     S
Cu326  O345    1.957   .     S
Cu326  O349    1.957   .     S
Cu326  O344    1.957   .     S
Cu326  O348    1.956   .     S
H327   C385    1.087   .     S
O351   C352    1.412   .     S
C352   H355    1.110   .     S
C352   H354    1.114   .     S
C352   H353    1.109   .     S
O356   C357    1.413   .     S
C357   H360    1.110   .     S
C357   H358    1.109   .     S
C357   H359    1.115   .     S
O361   C362    1.413   .     S
C362   H364    1.110   .     S
C362   H363    1.109   .     S
C362   H365    1.115   .     S
O366   C367    1.412   .     S
C367   H368    1.109   .     S
C367   H369    1.115   .     S
C367   H370    1.111   .     S
C371   C391    1.459   .     S
C371   O419    1.296   .     A
C371   O417    1.295   .     A
C372   C392    1.462   .     S
C372   O420    1.296   .     A
C372   O418    1.297   .     A
C373   C381    1.408   .     A
C373   C375    1.421   .     A
C373   H411    1.078   .     S
C374   H412    1.078   .     S
C374   C376    1.420   .     A
C374   C382    1.409   .     A
C375   N415    1.370   .     A
C375   O425    1.390   .     S
C376   O430    1.388   .     S
C376   N416    1.369   .     A
C377   O435    1.387   .     S
C377   C379    1.418   .     A
C377   N415    1.369   .     A
C378   O440    1.383   .     S
C378   N416    1.368   .     A
C378   C380    1.415   .     A
C379   C381    1.408   .     A
C379   H413    1.077   .     S
C380   C382    1.409   .     A
C380   H414    1.079   .     S
C381   C826    1.525   1_554 S
C382   C825    1.525   .     S
C383   C385    1.433   .     S
C383   O423    1.290   .     A
C383   O421    1.288   .     A
C384   O422    1.288   .     A
C384   C386    1.433   .     S
C384   O424    1.290   .     A
C386   C237    1.334   1_655 S
C386   H254    1.086   1_655 S
C387   H403    1.083   .     S
C387   C397    1.404   .     A
C387   C389    1.390   .     A
C388   H404    1.083   .     S
C388   C398    1.404   .     A
C388   C390    1.390   .     A
C389   C391    1.401   .     A
C389   H405    1.083   .     S
C390   C392    1.401   .     A
C390   H406    1.081   .     S
C391   C393    1.401   .     A
C392   C394    1.402   .     A
C393   H407    1.083   .     S
C393   C395    1.390   .     A
C394   C396    1.390   .     A
C394   H408    1.083   .     S
C395   H409    1.083   .     S
C395   C397    1.404   .     A
C396   H410    1.083   .     S
C396   C398    1.404   .     A
C398   C175    1.471   1_565 S
Cu399  N416    2.017   .     S
Cu399  Cu400   2.685   .     S
Cu399  O417    1.957   .     S
Cu399  O420    1.957   .     S
Cu399  O424    1.957   .     S
Cu399  O421    1.956   .     S
Cu400  N415    2.017   .     S
Cu400  O419    1.957   .     S
Cu400  O423    1.957   .     S
Cu400  O418    1.957   .     S
Cu400  O422    1.956   .     S
H401   C237    1.087   1_655 S
O425   C426    1.412   .     S
C426   H429    1.110   .     S
C426   H428    1.114   .     S
C426   H427    1.109   .     S
O430   C431    1.413   .     S
C431   H434    1.110   .     S
C431   H432    1.109   .     S
C431   H433    1.115   .     S
O435   C436    1.413   .     S
C436   H438    1.110   .     S
C436   H437    1.109   .     S
C436   H439    1.115   .     S
O440   C441    1.412   .     S
C441   H442    1.109   .     S
C441   H443    1.115   .     S
C441   H444    1.111   .     S
C445   C465    1.459   .     S
C445   O493    1.296   .     A
C445   O491    1.295   .     A
C446   C466    1.462   .     S
C446   O494    1.296   .     A
C446   O492    1.297   .     A
C447   C455    1.408   .     A
C447   C449    1.421   .     A
C447   H485    1.078   .     S
C448   H486    1.078   .     S
C448   C450    1.420   .     A
C448   C456    1.409   .     A
C449   N489    1.370   .     A
C449   O499    1.390   .     S
C450   O504    1.388   .     S
C450   N490    1.369   .     A
C451   O509    1.387   .     S
C451   C453    1.418   .     A
C451   N489    1.369   .     A
C452   O514    1.383   .     S
C452   N490    1.368   .     A
C452   C454    1.415   .     A
C453   C455    1.408   .     A
C453   H487    1.077   .     S
C454   C456    1.409   .     A
C454   H488    1.079   .     S
C456   C11     1.525   1_556 S
C457   C459    1.433   .     S
C457   O497    1.290   .     A
C457   O495    1.288   .     A
C458   O496    1.288   .     A
C458   C460    1.433   .     S
C458   O498    1.290   .     A
C459   C608    1.334   1_455 S
C459   H623    1.087   1_455 S
C460   C533    1.334   .     S
C460   H550    1.086   .     S
C461   H477    1.083   .     S
C461   C471    1.404   .     A
C461   C463    1.390   .     A
C462   H478    1.083   .     S
C462   C472    1.404   .     A
C462   C464    1.390   .     A
C463   C465    1.401   .     A
C463   H479    1.083   .     S
C464   C466    1.401   .     A
C464   H480    1.081   .     S
C465   C467    1.401   .     A
C466   C468    1.402   .     A
C467   H481    1.083   .     S
C467   C469    1.390   .     A
C468   C470    1.390   .     A
C468   H482    1.083   .     S
C469   H483    1.083   .     S
C469   C471    1.404   .     A
C470   H484    1.083   .     S
C470   C472    1.404   .     A
C471   C694    1.471   1_545 S
C472   C693    1.471   .     S
Cu473  N490    2.017   .     S
Cu473  Cu474   2.685   .     S
Cu473  O491    1.957   .     S
Cu473  O494    1.957   .     S
Cu473  O498    1.957   .     S
Cu473  O495    1.956   .     S
Cu474  N489    2.017   .     S
Cu474  O493    1.957   .     S
Cu474  O497    1.957   .     S
Cu474  O492    1.957   .     S
Cu474  O496    1.956   .     S
H475   C533    1.087   .     S
H476   C608    1.086   1_455 S
O499   C500    1.412   .     S
C500   H503    1.110   .     S
C500   H502    1.114   .     S
C500   H501    1.109   .     S
O504   C505    1.413   .     S
C505   H508    1.110   .     S
C505   H506    1.109   .     S
C505   H507    1.115   .     S
O509   C510    1.413   .     S
C510   H512    1.110   .     S
C510   H511    1.109   .     S
C510   H513    1.115   .     S
O514   C515    1.412   .     S
C515   H516    1.109   .     S
C515   H517    1.115   .     S
C515   H518    1.111   .     S
C519   C539    1.459   .     S
C519   O567    1.296   .     A
C519   O565    1.295   .     A
C520   C540    1.462   .     S
C520   O568    1.296   .     A
C520   O566    1.297   .     A
C521   C529    1.408   .     A
C521   C523    1.421   .     A
C521   H559    1.078   .     S
C522   H560    1.078   .     S
C522   C524    1.420   .     A
C522   C530    1.409   .     A
C523   N563    1.370   .     A
C523   O573    1.390   .     S
C524   O578    1.388   .     S
C524   N564    1.369   .     A
C525   O583    1.387   .     S
C525   C527    1.418   .     A
C525   N563    1.369   .     A
C526   O588    1.383   .     S
C526   N564    1.368   .     A
C526   C528    1.415   .     A
C527   C529    1.408   .     A
C527   H561    1.077   .     S
C528   C530    1.409   .     A
C528   H562    1.079   .     S
C530   C85     1.525   1_556 S
C531   C533    1.433   .     S
C531   O571    1.290   .     A
C531   O569    1.288   .     A
C532   O570    1.288   .     A
C532   C534    1.433   .     S
C532   O572    1.290   .     A
C534   C607    1.334   .     S
C534   H624    1.086   .     S
C535   H551    1.083   .     S
C535   C545    1.404   .     A
C535   C537    1.390   .     A
C536   H552    1.083   .     S
C536   C546    1.404   .     A
C536   C538    1.390   .     A
C537   C539    1.401   .     A
C537   H553    1.083   .     S
C538   C540    1.401   .     A
C538   H554    1.081   .     S
C539   C541    1.401   .     A
C540   C542    1.402   .     A
C541   H555    1.083   .     S
C541   C543    1.390   .     A
C542   C544    1.390   .     A
C542   H556    1.083   .     S
C543   H557    1.083   .     S
C543   C545    1.404   .     A
C544   H558    1.083   .     S
C544   C546    1.404   .     A
C545   C768    1.471   1_545 S
C546   C767    1.471   .     S
Cu547  N564    2.017   .     S
Cu547  Cu548   2.685   .     S
Cu547  O565    1.957   .     S
Cu547  O568    1.957   .     S
Cu547  O572    1.957   .     S
Cu547  O569    1.956   .     S
Cu548  N563    2.017   .     S
Cu548  O567    1.957   .     S
Cu548  O571    1.957   .     S
Cu548  O566    1.957   .     S
Cu548  O570    1.956   .     S
H549   C607    1.087   .     S
O573   C574    1.412   .     S
C574   H577    1.110   .     S
C574   H576    1.114   .     S
C574   H575    1.109   .     S
O578   C579    1.413   .     S
C579   H582    1.110   .     S
C579   H580    1.109   .     S
C579   H581    1.115   .     S
O583   C584    1.413   .     S
C584   H586    1.110   .     S
C584   H585    1.109   .     S
C584   H587    1.115   .     S
O588   C589    1.412   .     S
C589   H590    1.109   .     S
C589   H591    1.115   .     S
C589   H592    1.111   .     S
C593   C613    1.459   .     S
C593   O641    1.296   .     A
C593   O639    1.295   .     A
C594   C614    1.462   .     S
C594   O642    1.296   .     A
C594   O640    1.297   .     A
C595   C603    1.408   .     A
C595   C597    1.421   .     A
C595   H633    1.078   .     S
C596   H634    1.078   .     S
C596   C598    1.420   .     A
C596   C604    1.409   .     A
C597   N637    1.370   .     A
C597   O647    1.390   .     S
C598   O652    1.388   .     S
C598   N638    1.369   .     A
C599   O657    1.387   .     S
C599   C601    1.418   .     A
C599   N637    1.369   .     A
C600   O662    1.383   .     S
C600   N638    1.368   .     A
C600   C602    1.415   .     A
C601   C603    1.408   .     A
C601   H635    1.077   .     S
C602   C604    1.409   .     A
C602   H636    1.079   .     S
C604   C159    1.525   1_556 S
C605   C607    1.433   .     S
C605   O645    1.290   .     A
C605   O643    1.288   .     A
C606   O644    1.288   .     A
C606   C608    1.433   .     S
C606   O646    1.290   .     A
C608   C459    1.334   1_655 S
C608   H476    1.086   1_655 S
C609   H625    1.083   .     S
C609   C619    1.404   .     A
C609   C611    1.390   .     A
C610   H626    1.083   .     S
C610   C620    1.404   .     A
C610   C612    1.390   .     A
C611   C613    1.401   .     A
C611   H627    1.083   .     S
C612   C614    1.401   .     A
C612   H628    1.081   .     S
C613   C615    1.401   .     A
C614   C616    1.402   .     A
C615   H629    1.083   .     S
C615   C617    1.390   .     A
C616   C618    1.390   .     A
C616   H630    1.083   .     S
C617   H631    1.083   .     S
C617   C619    1.404   .     A
C618   H632    1.083   .     S
C618   C620    1.404   .     A
C619   C842    1.471   1_545 S
C620   C841    1.471   .     S
Cu621  N638    2.017   .     S
Cu621  Cu622   2.685   .     S
Cu621  O639    1.957   .     S
Cu621  O642    1.957   .     S
Cu621  O646    1.957   .     S
Cu621  O643    1.956   .     S
Cu622  N637    2.017   .     S
Cu622  O641    1.957   .     S
Cu622  O645    1.957   .     S
Cu622  O640    1.957   .     S
Cu622  O644    1.956   .     S
H623   C459    1.087   1_655 S
O647   C648    1.412   .     S
C648   H651    1.110   .     S
C648   H650    1.114   .     S
C648   H649    1.109   .     S
O652   C653    1.413   .     S
C653   H656    1.110   .     S
C653   H654    1.109   .     S
C653   H655    1.115   .     S
O657   C658    1.413   .     S
C658   H660    1.110   .     S
C658   H659    1.109   .     S
C658   H661    1.115   .     S
O662   C663    1.412   .     S
C663   H664    1.109   .     S
C663   H665    1.115   .     S
C663   H666    1.111   .     S
C667   C687    1.459   .     S
C667   O715    1.296   .     A
C667   O713    1.295   .     A
C668   C688    1.462   .     S
C668   O716    1.296   .     A
C668   O714    1.297   .     A
C669   C677    1.408   .     A
C669   C671    1.421   .     A
C669   H707    1.078   .     S
C670   H708    1.078   .     S
C670   C672    1.420   .     A
C670   C678    1.409   .     A
C671   N711    1.370   .     A
C671   O721    1.390   .     S
C672   O726    1.388   .     S
C672   N712    1.369   .     A
C673   O731    1.387   .     S
C673   C675    1.418   .     A
C673   N711    1.369   .     A
C674   O736    1.383   .     S
C674   N712    1.368   .     A
C674   C676    1.415   .     A
C675   C677    1.408   .     A
C675   H709    1.077   .     S
C676   C678    1.409   .     A
C676   H710    1.079   .     S
C678   C233    1.525   1_556 S
C679   C681    1.433   .     S
C679   O719    1.290   .     A
C679   O717    1.288   .     A
C680   O718    1.288   .     A
C680   C682    1.433   .     S
C680   O720    1.290   .     A
C681   C830    1.334   1_455 S
C681   H845    1.087   1_455 S
C682   C755    1.334   .     S
C682   H772    1.086   .     S
C683   H699    1.083   .     S
C683   C693    1.404   .     A
C683   C685    1.390   .     A
C684   H700    1.083   .     S
C684   C694    1.404   .     A
C684   C686    1.390   .     A
C685   C687    1.401   .     A
C685   H701    1.083   .     S
C686   C688    1.401   .     A
C686   H702    1.081   .     S
C687   C689    1.401   .     A
C688   C690    1.402   .     A
C689   H703    1.083   .     S
C689   C691    1.390   .     A
C690   C692    1.390   .     A
C690   H704    1.083   .     S
C691   H705    1.083   .     S
C691   C693    1.404   .     A
C692   H706    1.083   .     S
C692   C694    1.404   .     A
C694   C471    1.471   1_565 S
Cu695  N712    2.017   .     S
Cu695  Cu696   2.685   .     S
Cu695  O713    1.957   .     S
Cu695  O716    1.957   .     S
Cu695  O720    1.957   .     S
Cu695  O717    1.956   .     S
Cu696  N711    2.017   .     S
Cu696  O715    1.957   .     S
Cu696  O719    1.957   .     S
Cu696  O714    1.957   .     S
Cu696  O718    1.956   .     S
H697   C755    1.087   .     S
H698   C830    1.086   1_455 S
O721   C722    1.412   .     S
C722   H725    1.110   .     S
C722   H724    1.114   .     S
C722   H723    1.109   .     S
O726   C727    1.413   .     S
C727   H730    1.110   .     S
C727   H728    1.109   .     S
C727   H729    1.115   .     S
O731   C732    1.413   .     S
C732   H734    1.110   .     S
C732   H733    1.109   .     S
C732   H735    1.115   .     S
O736   C737    1.412   .     S
C737   H738    1.109   .     S
C737   H739    1.115   .     S
C737   H740    1.111   .     S
C741   C761    1.459   .     S
C741   O789    1.296   .     A
C741   O787    1.295   .     A
C742   C762    1.462   .     S
C742   O790    1.296   .     A
C742   O788    1.297   .     A
C743   C751    1.408   .     A
C743   C745    1.421   .     A
C743   H781    1.078   .     S
C744   H782    1.078   .     S
C744   C746    1.420   .     A
C744   C752    1.409   .     A
C745   N785    1.370   .     A
C745   O795    1.390   .     S
C746   O800    1.388   .     S
C746   N786    1.369   .     A
C747   O805    1.387   .     S
C747   C749    1.418   .     A
C747   N785    1.369   .     A
C748   O810    1.383   .     S
C748   N786    1.368   .     A
C748   C750    1.415   .     A
C749   C751    1.408   .     A
C749   H783    1.077   .     S
C750   C752    1.409   .     A
C750   H784    1.079   .     S
C752   C307    1.525   1_556 S
C753   C755    1.433   .     S
C753   O793    1.290   .     A
C753   O791    1.288   .     A
C754   O792    1.288   .     A
C754   C756    1.433   .     S
C754   O794    1.290   .     A
C756   C829    1.334   .     S
C756   H846    1.086   .     S
C757   H773    1.083   .     S
C757   C767    1.404   .     A
C757   C759    1.390   .     A
C758   H774    1.083   .     S
C758   C768    1.404   .     A
C758   C760    1.390   .     A
C759   C761    1.401   .     A
C759   H775    1.083   .     S
C760   C762    1.401   .     A
C760   H776    1.081   .     S
C761   C763    1.401   .     A
C762   C764    1.402   .     A
C763   H777    1.083   .     S
C763   C765    1.390   .     A
C764   C766    1.390   .     A
C764   H778    1.083   .     S
C765   H779    1.083   .     S
C765   C767    1.404   .     A
C766   H780    1.083   .     S
C766   C768    1.404   .     A
C768   C545    1.471   1_565 S
Cu769  N786    2.017   .     S
Cu769  Cu770   2.685   .     S
Cu769  O787    1.957   .     S
Cu769  O790    1.957   .     S
Cu769  O794    1.957   .     S
Cu769  O791    1.956   .     S
Cu770  N785    2.017   .     S
Cu770  O789    1.957   .     S
Cu770  O793    1.957   .     S
Cu770  O788    1.957   .     S
Cu770  O792    1.956   .     S
H771   C829    1.087   .     S
O795   C796    1.412   .     S
C796   H799    1.110   .     S
C796   H798    1.114   .     S
C796   H797    1.109   .     S
O800   C801    1.413   .     S
C801   H804    1.110   .     S
C801   H802    1.109   .     S
C801   H803    1.115   .     S
O805   C806    1.413   .     S
C806   H808    1.110   .     S
C806   H807    1.109   .     S
C806   H809    1.115   .     S
O810   C811    1.412   .     S
C811   H812    1.109   .     S
C811   H813    1.115   .     S
C811   H814    1.111   .     S
C815   C835    1.459   .     S
C815   O863    1.296   .     A
C815   O861    1.295   .     A
C816   C836    1.462   .     S
C816   O864    1.296   .     A
C816   O862    1.297   .     A
C817   C825    1.408   .     A
C817   C819    1.421   .     A
C817   H855    1.078   .     S
C818   H856    1.078   .     S
C818   C820    1.420   .     A
C818   C826    1.409   .     A
C819   N859    1.370   .     A
C819   O869    1.390   .     S
C820   O874    1.388   .     S
C820   N860    1.369   .     A
C821   O879    1.387   .     S
C821   C823    1.418   .     A
C821   N859    1.369   .     A
C822   O884    1.383   .     S
C822   N860    1.368   .     A
C822   C824    1.415   .     A
C823   C825    1.408   .     A
C823   H857    1.077   .     S
C824   C826    1.409   .     A
C824   H858    1.079   .     S
C826   C381    1.525   1_556 S
C827   C829    1.433   .     S
C827   O867    1.290   .     A
C827   O865    1.288   .     A
C828   O866    1.288   .     A
C828   C830    1.433   .     S
C828   O868    1.290   .     A
C830   C681    1.334   1_655 S
C830   H698    1.086   1_655 S
C831   H847    1.083   .     S
C831   C841    1.404   .     A
C831   C833    1.390   .     A
C832   H848    1.083   .     S
C832   C842    1.404   .     A
C832   C834    1.390   .     A
C833   C835    1.401   .     A
C833   H849    1.083   .     S
C834   C836    1.401   .     A
C834   H850    1.081   .     S
C835   C837    1.401   .     A
C836   C838    1.402   .     A
C837   H851    1.083   .     S
C837   C839    1.390   .     A
C838   C840    1.390   .     A
C838   H852    1.083   .     S
C839   H853    1.083   .     S
C839   C841    1.404   .     A
C840   H854    1.083   .     S
C840   C842    1.404   .     A
C842   C619    1.471   1_565 S
Cu843  N860    2.017   .     S
Cu843  Cu844   2.685   .     S
Cu843  O861    1.957   .     S
Cu843  O864    1.957   .     S
Cu843  O868    1.957   .     S
Cu843  O865    1.956   .     S
Cu844  N859    2.017   .     S
Cu844  O863    1.957   .     S
Cu844  O867    1.957   .     S
Cu844  O862    1.957   .     S
Cu844  O866    1.956   .     S
H845   C681    1.087   1_655 S
O869   C870    1.412   .     S
C870   H873    1.110   .     S
C870   H872    1.114   .     S
C870   H871    1.109   .     S
O874   C875    1.413   .     S
C875   H878    1.110   .     S
C875   H876    1.109   .     S
C875   H877    1.115   .     S
O879   C880    1.413   .     S
C880   H882    1.110   .     S
C880   H881    1.109   .     S
C880   H883    1.115   .     S
O884   C885    1.412   .     S
C885   H886    1.109   .     S
C885   H887    1.115   .     S
C885   H888    1.111   .     S
