data_str_m2_o1_o17_pcu_sym.190
_audit_creation_date              2020-01-03
_audit_creation_method            'Materials Studio'
_symmetry_space_group_name_H-M    'P1'
_symmetry_Int_Tables_number       1
_symmetry_cell_setting            triclinic
loop_
_symmetry_equiv_pos_as_xyz
  x,y,z
_cell_length_a                    32.4999
_cell_length_b                    28.5411
_cell_length_c                    30.1575
_cell_angle_alpha                 89.9809
_cell_angle_beta                  90.1265
_cell_angle_gamma                 89.9758
loop_
_atom_site_label
_atom_site_type_symbol
_atom_site_fract_x
_atom_site_fract_y
_atom_site_fract_z
_atom_site_U_iso_or_equiv
_atom_site_adp_type
_atom_site_occupancy
C1     C     0.08735   0.16667   0.24995   0.00000  Uiso   1.00
C2     C     0.24598   0.16666   0.25005   0.00000  Uiso   1.00
C3     C     0.12371   0.09500   0.02077   0.00000  Uiso   1.00
C4     C     0.20962   0.23833   0.47923   0.00000  Uiso   1.00
C5     C     0.02130   0.12410   0.24927   0.00000  Uiso   1.00
C6     C     0.31203   0.20924   0.25073   0.00000  Uiso   1.00
C7     C     0.31207   0.12409   0.24936   0.00000  Uiso   1.00
C8     C     0.02127   0.20924   0.25064   0.00000  Uiso   1.00
C9     C     0.29060   0.16666   0.25007   0.00000  Uiso   1.00
C10    C     0.04274   0.16667   0.24993   0.00000  Uiso   1.00
C11    C     0.14061   0.02483   0.22294   0.00000  Uiso   1.00
C12    C     0.19272   0.30850   0.27706   0.00000  Uiso   1.00
C13    C     0.19272   0.02479   0.27706   0.00000  Uiso   1.00
C14    C     0.14062   0.30854   0.22294   0.00000  Uiso   1.00
C15    C     0.16527   0.16667   0.16441   0.00000  Uiso   1.00
C16    C     0.16806   0.16666   0.33560   0.00000  Uiso   1.00
C17    C     0.19243   0.20130   0.40746   0.00000  Uiso   1.00
C18    C     0.14090   0.13203   0.09254   0.00000  Uiso   1.00
C19    C     0.17031   0.16654   0.38392   0.00000  Uiso   1.00
C20    C     0.16302   0.16680   0.11608   0.00000  Uiso   1.00
C21    C     0.14897   0.13160   0.40655   0.00000  Uiso   1.00
C22    C     0.18436   0.20173   0.09345   0.00000  Uiso   1.00
C23    C     0.14774   0.13132   0.45254   0.00000  Uiso   1.00
C24    C     0.18559   0.20201   0.04746   0.00000  Uiso   1.00
C25    C     0.16774   0.16689   0.47669   0.00000  Uiso   1.00
C26    C     0.16559   0.16645   0.02331   0.00000  Uiso   1.00
C27    C     0.18998   0.20267   0.45424   0.00000  Uiso   1.00
C28    C     0.14336   0.13067   0.04576   0.00000  Uiso   1.00
C29    C     0.12617   0.09593   0.47439   0.00000  Uiso   1.00
C30    C     0.20716   0.23740   0.02561   0.00000  Uiso   1.00
Cu31   Cu    0.16667   0.21355   0.25000   0.00000  Uiso   1.00
Cu32   Cu    0.16667   0.11978   0.25000   0.00000  Uiso   1.00
H33    H     0.13246   0.10490   0.38808   0.00000  Uiso   1.00
H34    H     0.20087   0.22843   0.11192   0.00000  Uiso   1.00
H35    H     0.11108   0.06877   0.45519   0.00000  Uiso   1.00
H36    H     0.22225   0.26456   0.04481   0.00000  Uiso   1.00
H37    H     0.03733   0.09081   0.24868   0.00000  Uiso   1.00
H38    H     0.29601   0.24252   0.25132   0.00000  Uiso   1.00
H39    H     0.29607   0.09080   0.24884   0.00000  Uiso   1.00
H40    H     0.03727   0.24253   0.25116   0.00000  Uiso   1.00
H41    H     0.11974   0.04356   0.20129   0.00000  Uiso   1.00
H42    H     0.21359   0.28977   0.29871   0.00000  Uiso   1.00
H43    H     0.21358   0.04349   0.29873   0.00000  Uiso   1.00
H44    H     0.11976   0.28985   0.20127   0.00000  Uiso   1.00
N45    N     0.16667   0.28402   0.25000   0.00000  Uiso   1.00
N46    N     0.16667   0.04931   0.25000   0.00000  Uiso   1.00
O47    O     0.10655   0.20625   0.25000   0.00000  Uiso   1.00
O48    O     0.22679   0.12709   0.25001   0.00000  Uiso   1.00
O49    O     0.22679   0.20625   0.25001   0.00000  Uiso   1.00
O50    O     0.10655   0.12709   0.25000   0.00000  Uiso   1.00
O51    O     0.16666   0.20627   0.18513   0.00000  Uiso   1.00
O52    O     0.16668   0.12707   0.31487   0.00000  Uiso   1.00
O53    O     0.16668   0.20627   0.31487   0.00000  Uiso   1.00
O54    O     0.16666   0.12707   0.18513   0.00000  Uiso   1.00
O55    O     0.21708   0.23329   0.38563   0.00000  Uiso   1.00
H56    H     0.22876   0.21821   0.35889   0.00000  Uiso   1.00
O57    O     0.11626   0.10004   0.11437   0.00000  Uiso   1.00
H58    H     0.10457   0.11513   0.14111   0.00000  Uiso   1.00
O59    O     0.10263   0.05933   0.04187   0.00000  Uiso   1.00
H60    H     0.09107   0.03753   0.01948   0.00000  Uiso   1.00
O61    O     0.23070   0.27400   0.45813   0.00000  Uiso   1.00
H62    H     0.24227   0.29580   0.48052   0.00000  Uiso   1.00
C63    C     0.42068   0.16667   0.24995   0.00000  Uiso   1.00
C64    C     0.57932   0.16666   0.25005   0.00000  Uiso   1.00
C65    C     0.45705   0.09500   0.02077   0.00000  Uiso   1.00
C66    C     0.54295   0.23833   0.47923   0.00000  Uiso   1.00
C67    C     0.35463   0.12410   0.24927   0.00000  Uiso   1.00
C68    C     0.64537   0.20924   0.25073   0.00000  Uiso   1.00
C69    C     0.64540   0.12409   0.24936   0.00000  Uiso   1.00
C70    C     0.35460   0.20924   0.25064   0.00000  Uiso   1.00
C71    C     0.62393   0.16666   0.25007   0.00000  Uiso   1.00
C72    C     0.37607   0.16667   0.24993   0.00000  Uiso   1.00
C73    C     0.47395   0.02483   0.22294   0.00000  Uiso   1.00
C74    C     0.52605   0.30850   0.27706   0.00000  Uiso   1.00
C75    C     0.52605   0.02479   0.27706   0.00000  Uiso   1.00
C76    C     0.47395   0.30854   0.22294   0.00000  Uiso   1.00
C77    C     0.49860   0.16667   0.16441   0.00000  Uiso   1.00
C78    C     0.50140   0.16666   0.33560   0.00000  Uiso   1.00
C79    C     0.52577   0.20130   0.40746   0.00000  Uiso   1.00
C80    C     0.47423   0.13203   0.09254   0.00000  Uiso   1.00
C81    C     0.50364   0.16654   0.38392   0.00000  Uiso   1.00
C82    C     0.49636   0.16680   0.11608   0.00000  Uiso   1.00
C83    C     0.48230   0.13160   0.40655   0.00000  Uiso   1.00
C84    C     0.51770   0.20173   0.09345   0.00000  Uiso   1.00
C85    C     0.48107   0.13132   0.45254   0.00000  Uiso   1.00
C86    C     0.51893   0.20201   0.04746   0.00000  Uiso   1.00
C87    C     0.50108   0.16689   0.47669   0.00000  Uiso   1.00
C88    C     0.49892   0.16645   0.02331   0.00000  Uiso   1.00
C89    C     0.52331   0.20267   0.45424   0.00000  Uiso   1.00
C90    C     0.47669   0.13067   0.04576   0.00000  Uiso   1.00
C91    C     0.45951   0.09593   0.47439   0.00000  Uiso   1.00
C92    C     0.54049   0.23740   0.02561   0.00000  Uiso   1.00
Cu93   Cu    0.50000   0.21355   0.25000   0.00000  Uiso   1.00
Cu94   Cu    0.50000   0.11978   0.25000   0.00000  Uiso   1.00
H95    H     0.46579   0.10490   0.38808   0.00000  Uiso   1.00
H96    H     0.53420   0.22843   0.11192   0.00000  Uiso   1.00
H97    H     0.44442   0.06877   0.45519   0.00000  Uiso   1.00
H98    H     0.55558   0.26456   0.04481   0.00000  Uiso   1.00
H99    H     0.37066   0.09081   0.24868   0.00000  Uiso   1.00
H100   H     0.62934   0.24252   0.25132   0.00000  Uiso   1.00
H101   H     0.62940   0.09080   0.24884   0.00000  Uiso   1.00
H102   H     0.37060   0.24253   0.25116   0.00000  Uiso   1.00
H103   H     0.45307   0.04356   0.20129   0.00000  Uiso   1.00
H104   H     0.54693   0.28977   0.29871   0.00000  Uiso   1.00
H105   H     0.54691   0.04349   0.29873   0.00000  Uiso   1.00
H106   H     0.45309   0.28985   0.20127   0.00000  Uiso   1.00
N107   N     0.50000   0.28402   0.25000   0.00000  Uiso   1.00
N108   N     0.50000   0.04931   0.25000   0.00000  Uiso   1.00
O109   O     0.43988   0.20625   0.25000   0.00000  Uiso   1.00
O110   O     0.56012   0.12709   0.25001   0.00000  Uiso   1.00
O111   O     0.56012   0.20625   0.25001   0.00000  Uiso   1.00
O112   O     0.43988   0.12709   0.25000   0.00000  Uiso   1.00
O113   O     0.49999   0.20627   0.18513   0.00000  Uiso   1.00
O114   O     0.50001   0.12707   0.31487   0.00000  Uiso   1.00
O115   O     0.50001   0.20627   0.31487   0.00000  Uiso   1.00
O116   O     0.49999   0.12707   0.18513   0.00000  Uiso   1.00
O117   O     0.55041   0.23329   0.38563   0.00000  Uiso   1.00
H118   H     0.56210   0.21821   0.35889   0.00000  Uiso   1.00
O119   O     0.44959   0.10004   0.11437   0.00000  Uiso   1.00
H120   H     0.43790   0.11513   0.14111   0.00000  Uiso   1.00
O121   O     0.43597   0.05933   0.04187   0.00000  Uiso   1.00
H122   H     0.42440   0.03753   0.01948   0.00000  Uiso   1.00
O123   O     0.56403   0.27400   0.45813   0.00000  Uiso   1.00
H124   H     0.57560   0.29580   0.48052   0.00000  Uiso   1.00
C125   C     0.75402   0.16667   0.24995   0.00000  Uiso   1.00
C126   C     0.91265   0.16666   0.25005   0.00000  Uiso   1.00
C127   C     0.79038   0.09500   0.02077   0.00000  Uiso   1.00
C128   C     0.87629   0.23833   0.47923   0.00000  Uiso   1.00
C129   C     0.68797   0.12410   0.24927   0.00000  Uiso   1.00
C130   C     0.97870   0.20924   0.25073   0.00000  Uiso   1.00
C131   C     0.97873   0.12409   0.24936   0.00000  Uiso   1.00
C132   C     0.68793   0.20924   0.25064   0.00000  Uiso   1.00
C133   C     0.95726   0.16666   0.25007   0.00000  Uiso   1.00
C134   C     0.70940   0.16667   0.24993   0.00000  Uiso   1.00
C135   C     0.80728   0.02483   0.22294   0.00000  Uiso   1.00
C136   C     0.85939   0.30850   0.27706   0.00000  Uiso   1.00
C137   C     0.85938   0.02479   0.27706   0.00000  Uiso   1.00
C138   C     0.80728   0.30854   0.22294   0.00000  Uiso   1.00
C139   C     0.83194   0.16667   0.16441   0.00000  Uiso   1.00
C140   C     0.83473   0.16666   0.33560   0.00000  Uiso   1.00
C141   C     0.85910   0.20130   0.40746   0.00000  Uiso   1.00
C142   C     0.80757   0.13203   0.09254   0.00000  Uiso   1.00
C143   C     0.83698   0.16654   0.38392   0.00000  Uiso   1.00
C144   C     0.82969   0.16680   0.11608   0.00000  Uiso   1.00
C145   C     0.81564   0.13160   0.40655   0.00000  Uiso   1.00
C146   C     0.85103   0.20173   0.09345   0.00000  Uiso   1.00
C147   C     0.81441   0.13132   0.45254   0.00000  Uiso   1.00
C148   C     0.85226   0.20201   0.04746   0.00000  Uiso   1.00
C149   C     0.83441   0.16689   0.47669   0.00000  Uiso   1.00
C150   C     0.83226   0.16645   0.02331   0.00000  Uiso   1.00
C151   C     0.85664   0.20267   0.45424   0.00000  Uiso   1.00
C152   C     0.81002   0.13067   0.04576   0.00000  Uiso   1.00
C153   C     0.79284   0.09593   0.47439   0.00000  Uiso   1.00
C154   C     0.87383   0.23740   0.02561   0.00000  Uiso   1.00
Cu155  Cu    0.83333   0.21355   0.25000   0.00000  Uiso   1.00
Cu156  Cu    0.83333   0.11978   0.25000   0.00000  Uiso   1.00
H157   H     0.79913   0.10490   0.38808   0.00000  Uiso   1.00
H158   H     0.86754   0.22843   0.11192   0.00000  Uiso   1.00
H159   H     0.77775   0.06877   0.45519   0.00000  Uiso   1.00
H160   H     0.88892   0.26456   0.04481   0.00000  Uiso   1.00
H161   H     0.70399   0.09081   0.24868   0.00000  Uiso   1.00
H162   H     0.96267   0.24252   0.25132   0.00000  Uiso   1.00
H163   H     0.96273   0.09080   0.24884   0.00000  Uiso   1.00
H164   H     0.70393   0.24253   0.25116   0.00000  Uiso   1.00
H165   H     0.78640   0.04356   0.20129   0.00000  Uiso   1.00
H166   H     0.88026   0.28977   0.29871   0.00000  Uiso   1.00
H167   H     0.88024   0.04349   0.29873   0.00000  Uiso   1.00
H168   H     0.78642   0.28985   0.20127   0.00000  Uiso   1.00
N169   N     0.83333   0.28402   0.25000   0.00000  Uiso   1.00
N170   N     0.83333   0.04931   0.25000   0.00000  Uiso   1.00
O171   O     0.77321   0.20625   0.25000   0.00000  Uiso   1.00
O172   O     0.89345   0.12709   0.25001   0.00000  Uiso   1.00
O173   O     0.89345   0.20625   0.25001   0.00000  Uiso   1.00
O174   O     0.77321   0.12709   0.25000   0.00000  Uiso   1.00
O175   O     0.83332   0.20627   0.18513   0.00000  Uiso   1.00
O176   O     0.83334   0.12707   0.31487   0.00000  Uiso   1.00
O177   O     0.83334   0.20627   0.31487   0.00000  Uiso   1.00
O178   O     0.83332   0.12707   0.18513   0.00000  Uiso   1.00
O179   O     0.88374   0.23329   0.38563   0.00000  Uiso   1.00
H180   H     0.89543   0.21821   0.35889   0.00000  Uiso   1.00
O181   O     0.78293   0.10004   0.11437   0.00000  Uiso   1.00
H182   H     0.77124   0.11513   0.14111   0.00000  Uiso   1.00
O183   O     0.76930   0.05933   0.04187   0.00000  Uiso   1.00
H184   H     0.75773   0.03753   0.01948   0.00000  Uiso   1.00
O185   O     0.89737   0.27400   0.45813   0.00000  Uiso   1.00
H186   H     0.90893   0.29580   0.48052   0.00000  Uiso   1.00
C187   C     0.08735   0.50001   0.24995   0.00000  Uiso   1.00
C188   C     0.24598   0.49999   0.25005   0.00000  Uiso   1.00
C189   C     0.12371   0.42834   0.02077   0.00000  Uiso   1.00
C190   C     0.20962   0.57166   0.47923   0.00000  Uiso   1.00
C191   C     0.02130   0.45743   0.24927   0.00000  Uiso   1.00
C192   C     0.31203   0.54257   0.25073   0.00000  Uiso   1.00
C193   C     0.31207   0.45742   0.24936   0.00000  Uiso   1.00
C194   C     0.02127   0.54258   0.25064   0.00000  Uiso   1.00
C195   C     0.29060   0.49999   0.25007   0.00000  Uiso   1.00
C196   C     0.04274   0.50001   0.24993   0.00000  Uiso   1.00
C197   C     0.14061   0.35817   0.22294   0.00000  Uiso   1.00
C198   C     0.19272   0.64183   0.27706   0.00000  Uiso   1.00
C199   C     0.19272   0.35812   0.27706   0.00000  Uiso   1.00
C200   C     0.14062   0.64188   0.22294   0.00000  Uiso   1.00
C201   C     0.16527   0.50000   0.16441   0.00000  Uiso   1.00
C202   C     0.16806   0.50000   0.33560   0.00000  Uiso   1.00
C203   C     0.19243   0.53464   0.40746   0.00000  Uiso   1.00
C204   C     0.14090   0.46536   0.09254   0.00000  Uiso   1.00
C205   C     0.17031   0.49987   0.38392   0.00000  Uiso   1.00
C206   C     0.16302   0.50013   0.11608   0.00000  Uiso   1.00
C207   C     0.14897   0.46494   0.40655   0.00000  Uiso   1.00
C208   C     0.18436   0.53506   0.09345   0.00000  Uiso   1.00
C209   C     0.14774   0.46465   0.45254   0.00000  Uiso   1.00
C210   C     0.18559   0.53535   0.04746   0.00000  Uiso   1.00
C211   C     0.16774   0.50022   0.47669   0.00000  Uiso   1.00
C212   C     0.16559   0.49978   0.02331   0.00000  Uiso   1.00
C213   C     0.18998   0.53600   0.45424   0.00000  Uiso   1.00
C214   C     0.14336   0.46400   0.04576   0.00000  Uiso   1.00
C215   C     0.12617   0.42927   0.47439   0.00000  Uiso   1.00
C216   C     0.20716   0.57073   0.02561   0.00000  Uiso   1.00
Cu217  Cu    0.16667   0.54689   0.25000   0.00000  Uiso   1.00
Cu218  Cu    0.16667   0.45311   0.25000   0.00000  Uiso   1.00
H219   H     0.13246   0.43823   0.38808   0.00000  Uiso   1.00
H220   H     0.20087   0.56177   0.11192   0.00000  Uiso   1.00
H221   H     0.11108   0.40210   0.45519   0.00000  Uiso   1.00
H222   H     0.22225   0.59790   0.04481   0.00000  Uiso   1.00
H223   H     0.03733   0.42415   0.24868   0.00000  Uiso   1.00
H224   H     0.29601   0.57585   0.25132   0.00000  Uiso   1.00
H225   H     0.29607   0.42414   0.24884   0.00000  Uiso   1.00
H226   H     0.03727   0.57586   0.25116   0.00000  Uiso   1.00
H227   H     0.11974   0.37689   0.20129   0.00000  Uiso   1.00
H228   H     0.21359   0.62311   0.29871   0.00000  Uiso   1.00
H229   H     0.21358   0.37682   0.29873   0.00000  Uiso   1.00
H230   H     0.11976   0.62318   0.20127   0.00000  Uiso   1.00
N231   N     0.16667   0.61736   0.25000   0.00000  Uiso   1.00
N232   N     0.16667   0.38264   0.25000   0.00000  Uiso   1.00
O233   O     0.10655   0.53958   0.25000   0.00000  Uiso   1.00
O234   O     0.22679   0.46042   0.25001   0.00000  Uiso   1.00
O235   O     0.22679   0.53958   0.25001   0.00000  Uiso   1.00
O236   O     0.10655   0.46042   0.25000   0.00000  Uiso   1.00
O237   O     0.16666   0.53960   0.18513   0.00000  Uiso   1.00
O238   O     0.16668   0.46040   0.31487   0.00000  Uiso   1.00
O239   O     0.16668   0.53960   0.31487   0.00000  Uiso   1.00
O240   O     0.16666   0.46040   0.18513   0.00000  Uiso   1.00
O241   O     0.21708   0.56662   0.38563   0.00000  Uiso   1.00
H242   H     0.22876   0.55154   0.35889   0.00000  Uiso   1.00
O243   O     0.11626   0.43338   0.11437   0.00000  Uiso   1.00
H244   H     0.10457   0.44846   0.14111   0.00000  Uiso   1.00
O245   O     0.10263   0.39267   0.04187   0.00000  Uiso   1.00
H246   H     0.09107   0.37087   0.01948   0.00000  Uiso   1.00
O247   O     0.23070   0.60733   0.45813   0.00000  Uiso   1.00
H248   H     0.24227   0.62913   0.48052   0.00000  Uiso   1.00
C249   C     0.42068   0.50001   0.24995   0.00000  Uiso   1.00
C250   C     0.57932   0.49999   0.25005   0.00000  Uiso   1.00
C251   C     0.45705   0.42834   0.02077   0.00000  Uiso   1.00
C252   C     0.54295   0.57166   0.47923   0.00000  Uiso   1.00
C253   C     0.35463   0.45743   0.24927   0.00000  Uiso   1.00
C254   C     0.64537   0.54257   0.25073   0.00000  Uiso   1.00
C255   C     0.64540   0.45742   0.24936   0.00000  Uiso   1.00
C256   C     0.35460   0.54258   0.25064   0.00000  Uiso   1.00
C257   C     0.62393   0.49999   0.25007   0.00000  Uiso   1.00
C258   C     0.37607   0.50001   0.24993   0.00000  Uiso   1.00
C259   C     0.47395   0.35817   0.22294   0.00000  Uiso   1.00
C260   C     0.52605   0.64183   0.27706   0.00000  Uiso   1.00
C261   C     0.52605   0.35812   0.27706   0.00000  Uiso   1.00
C262   C     0.47395   0.64188   0.22294   0.00000  Uiso   1.00
C263   C     0.49860   0.50000   0.16441   0.00000  Uiso   1.00
C264   C     0.50140   0.50000   0.33560   0.00000  Uiso   1.00
C265   C     0.52577   0.53464   0.40746   0.00000  Uiso   1.00
C266   C     0.47423   0.46536   0.09254   0.00000  Uiso   1.00
C267   C     0.50364   0.49987   0.38392   0.00000  Uiso   1.00
C268   C     0.49636   0.50013   0.11608   0.00000  Uiso   1.00
C269   C     0.48230   0.46494   0.40655   0.00000  Uiso   1.00
C270   C     0.51770   0.53506   0.09345   0.00000  Uiso   1.00
C271   C     0.48107   0.46465   0.45254   0.00000  Uiso   1.00
C272   C     0.51893   0.53535   0.04746   0.00000  Uiso   1.00
C273   C     0.50108   0.50022   0.47669   0.00000  Uiso   1.00
C274   C     0.49892   0.49978   0.02331   0.00000  Uiso   1.00
C275   C     0.52331   0.53600   0.45424   0.00000  Uiso   1.00
C276   C     0.47669   0.46400   0.04576   0.00000  Uiso   1.00
C277   C     0.45951   0.42927   0.47439   0.00000  Uiso   1.00
C278   C     0.54049   0.57073   0.02561   0.00000  Uiso   1.00
Cu279  Cu    0.50000   0.54689   0.25000   0.00000  Uiso   1.00
Cu280  Cu    0.50000   0.45311   0.25000   0.00000  Uiso   1.00
H281   H     0.46579   0.43823   0.38808   0.00000  Uiso   1.00
H282   H     0.53420   0.56177   0.11192   0.00000  Uiso   1.00
H283   H     0.44442   0.40210   0.45519   0.00000  Uiso   1.00
H284   H     0.55558   0.59790   0.04481   0.00000  Uiso   1.00
H285   H     0.37066   0.42415   0.24868   0.00000  Uiso   1.00
H286   H     0.62934   0.57585   0.25132   0.00000  Uiso   1.00
H287   H     0.62940   0.42414   0.24884   0.00000  Uiso   1.00
H288   H     0.37060   0.57586   0.25116   0.00000  Uiso   1.00
H289   H     0.45307   0.37689   0.20129   0.00000  Uiso   1.00
H290   H     0.54693   0.62311   0.29871   0.00000  Uiso   1.00
H291   H     0.54691   0.37682   0.29873   0.00000  Uiso   1.00
H292   H     0.45309   0.62318   0.20127   0.00000  Uiso   1.00
N293   N     0.50000   0.61736   0.25000   0.00000  Uiso   1.00
N294   N     0.50000   0.38264   0.25000   0.00000  Uiso   1.00
O295   O     0.43988   0.53958   0.25000   0.00000  Uiso   1.00
O296   O     0.56012   0.46042   0.25001   0.00000  Uiso   1.00
O297   O     0.56012   0.53958   0.25001   0.00000  Uiso   1.00
O298   O     0.43988   0.46042   0.25000   0.00000  Uiso   1.00
O299   O     0.49999   0.53960   0.18513   0.00000  Uiso   1.00
O300   O     0.50001   0.46040   0.31487   0.00000  Uiso   1.00
O301   O     0.50001   0.53960   0.31487   0.00000  Uiso   1.00
O302   O     0.49999   0.46040   0.18513   0.00000  Uiso   1.00
O303   O     0.55041   0.56662   0.38563   0.00000  Uiso   1.00
H304   H     0.56210   0.55154   0.35889   0.00000  Uiso   1.00
O305   O     0.44959   0.43338   0.11437   0.00000  Uiso   1.00
H306   H     0.43790   0.44846   0.14111   0.00000  Uiso   1.00
O307   O     0.43597   0.39267   0.04187   0.00000  Uiso   1.00
H308   H     0.42440   0.37087   0.01948   0.00000  Uiso   1.00
O309   O     0.56403   0.60733   0.45813   0.00000  Uiso   1.00
H310   H     0.57560   0.62913   0.48052   0.00000  Uiso   1.00
C311   C     0.75402   0.50001   0.24995   0.00000  Uiso   1.00
C312   C     0.91265   0.49999   0.25005   0.00000  Uiso   1.00
C313   C     0.79038   0.42834   0.02077   0.00000  Uiso   1.00
C314   C     0.87629   0.57166   0.47923   0.00000  Uiso   1.00
C315   C     0.68797   0.45743   0.24927   0.00000  Uiso   1.00
C316   C     0.97870   0.54257   0.25073   0.00000  Uiso   1.00
C317   C     0.97873   0.45742   0.24936   0.00000  Uiso   1.00
C318   C     0.68793   0.54258   0.25064   0.00000  Uiso   1.00
C319   C     0.95726   0.49999   0.25007   0.00000  Uiso   1.00
C320   C     0.70940   0.50001   0.24993   0.00000  Uiso   1.00
C321   C     0.80728   0.35817   0.22294   0.00000  Uiso   1.00
C322   C     0.85939   0.64183   0.27706   0.00000  Uiso   1.00
C323   C     0.85938   0.35812   0.27706   0.00000  Uiso   1.00
C324   C     0.80728   0.64188   0.22294   0.00000  Uiso   1.00
C325   C     0.83194   0.50000   0.16441   0.00000  Uiso   1.00
C326   C     0.83473   0.50000   0.33560   0.00000  Uiso   1.00
C327   C     0.85910   0.53464   0.40746   0.00000  Uiso   1.00
C328   C     0.80757   0.46536   0.09254   0.00000  Uiso   1.00
C329   C     0.83698   0.49987   0.38392   0.00000  Uiso   1.00
C330   C     0.82969   0.50013   0.11608   0.00000  Uiso   1.00
C331   C     0.81564   0.46494   0.40655   0.00000  Uiso   1.00
C332   C     0.85103   0.53506   0.09345   0.00000  Uiso   1.00
C333   C     0.81441   0.46465   0.45254   0.00000  Uiso   1.00
C334   C     0.85226   0.53535   0.04746   0.00000  Uiso   1.00
C335   C     0.83441   0.50022   0.47669   0.00000  Uiso   1.00
C336   C     0.83226   0.49978   0.02331   0.00000  Uiso   1.00
C337   C     0.85664   0.53600   0.45424   0.00000  Uiso   1.00
C338   C     0.81002   0.46400   0.04576   0.00000  Uiso   1.00
C339   C     0.79284   0.42927   0.47439   0.00000  Uiso   1.00
C340   C     0.87383   0.57073   0.02561   0.00000  Uiso   1.00
Cu341  Cu    0.83333   0.54689   0.25000   0.00000  Uiso   1.00
Cu342  Cu    0.83333   0.45311   0.25000   0.00000  Uiso   1.00
H343   H     0.79913   0.43823   0.38808   0.00000  Uiso   1.00
H344   H     0.86754   0.56177   0.11192   0.00000  Uiso   1.00
H345   H     0.77775   0.40210   0.45519   0.00000  Uiso   1.00
H346   H     0.88892   0.59790   0.04481   0.00000  Uiso   1.00
H347   H     0.70399   0.42415   0.24868   0.00000  Uiso   1.00
H348   H     0.96267   0.57585   0.25132   0.00000  Uiso   1.00
H349   H     0.96273   0.42414   0.24884   0.00000  Uiso   1.00
H350   H     0.70393   0.57586   0.25116   0.00000  Uiso   1.00
H351   H     0.78640   0.37689   0.20129   0.00000  Uiso   1.00
H352   H     0.88026   0.62311   0.29871   0.00000  Uiso   1.00
H353   H     0.88024   0.37682   0.29873   0.00000  Uiso   1.00
H354   H     0.78642   0.62318   0.20127   0.00000  Uiso   1.00
N355   N     0.83333   0.61736   0.25000   0.00000  Uiso   1.00
N356   N     0.83333   0.38264   0.25000   0.00000  Uiso   1.00
O357   O     0.77321   0.53958   0.25000   0.00000  Uiso   1.00
O358   O     0.89345   0.46042   0.25001   0.00000  Uiso   1.00
O359   O     0.89345   0.53958   0.25001   0.00000  Uiso   1.00
O360   O     0.77321   0.46042   0.25000   0.00000  Uiso   1.00
O361   O     0.83332   0.53960   0.18513   0.00000  Uiso   1.00
O362   O     0.83334   0.46040   0.31487   0.00000  Uiso   1.00
O363   O     0.83334   0.53960   0.31487   0.00000  Uiso   1.00
O364   O     0.83332   0.46040   0.18513   0.00000  Uiso   1.00
O365   O     0.88374   0.56662   0.38563   0.00000  Uiso   1.00
H366   H     0.89543   0.55154   0.35889   0.00000  Uiso   1.00
O367   O     0.78293   0.43338   0.11437   0.00000  Uiso   1.00
H368   H     0.77124   0.44846   0.14111   0.00000  Uiso   1.00
O369   O     0.76930   0.39267   0.04187   0.00000  Uiso   1.00
H370   H     0.75773   0.37087   0.01948   0.00000  Uiso   1.00
O371   O     0.89737   0.60733   0.45813   0.00000  Uiso   1.00
H372   H     0.90893   0.62913   0.48052   0.00000  Uiso   1.00
C373   C     0.08735   0.83334   0.24995   0.00000  Uiso   1.00
C374   C     0.24598   0.83333   0.25005   0.00000  Uiso   1.00
C375   C     0.12371   0.76167   0.02077   0.00000  Uiso   1.00
C376   C     0.20962   0.90500   0.47923   0.00000  Uiso   1.00
C377   C     0.02130   0.79076   0.24927   0.00000  Uiso   1.00
C378   C     0.31203   0.87590   0.25073   0.00000  Uiso   1.00
C379   C     0.31207   0.79076   0.24936   0.00000  Uiso   1.00
C380   C     0.02127   0.87591   0.25064   0.00000  Uiso   1.00
C381   C     0.29060   0.83333   0.25007   0.00000  Uiso   1.00
C382   C     0.04274   0.83334   0.24993   0.00000  Uiso   1.00
C383   C     0.14061   0.69150   0.22294   0.00000  Uiso   1.00
C384   C     0.19272   0.97517   0.27706   0.00000  Uiso   1.00
C385   C     0.19272   0.69146   0.27706   0.00000  Uiso   1.00
C386   C     0.14062   0.97521   0.22294   0.00000  Uiso   1.00
C387   C     0.16527   0.83334   0.16441   0.00000  Uiso   1.00
C388   C     0.16806   0.83333   0.33560   0.00000  Uiso   1.00
C389   C     0.19243   0.86797   0.40746   0.00000  Uiso   1.00
C390   C     0.14090   0.79870   0.09254   0.00000  Uiso   1.00
C391   C     0.17031   0.83320   0.38392   0.00000  Uiso   1.00
C392   C     0.16302   0.83346   0.11608   0.00000  Uiso   1.00
C393   C     0.14897   0.79827   0.40655   0.00000  Uiso   1.00
C394   C     0.18436   0.86840   0.09345   0.00000  Uiso   1.00
C395   C     0.14774   0.79799   0.45254   0.00000  Uiso   1.00
C396   C     0.18559   0.86868   0.04746   0.00000  Uiso   1.00
C397   C     0.16774   0.83355   0.47669   0.00000  Uiso   1.00
C398   C     0.16559   0.83311   0.02331   0.00000  Uiso   1.00
C399   C     0.18998   0.86933   0.45424   0.00000  Uiso   1.00
C400   C     0.14336   0.79733   0.04576   0.00000  Uiso   1.00
C401   C     0.12617   0.76260   0.47439   0.00000  Uiso   1.00
C402   C     0.20716   0.90407   0.02561   0.00000  Uiso   1.00
Cu403  Cu    0.16667   0.88022   0.25000   0.00000  Uiso   1.00
Cu404  Cu    0.16667   0.78645   0.25000   0.00000  Uiso   1.00
H405   H     0.13246   0.77156   0.38808   0.00000  Uiso   1.00
H406   H     0.20087   0.89510   0.11192   0.00000  Uiso   1.00
H407   H     0.11108   0.73544   0.45519   0.00000  Uiso   1.00
H408   H     0.22225   0.93123   0.04481   0.00000  Uiso   1.00
H409   H     0.03733   0.75748   0.24868   0.00000  Uiso   1.00
H410   H     0.29601   0.90919   0.25132   0.00000  Uiso   1.00
H411   H     0.29607   0.75747   0.24884   0.00000  Uiso   1.00
H412   H     0.03727   0.90920   0.25116   0.00000  Uiso   1.00
H413   H     0.11974   0.71023   0.20129   0.00000  Uiso   1.00
H414   H     0.21359   0.95644   0.29871   0.00000  Uiso   1.00
H415   H     0.21358   0.71015   0.29873   0.00000  Uiso   1.00
H416   H     0.11976   0.95651   0.20127   0.00000  Uiso   1.00
N417   N     0.16667   0.95069   0.25000   0.00000  Uiso   1.00
N418   N     0.16667   0.71598   0.25000   0.00000  Uiso   1.00
O419   O     0.10655   0.87291   0.25000   0.00000  Uiso   1.00
O420   O     0.22679   0.79375   0.25001   0.00000  Uiso   1.00
O421   O     0.22679   0.87291   0.25001   0.00000  Uiso   1.00
O422   O     0.10655   0.79375   0.25000   0.00000  Uiso   1.00
O423   O     0.16666   0.87293   0.18513   0.00000  Uiso   1.00
O424   O     0.16668   0.79373   0.31487   0.00000  Uiso   1.00
O425   O     0.16668   0.87293   0.31487   0.00000  Uiso   1.00
O426   O     0.16666   0.79373   0.18513   0.00000  Uiso   1.00
O427   O     0.21708   0.89996   0.38563   0.00000  Uiso   1.00
H428   H     0.22876   0.88487   0.35889   0.00000  Uiso   1.00
O429   O     0.11626   0.76671   0.11437   0.00000  Uiso   1.00
H430   H     0.10457   0.78179   0.14111   0.00000  Uiso   1.00
O431   O     0.10263   0.72600   0.04187   0.00000  Uiso   1.00
H432   H     0.09107   0.70420   0.01948   0.00000  Uiso   1.00
O433   O     0.23070   0.94067   0.45813   0.00000  Uiso   1.00
H434   H     0.24227   0.96246   0.48052   0.00000  Uiso   1.00
C435   C     0.42068   0.83334   0.24995   0.00000  Uiso   1.00
C436   C     0.57932   0.83333   0.25005   0.00000  Uiso   1.00
C437   C     0.45705   0.76167   0.02077   0.00000  Uiso   1.00
C438   C     0.54295   0.90500   0.47923   0.00000  Uiso   1.00
C439   C     0.35463   0.79076   0.24927   0.00000  Uiso   1.00
C440   C     0.64537   0.87590   0.25073   0.00000  Uiso   1.00
C441   C     0.64540   0.79076   0.24936   0.00000  Uiso   1.00
C442   C     0.35460   0.87591   0.25064   0.00000  Uiso   1.00
C443   C     0.62393   0.83333   0.25007   0.00000  Uiso   1.00
C444   C     0.37607   0.83334   0.24993   0.00000  Uiso   1.00
C445   C     0.47395   0.69150   0.22294   0.00000  Uiso   1.00
C446   C     0.52605   0.97517   0.27706   0.00000  Uiso   1.00
C447   C     0.52605   0.69146   0.27706   0.00000  Uiso   1.00
C448   C     0.47395   0.97521   0.22294   0.00000  Uiso   1.00
C449   C     0.49860   0.83334   0.16441   0.00000  Uiso   1.00
C450   C     0.50140   0.83333   0.33560   0.00000  Uiso   1.00
C451   C     0.52577   0.86797   0.40746   0.00000  Uiso   1.00
C452   C     0.47423   0.79870   0.09254   0.00000  Uiso   1.00
C453   C     0.50364   0.83320   0.38392   0.00000  Uiso   1.00
C454   C     0.49636   0.83346   0.11608   0.00000  Uiso   1.00
C455   C     0.48230   0.79827   0.40655   0.00000  Uiso   1.00
C456   C     0.51770   0.86840   0.09345   0.00000  Uiso   1.00
C457   C     0.48107   0.79799   0.45254   0.00000  Uiso   1.00
C458   C     0.51893   0.86868   0.04746   0.00000  Uiso   1.00
C459   C     0.50108   0.83355   0.47669   0.00000  Uiso   1.00
C460   C     0.49892   0.83311   0.02331   0.00000  Uiso   1.00
C461   C     0.52331   0.86933   0.45424   0.00000  Uiso   1.00
C462   C     0.47669   0.79733   0.04576   0.00000  Uiso   1.00
C463   C     0.45951   0.76260   0.47439   0.00000  Uiso   1.00
C464   C     0.54049   0.90407   0.02561   0.00000  Uiso   1.00
Cu465  Cu    0.50000   0.88022   0.25000   0.00000  Uiso   1.00
Cu466  Cu    0.50000   0.78645   0.25000   0.00000  Uiso   1.00
H467   H     0.46579   0.77156   0.38808   0.00000  Uiso   1.00
H468   H     0.53420   0.89510   0.11192   0.00000  Uiso   1.00
H469   H     0.44442   0.73544   0.45519   0.00000  Uiso   1.00
H470   H     0.55558   0.93123   0.04481   0.00000  Uiso   1.00
H471   H     0.37066   0.75748   0.24868   0.00000  Uiso   1.00
H472   H     0.62934   0.90919   0.25132   0.00000  Uiso   1.00
H473   H     0.62940   0.75747   0.24884   0.00000  Uiso   1.00
H474   H     0.37060   0.90920   0.25116   0.00000  Uiso   1.00
H475   H     0.45307   0.71023   0.20129   0.00000  Uiso   1.00
H476   H     0.54693   0.95644   0.29871   0.00000  Uiso   1.00
H477   H     0.54691   0.71015   0.29873   0.00000  Uiso   1.00
H478   H     0.45309   0.95651   0.20127   0.00000  Uiso   1.00
N479   N     0.50000   0.95069   0.25000   0.00000  Uiso   1.00
N480   N     0.50000   0.71598   0.25000   0.00000  Uiso   1.00
O481   O     0.43988   0.87291   0.25000   0.00000  Uiso   1.00
O482   O     0.56012   0.79375   0.25001   0.00000  Uiso   1.00
O483   O     0.56012   0.87291   0.25001   0.00000  Uiso   1.00
O484   O     0.43988   0.79375   0.25000   0.00000  Uiso   1.00
O485   O     0.49999   0.87293   0.18513   0.00000  Uiso   1.00
O486   O     0.50001   0.79373   0.31487   0.00000  Uiso   1.00
O487   O     0.50001   0.87293   0.31487   0.00000  Uiso   1.00
O488   O     0.49999   0.79373   0.18513   0.00000  Uiso   1.00
O489   O     0.55041   0.89996   0.38563   0.00000  Uiso   1.00
H490   H     0.56210   0.88487   0.35889   0.00000  Uiso   1.00
O491   O     0.44959   0.76671   0.11437   0.00000  Uiso   1.00
H492   H     0.43790   0.78179   0.14111   0.00000  Uiso   1.00
O493   O     0.43597   0.72600   0.04187   0.00000  Uiso   1.00
H494   H     0.42440   0.70420   0.01948   0.00000  Uiso   1.00
O495   O     0.56403   0.94067   0.45813   0.00000  Uiso   1.00
H496   H     0.57560   0.96246   0.48052   0.00000  Uiso   1.00
C497   C     0.75402   0.83334   0.24995   0.00000  Uiso   1.00
C498   C     0.91265   0.83333   0.25005   0.00000  Uiso   1.00
C499   C     0.79038   0.76167   0.02077   0.00000  Uiso   1.00
C500   C     0.87629   0.90500   0.47923   0.00000  Uiso   1.00
C501   C     0.68797   0.79076   0.24927   0.00000  Uiso   1.00
C502   C     0.97870   0.87590   0.25073   0.00000  Uiso   1.00
C503   C     0.97873   0.79076   0.24936   0.00000  Uiso   1.00
C504   C     0.68793   0.87591   0.25064   0.00000  Uiso   1.00
C505   C     0.95726   0.83333   0.25007   0.00000  Uiso   1.00
C506   C     0.70940   0.83334   0.24993   0.00000  Uiso   1.00
C507   C     0.80728   0.69150   0.22294   0.00000  Uiso   1.00
C508   C     0.85939   0.97517   0.27706   0.00000  Uiso   1.00
C509   C     0.85938   0.69146   0.27706   0.00000  Uiso   1.00
C510   C     0.80728   0.97521   0.22294   0.00000  Uiso   1.00
C511   C     0.83194   0.83334   0.16441   0.00000  Uiso   1.00
C512   C     0.83473   0.83333   0.33560   0.00000  Uiso   1.00
C513   C     0.85910   0.86797   0.40746   0.00000  Uiso   1.00
C514   C     0.80757   0.79870   0.09254   0.00000  Uiso   1.00
C515   C     0.83698   0.83320   0.38392   0.00000  Uiso   1.00
C516   C     0.82969   0.83346   0.11608   0.00000  Uiso   1.00
C517   C     0.81564   0.79827   0.40655   0.00000  Uiso   1.00
C518   C     0.85103   0.86840   0.09345   0.00000  Uiso   1.00
C519   C     0.81441   0.79799   0.45254   0.00000  Uiso   1.00
C520   C     0.85226   0.86868   0.04746   0.00000  Uiso   1.00
C521   C     0.83441   0.83355   0.47669   0.00000  Uiso   1.00
C522   C     0.83226   0.83311   0.02331   0.00000  Uiso   1.00
C523   C     0.85664   0.86933   0.45424   0.00000  Uiso   1.00
C524   C     0.81002   0.79733   0.04576   0.00000  Uiso   1.00
C525   C     0.79284   0.76260   0.47439   0.00000  Uiso   1.00
C526   C     0.87383   0.90407   0.02561   0.00000  Uiso   1.00
Cu527  Cu    0.83333   0.88022   0.25000   0.00000  Uiso   1.00
Cu528  Cu    0.83333   0.78645   0.25000   0.00000  Uiso   1.00
H529   H     0.79913   0.77156   0.38808   0.00000  Uiso   1.00
H530   H     0.86754   0.89510   0.11192   0.00000  Uiso   1.00
H531   H     0.77775   0.73544   0.45519   0.00000  Uiso   1.00
H532   H     0.88892   0.93123   0.04481   0.00000  Uiso   1.00
H533   H     0.70399   0.75748   0.24868   0.00000  Uiso   1.00
H534   H     0.96267   0.90919   0.25132   0.00000  Uiso   1.00
H535   H     0.96273   0.75747   0.24884   0.00000  Uiso   1.00
H536   H     0.70393   0.90920   0.25116   0.00000  Uiso   1.00
H537   H     0.78640   0.71023   0.20129   0.00000  Uiso   1.00
H538   H     0.88026   0.95644   0.29871   0.00000  Uiso   1.00
H539   H     0.88024   0.71015   0.29873   0.00000  Uiso   1.00
H540   H     0.78642   0.95651   0.20127   0.00000  Uiso   1.00
N541   N     0.83333   0.95069   0.25000   0.00000  Uiso   1.00
N542   N     0.83333   0.71598   0.25000   0.00000  Uiso   1.00
O543   O     0.77321   0.87291   0.25000   0.00000  Uiso   1.00
O544   O     0.89345   0.79375   0.25001   0.00000  Uiso   1.00
O545   O     0.89345   0.87291   0.25001   0.00000  Uiso   1.00
O546   O     0.77321   0.79375   0.25000   0.00000  Uiso   1.00
O547   O     0.83332   0.87293   0.18513   0.00000  Uiso   1.00
O548   O     0.83334   0.79373   0.31487   0.00000  Uiso   1.00
O549   O     0.83334   0.87293   0.31487   0.00000  Uiso   1.00
O550   O     0.83332   0.79373   0.18513   0.00000  Uiso   1.00
O551   O     0.88374   0.89996   0.38563   0.00000  Uiso   1.00
H552   H     0.89543   0.88487   0.35889   0.00000  Uiso   1.00
O553   O     0.78293   0.76671   0.11437   0.00000  Uiso   1.00
H554   H     0.77124   0.78179   0.14111   0.00000  Uiso   1.00
O555   O     0.76930   0.72600   0.04187   0.00000  Uiso   1.00
H556   H     0.75773   0.70420   0.01948   0.00000  Uiso   1.00
O557   O     0.89737   0.94067   0.45813   0.00000  Uiso   1.00
H558   H     0.90893   0.96246   0.48052   0.00000  Uiso   1.00
C559   C     0.08735   0.16667   0.74995   0.00000  Uiso   1.00
C560   C     0.24598   0.16666   0.75005   0.00000  Uiso   1.00
C561   C     0.12371   0.09500   0.52077   0.00000  Uiso   1.00
C562   C     0.20962   0.23833   0.97923   0.00000  Uiso   1.00
C563   C     0.02130   0.12410   0.74927   0.00000  Uiso   1.00
C564   C     0.31203   0.20924   0.75073   0.00000  Uiso   1.00
C565   C     0.31207   0.12409   0.74936   0.00000  Uiso   1.00
C566   C     0.02127   0.20924   0.75064   0.00000  Uiso   1.00
C567   C     0.29060   0.16666   0.75007   0.00000  Uiso   1.00
C568   C     0.04274   0.16667   0.74993   0.00000  Uiso   1.00
C569   C     0.14061   0.02483   0.72294   0.00000  Uiso   1.00
C570   C     0.19272   0.30850   0.77706   0.00000  Uiso   1.00
C571   C     0.19272   0.02479   0.77706   0.00000  Uiso   1.00
C572   C     0.14062   0.30854   0.72294   0.00000  Uiso   1.00
C573   C     0.16527   0.16667   0.66441   0.00000  Uiso   1.00
C574   C     0.16806   0.16666   0.83560   0.00000  Uiso   1.00
C575   C     0.19243   0.20130   0.90746   0.00000  Uiso   1.00
C576   C     0.14090   0.13203   0.59254   0.00000  Uiso   1.00
C577   C     0.17031   0.16654   0.88392   0.00000  Uiso   1.00
C578   C     0.16302   0.16680   0.61608   0.00000  Uiso   1.00
C579   C     0.14897   0.13160   0.90655   0.00000  Uiso   1.00
C580   C     0.18436   0.20173   0.59345   0.00000  Uiso   1.00
C581   C     0.14774   0.13132   0.95254   0.00000  Uiso   1.00
C582   C     0.18559   0.20201   0.54746   0.00000  Uiso   1.00
C583   C     0.16774   0.16689   0.97669   0.00000  Uiso   1.00
C584   C     0.16559   0.16645   0.52331   0.00000  Uiso   1.00
C585   C     0.18998   0.20267   0.95424   0.00000  Uiso   1.00
C586   C     0.14336   0.13067   0.54576   0.00000  Uiso   1.00
C587   C     0.12617   0.09593   0.97439   0.00000  Uiso   1.00
C588   C     0.20716   0.23740   0.52561   0.00000  Uiso   1.00
Cu589  Cu    0.16667   0.21355   0.75000   0.00000  Uiso   1.00
Cu590  Cu    0.16667   0.11978   0.75000   0.00000  Uiso   1.00
H591   H     0.13246   0.10490   0.88808   0.00000  Uiso   1.00
H592   H     0.20087   0.22843   0.61192   0.00000  Uiso   1.00
H593   H     0.11108   0.06877   0.95519   0.00000  Uiso   1.00
H594   H     0.22225   0.26456   0.54481   0.00000  Uiso   1.00
H595   H     0.03733   0.09081   0.74868   0.00000  Uiso   1.00
H596   H     0.29601   0.24252   0.75132   0.00000  Uiso   1.00
H597   H     0.29607   0.09080   0.74884   0.00000  Uiso   1.00
H598   H     0.03727   0.24253   0.75116   0.00000  Uiso   1.00
H599   H     0.11974   0.04356   0.70129   0.00000  Uiso   1.00
H600   H     0.21359   0.28977   0.79871   0.00000  Uiso   1.00
H601   H     0.21358   0.04349   0.79873   0.00000  Uiso   1.00
H602   H     0.11976   0.28985   0.70127   0.00000  Uiso   1.00
N603   N     0.16667   0.28402   0.75000   0.00000  Uiso   1.00
N604   N     0.16667   0.04931   0.75000   0.00000  Uiso   1.00
O605   O     0.10655   0.20625   0.75000   0.00000  Uiso   1.00
O606   O     0.22679   0.12709   0.75001   0.00000  Uiso   1.00
O607   O     0.22679   0.20625   0.75001   0.00000  Uiso   1.00
O608   O     0.10655   0.12709   0.75000   0.00000  Uiso   1.00
O609   O     0.16666   0.20627   0.68513   0.00000  Uiso   1.00
O610   O     0.16668   0.12707   0.81487   0.00000  Uiso   1.00
O611   O     0.16668   0.20627   0.81487   0.00000  Uiso   1.00
O612   O     0.16666   0.12707   0.68513   0.00000  Uiso   1.00
O613   O     0.21708   0.23329   0.88563   0.00000  Uiso   1.00
H614   H     0.22876   0.21821   0.85889   0.00000  Uiso   1.00
O615   O     0.11626   0.10004   0.61437   0.00000  Uiso   1.00
H616   H     0.10457   0.11513   0.64111   0.00000  Uiso   1.00
O617   O     0.10263   0.05933   0.54187   0.00000  Uiso   1.00
H618   H     0.09107   0.03753   0.51948   0.00000  Uiso   1.00
O619   O     0.23070   0.27400   0.95813   0.00000  Uiso   1.00
H620   H     0.24227   0.29580   0.98052   0.00000  Uiso   1.00
C621   C     0.42068   0.16667   0.74995   0.00000  Uiso   1.00
C622   C     0.57932   0.16666   0.75005   0.00000  Uiso   1.00
C623   C     0.45705   0.09500   0.52077   0.00000  Uiso   1.00
C624   C     0.54295   0.23833   0.97923   0.00000  Uiso   1.00
C625   C     0.35463   0.12410   0.74927   0.00000  Uiso   1.00
C626   C     0.64537   0.20924   0.75073   0.00000  Uiso   1.00
C627   C     0.64540   0.12409   0.74936   0.00000  Uiso   1.00
C628   C     0.35460   0.20924   0.75064   0.00000  Uiso   1.00
C629   C     0.62393   0.16666   0.75007   0.00000  Uiso   1.00
C630   C     0.37607   0.16667   0.74993   0.00000  Uiso   1.00
C631   C     0.47395   0.02483   0.72294   0.00000  Uiso   1.00
C632   C     0.52605   0.30850   0.77706   0.00000  Uiso   1.00
C633   C     0.52605   0.02479   0.77706   0.00000  Uiso   1.00
C634   C     0.47395   0.30854   0.72294   0.00000  Uiso   1.00
C635   C     0.49860   0.16667   0.66441   0.00000  Uiso   1.00
C636   C     0.50140   0.16666   0.83560   0.00000  Uiso   1.00
C637   C     0.52577   0.20130   0.90746   0.00000  Uiso   1.00
C638   C     0.47423   0.13203   0.59254   0.00000  Uiso   1.00
C639   C     0.50364   0.16654   0.88392   0.00000  Uiso   1.00
C640   C     0.49636   0.16680   0.61608   0.00000  Uiso   1.00
C641   C     0.48230   0.13160   0.90655   0.00000  Uiso   1.00
C642   C     0.51770   0.20173   0.59345   0.00000  Uiso   1.00
C643   C     0.48107   0.13132   0.95254   0.00000  Uiso   1.00
C644   C     0.51893   0.20201   0.54746   0.00000  Uiso   1.00
C645   C     0.50108   0.16689   0.97669   0.00000  Uiso   1.00
C646   C     0.49892   0.16645   0.52331   0.00000  Uiso   1.00
C647   C     0.52331   0.20267   0.95424   0.00000  Uiso   1.00
C648   C     0.47669   0.13067   0.54576   0.00000  Uiso   1.00
C649   C     0.45951   0.09593   0.97439   0.00000  Uiso   1.00
C650   C     0.54049   0.23740   0.52561   0.00000  Uiso   1.00
Cu651  Cu    0.50000   0.21355   0.75000   0.00000  Uiso   1.00
Cu652  Cu    0.50000   0.11978   0.75000   0.00000  Uiso   1.00
H653   H     0.46579   0.10490   0.88808   0.00000  Uiso   1.00
H654   H     0.53420   0.22843   0.61192   0.00000  Uiso   1.00
H655   H     0.44442   0.06877   0.95519   0.00000  Uiso   1.00
H656   H     0.55558   0.26456   0.54481   0.00000  Uiso   1.00
H657   H     0.37066   0.09081   0.74868   0.00000  Uiso   1.00
H658   H     0.62934   0.24252   0.75132   0.00000  Uiso   1.00
H659   H     0.62940   0.09080   0.74884   0.00000  Uiso   1.00
H660   H     0.37060   0.24253   0.75116   0.00000  Uiso   1.00
H661   H     0.45307   0.04356   0.70129   0.00000  Uiso   1.00
H662   H     0.54693   0.28977   0.79871   0.00000  Uiso   1.00
H663   H     0.54691   0.04349   0.79873   0.00000  Uiso   1.00
H664   H     0.45309   0.28985   0.70127   0.00000  Uiso   1.00
N665   N     0.50000   0.28402   0.75000   0.00000  Uiso   1.00
N666   N     0.50000   0.04931   0.75000   0.00000  Uiso   1.00
O667   O     0.43988   0.20625   0.75000   0.00000  Uiso   1.00
O668   O     0.56012   0.12709   0.75001   0.00000  Uiso   1.00
O669   O     0.56012   0.20625   0.75001   0.00000  Uiso   1.00
O670   O     0.43988   0.12709   0.75000   0.00000  Uiso   1.00
O671   O     0.49999   0.20627   0.68513   0.00000  Uiso   1.00
O672   O     0.50001   0.12707   0.81487   0.00000  Uiso   1.00
O673   O     0.50001   0.20627   0.81487   0.00000  Uiso   1.00
O674   O     0.49999   0.12707   0.68513   0.00000  Uiso   1.00
O675   O     0.55041   0.23329   0.88563   0.00000  Uiso   1.00
H676   H     0.56210   0.21821   0.85889   0.00000  Uiso   1.00
O677   O     0.44959   0.10004   0.61437   0.00000  Uiso   1.00
H678   H     0.43790   0.11513   0.64111   0.00000  Uiso   1.00
O679   O     0.43597   0.05933   0.54187   0.00000  Uiso   1.00
H680   H     0.42440   0.03753   0.51948   0.00000  Uiso   1.00
O681   O     0.56403   0.27400   0.95813   0.00000  Uiso   1.00
H682   H     0.57560   0.29580   0.98052   0.00000  Uiso   1.00
C683   C     0.75402   0.16667   0.74995   0.00000  Uiso   1.00
C684   C     0.91265   0.16666   0.75005   0.00000  Uiso   1.00
C685   C     0.79038   0.09500   0.52077   0.00000  Uiso   1.00
C686   C     0.87629   0.23833   0.97923   0.00000  Uiso   1.00
C687   C     0.68797   0.12410   0.74927   0.00000  Uiso   1.00
C688   C     0.97870   0.20924   0.75073   0.00000  Uiso   1.00
C689   C     0.97873   0.12409   0.74936   0.00000  Uiso   1.00
C690   C     0.68793   0.20924   0.75064   0.00000  Uiso   1.00
C691   C     0.95726   0.16666   0.75007   0.00000  Uiso   1.00
C692   C     0.70940   0.16667   0.74993   0.00000  Uiso   1.00
C693   C     0.80728   0.02483   0.72294   0.00000  Uiso   1.00
C694   C     0.85939   0.30850   0.77706   0.00000  Uiso   1.00
C695   C     0.85938   0.02479   0.77706   0.00000  Uiso   1.00
C696   C     0.80728   0.30854   0.72294   0.00000  Uiso   1.00
C697   C     0.83194   0.16667   0.66441   0.00000  Uiso   1.00
C698   C     0.83473   0.16666   0.83560   0.00000  Uiso   1.00
C699   C     0.85910   0.20130   0.90746   0.00000  Uiso   1.00
C700   C     0.80757   0.13203   0.59254   0.00000  Uiso   1.00
C701   C     0.83698   0.16654   0.88392   0.00000  Uiso   1.00
C702   C     0.82969   0.16680   0.61608   0.00000  Uiso   1.00
C703   C     0.81564   0.13160   0.90655   0.00000  Uiso   1.00
C704   C     0.85103   0.20173   0.59345   0.00000  Uiso   1.00
C705   C     0.81441   0.13132   0.95254   0.00000  Uiso   1.00
C706   C     0.85226   0.20201   0.54746   0.00000  Uiso   1.00
C707   C     0.83441   0.16689   0.97669   0.00000  Uiso   1.00
C708   C     0.83226   0.16645   0.52331   0.00000  Uiso   1.00
C709   C     0.85664   0.20267   0.95424   0.00000  Uiso   1.00
C710   C     0.81002   0.13067   0.54576   0.00000  Uiso   1.00
C711   C     0.79284   0.09593   0.97439   0.00000  Uiso   1.00
C712   C     0.87383   0.23740   0.52561   0.00000  Uiso   1.00
Cu713  Cu    0.83333   0.21355   0.75000   0.00000  Uiso   1.00
Cu714  Cu    0.83333   0.11978   0.75000   0.00000  Uiso   1.00
H715   H     0.79913   0.10490   0.88808   0.00000  Uiso   1.00
H716   H     0.86754   0.22843   0.61192   0.00000  Uiso   1.00
H717   H     0.77775   0.06877   0.95519   0.00000  Uiso   1.00
H718   H     0.88892   0.26456   0.54481   0.00000  Uiso   1.00
H719   H     0.70399   0.09081   0.74868   0.00000  Uiso   1.00
H720   H     0.96267   0.24252   0.75132   0.00000  Uiso   1.00
H721   H     0.96273   0.09080   0.74884   0.00000  Uiso   1.00
H722   H     0.70393   0.24253   0.75116   0.00000  Uiso   1.00
H723   H     0.78640   0.04356   0.70129   0.00000  Uiso   1.00
H724   H     0.88026   0.28977   0.79871   0.00000  Uiso   1.00
H725   H     0.88024   0.04349   0.79873   0.00000  Uiso   1.00
H726   H     0.78642   0.28985   0.70127   0.00000  Uiso   1.00
N727   N     0.83333   0.28402   0.75000   0.00000  Uiso   1.00
N728   N     0.83333   0.04931   0.75000   0.00000  Uiso   1.00
O729   O     0.77321   0.20625   0.75000   0.00000  Uiso   1.00
O730   O     0.89345   0.12709   0.75001   0.00000  Uiso   1.00
O731   O     0.89345   0.20625   0.75001   0.00000  Uiso   1.00
O732   O     0.77321   0.12709   0.75000   0.00000  Uiso   1.00
O733   O     0.83332   0.20627   0.68513   0.00000  Uiso   1.00
O734   O     0.83334   0.12707   0.81487   0.00000  Uiso   1.00
O735   O     0.83334   0.20627   0.81487   0.00000  Uiso   1.00
O736   O     0.83332   0.12707   0.68513   0.00000  Uiso   1.00
O737   O     0.88374   0.23329   0.88563   0.00000  Uiso   1.00
H738   H     0.89543   0.21821   0.85889   0.00000  Uiso   1.00
O739   O     0.78293   0.10004   0.61437   0.00000  Uiso   1.00
H740   H     0.77124   0.11513   0.64111   0.00000  Uiso   1.00
O741   O     0.76930   0.05933   0.54187   0.00000  Uiso   1.00
H742   H     0.75773   0.03753   0.51948   0.00000  Uiso   1.00
O743   O     0.89737   0.27400   0.95813   0.00000  Uiso   1.00
H744   H     0.90893   0.29580   0.98052   0.00000  Uiso   1.00
C745   C     0.08735   0.50001   0.74995   0.00000  Uiso   1.00
C746   C     0.24598   0.49999   0.75005   0.00000  Uiso   1.00
C747   C     0.12371   0.42834   0.52077   0.00000  Uiso   1.00
C748   C     0.20962   0.57166   0.97923   0.00000  Uiso   1.00
C749   C     0.02130   0.45743   0.74927   0.00000  Uiso   1.00
C750   C     0.31203   0.54257   0.75073   0.00000  Uiso   1.00
C751   C     0.31207   0.45742   0.74936   0.00000  Uiso   1.00
C752   C     0.02127   0.54258   0.75064   0.00000  Uiso   1.00
C753   C     0.29060   0.49999   0.75007   0.00000  Uiso   1.00
C754   C     0.04274   0.50001   0.74993   0.00000  Uiso   1.00
C755   C     0.14061   0.35817   0.72294   0.00000  Uiso   1.00
C756   C     0.19272   0.64183   0.77706   0.00000  Uiso   1.00
C757   C     0.19272   0.35812   0.77706   0.00000  Uiso   1.00
C758   C     0.14062   0.64188   0.72294   0.00000  Uiso   1.00
C759   C     0.16527   0.50000   0.66441   0.00000  Uiso   1.00
C760   C     0.16806   0.50000   0.83560   0.00000  Uiso   1.00
C761   C     0.19243   0.53464   0.90746   0.00000  Uiso   1.00
C762   C     0.14090   0.46536   0.59254   0.00000  Uiso   1.00
C763   C     0.17031   0.49987   0.88392   0.00000  Uiso   1.00
C764   C     0.16302   0.50013   0.61608   0.00000  Uiso   1.00
C765   C     0.14897   0.46494   0.90655   0.00000  Uiso   1.00
C766   C     0.18436   0.53506   0.59345   0.00000  Uiso   1.00
C767   C     0.14774   0.46465   0.95254   0.00000  Uiso   1.00
C768   C     0.18559   0.53535   0.54746   0.00000  Uiso   1.00
C769   C     0.16774   0.50022   0.97669   0.00000  Uiso   1.00
C770   C     0.16559   0.49978   0.52331   0.00000  Uiso   1.00
C771   C     0.18998   0.53600   0.95424   0.00000  Uiso   1.00
C772   C     0.14336   0.46400   0.54576   0.00000  Uiso   1.00
C773   C     0.12617   0.42927   0.97439   0.00000  Uiso   1.00
C774   C     0.20716   0.57073   0.52561   0.00000  Uiso   1.00
Cu775  Cu    0.16667   0.54689   0.75000   0.00000  Uiso   1.00
Cu776  Cu    0.16667   0.45311   0.75000   0.00000  Uiso   1.00
H777   H     0.13246   0.43823   0.88808   0.00000  Uiso   1.00
H778   H     0.20087   0.56177   0.61192   0.00000  Uiso   1.00
H779   H     0.11108   0.40210   0.95519   0.00000  Uiso   1.00
H780   H     0.22225   0.59790   0.54481   0.00000  Uiso   1.00
H781   H     0.03733   0.42415   0.74868   0.00000  Uiso   1.00
H782   H     0.29601   0.57585   0.75132   0.00000  Uiso   1.00
H783   H     0.29607   0.42414   0.74884   0.00000  Uiso   1.00
H784   H     0.03727   0.57586   0.75116   0.00000  Uiso   1.00
H785   H     0.11974   0.37689   0.70129   0.00000  Uiso   1.00
H786   H     0.21359   0.62311   0.79871   0.00000  Uiso   1.00
H787   H     0.21358   0.37682   0.79873   0.00000  Uiso   1.00
H788   H     0.11976   0.62318   0.70127   0.00000  Uiso   1.00
N789   N     0.16667   0.61736   0.75000   0.00000  Uiso   1.00
N790   N     0.16667   0.38264   0.75000   0.00000  Uiso   1.00
O791   O     0.10655   0.53958   0.75000   0.00000  Uiso   1.00
O792   O     0.22679   0.46042   0.75001   0.00000  Uiso   1.00
O793   O     0.22679   0.53958   0.75001   0.00000  Uiso   1.00
O794   O     0.10655   0.46042   0.75000   0.00000  Uiso   1.00
O795   O     0.16666   0.53960   0.68513   0.00000  Uiso   1.00
O796   O     0.16668   0.46040   0.81487   0.00000  Uiso   1.00
O797   O     0.16668   0.53960   0.81487   0.00000  Uiso   1.00
O798   O     0.16666   0.46040   0.68513   0.00000  Uiso   1.00
O799   O     0.21708   0.56662   0.88563   0.00000  Uiso   1.00
H800   H     0.22876   0.55154   0.85889   0.00000  Uiso   1.00
O801   O     0.11626   0.43338   0.61437   0.00000  Uiso   1.00
H802   H     0.10457   0.44846   0.64111   0.00000  Uiso   1.00
O803   O     0.10263   0.39267   0.54187   0.00000  Uiso   1.00
H804   H     0.09107   0.37087   0.51948   0.00000  Uiso   1.00
O805   O     0.23070   0.60733   0.95813   0.00000  Uiso   1.00
H806   H     0.24227   0.62913   0.98052   0.00000  Uiso   1.00
C807   C     0.42068   0.50001   0.74995   0.00000  Uiso   1.00
C808   C     0.57932   0.49999   0.75005   0.00000  Uiso   1.00
C809   C     0.45705   0.42834   0.52077   0.00000  Uiso   1.00
C810   C     0.54295   0.57166   0.97923   0.00000  Uiso   1.00
C811   C     0.35463   0.45743   0.74927   0.00000  Uiso   1.00
C812   C     0.64537   0.54257   0.75073   0.00000  Uiso   1.00
C813   C     0.64540   0.45742   0.74936   0.00000  Uiso   1.00
C814   C     0.35460   0.54258   0.75064   0.00000  Uiso   1.00
C815   C     0.62393   0.49999   0.75007   0.00000  Uiso   1.00
C816   C     0.37607   0.50001   0.74993   0.00000  Uiso   1.00
C817   C     0.47395   0.35817   0.72294   0.00000  Uiso   1.00
C818   C     0.52605   0.64183   0.77706   0.00000  Uiso   1.00
C819   C     0.52605   0.35812   0.77706   0.00000  Uiso   1.00
C820   C     0.47395   0.64188   0.72294   0.00000  Uiso   1.00
C821   C     0.49860   0.50000   0.66441   0.00000  Uiso   1.00
C822   C     0.50140   0.50000   0.83560   0.00000  Uiso   1.00
C823   C     0.52577   0.53464   0.90746   0.00000  Uiso   1.00
C824   C     0.47423   0.46536   0.59254   0.00000  Uiso   1.00
C825   C     0.50364   0.49987   0.88392   0.00000  Uiso   1.00
C826   C     0.49636   0.50013   0.61608   0.00000  Uiso   1.00
C827   C     0.48230   0.46494   0.90655   0.00000  Uiso   1.00
C828   C     0.51770   0.53506   0.59345   0.00000  Uiso   1.00
C829   C     0.48107   0.46465   0.95254   0.00000  Uiso   1.00
C830   C     0.51893   0.53535   0.54746   0.00000  Uiso   1.00
C831   C     0.50108   0.50022   0.97669   0.00000  Uiso   1.00
C832   C     0.49892   0.49978   0.52331   0.00000  Uiso   1.00
C833   C     0.52331   0.53600   0.95424   0.00000  Uiso   1.00
C834   C     0.47669   0.46400   0.54576   0.00000  Uiso   1.00
C835   C     0.45951   0.42927   0.97439   0.00000  Uiso   1.00
C836   C     0.54049   0.57073   0.52561   0.00000  Uiso   1.00
Cu837  Cu    0.50000   0.54689   0.75000   0.00000  Uiso   1.00
Cu838  Cu    0.50000   0.45311   0.75000   0.00000  Uiso   1.00
H839   H     0.46579   0.43823   0.88808   0.00000  Uiso   1.00
H840   H     0.53420   0.56177   0.61192   0.00000  Uiso   1.00
H841   H     0.44442   0.40210   0.95519   0.00000  Uiso   1.00
H842   H     0.55558   0.59790   0.54481   0.00000  Uiso   1.00
H843   H     0.37066   0.42415   0.74868   0.00000  Uiso   1.00
H844   H     0.62934   0.57585   0.75132   0.00000  Uiso   1.00
H845   H     0.62940   0.42414   0.74884   0.00000  Uiso   1.00
H846   H     0.37060   0.57586   0.75116   0.00000  Uiso   1.00
H847   H     0.45307   0.37689   0.70129   0.00000  Uiso   1.00
H848   H     0.54693   0.62311   0.79871   0.00000  Uiso   1.00
H849   H     0.54691   0.37682   0.79873   0.00000  Uiso   1.00
H850   H     0.45309   0.62318   0.70127   0.00000  Uiso   1.00
N851   N     0.50000   0.61736   0.75000   0.00000  Uiso   1.00
N852   N     0.50000   0.38264   0.75000   0.00000  Uiso   1.00
O853   O     0.43988   0.53958   0.75000   0.00000  Uiso   1.00
O854   O     0.56012   0.46042   0.75001   0.00000  Uiso   1.00
O855   O     0.56012   0.53958   0.75001   0.00000  Uiso   1.00
O856   O     0.43988   0.46042   0.75000   0.00000  Uiso   1.00
O857   O     0.49999   0.53960   0.68513   0.00000  Uiso   1.00
O858   O     0.50001   0.46040   0.81487   0.00000  Uiso   1.00
O859   O     0.50001   0.53960   0.81487   0.00000  Uiso   1.00
O860   O     0.49999   0.46040   0.68513   0.00000  Uiso   1.00
O861   O     0.55041   0.56662   0.88563   0.00000  Uiso   1.00
H862   H     0.56210   0.55154   0.85889   0.00000  Uiso   1.00
O863   O     0.44959   0.43338   0.61437   0.00000  Uiso   1.00
H864   H     0.43790   0.44846   0.64111   0.00000  Uiso   1.00
O865   O     0.43597   0.39267   0.54187   0.00000  Uiso   1.00
H866   H     0.42440   0.37087   0.51948   0.00000  Uiso   1.00
O867   O     0.56403   0.60733   0.95813   0.00000  Uiso   1.00
H868   H     0.57560   0.62913   0.98052   0.00000  Uiso   1.00
C869   C     0.75402   0.50001   0.74995   0.00000  Uiso   1.00
C870   C     0.91265   0.49999   0.75005   0.00000  Uiso   1.00
C871   C     0.79038   0.42834   0.52077   0.00000  Uiso   1.00
C872   C     0.87629   0.57166   0.97923   0.00000  Uiso   1.00
C873   C     0.68797   0.45743   0.74927   0.00000  Uiso   1.00
C874   C     0.97870   0.54257   0.75073   0.00000  Uiso   1.00
C875   C     0.97873   0.45742   0.74936   0.00000  Uiso   1.00
C876   C     0.68793   0.54258   0.75064   0.00000  Uiso   1.00
C877   C     0.95726   0.49999   0.75007   0.00000  Uiso   1.00
C878   C     0.70940   0.50001   0.74993   0.00000  Uiso   1.00
C879   C     0.80728   0.35817   0.72294   0.00000  Uiso   1.00
C880   C     0.85939   0.64183   0.77706   0.00000  Uiso   1.00
C881   C     0.85938   0.35812   0.77706   0.00000  Uiso   1.00
C882   C     0.80728   0.64188   0.72294   0.00000  Uiso   1.00
C883   C     0.83194   0.50000   0.66441   0.00000  Uiso   1.00
C884   C     0.83473   0.50000   0.83560   0.00000  Uiso   1.00
C885   C     0.85910   0.53464   0.90746   0.00000  Uiso   1.00
C886   C     0.80757   0.46536   0.59254   0.00000  Uiso   1.00
C887   C     0.83698   0.49987   0.88392   0.00000  Uiso   1.00
C888   C     0.82969   0.50013   0.61608   0.00000  Uiso   1.00
C889   C     0.81564   0.46494   0.90655   0.00000  Uiso   1.00
C890   C     0.85103   0.53506   0.59345   0.00000  Uiso   1.00
C891   C     0.81441   0.46465   0.95254   0.00000  Uiso   1.00
C892   C     0.85226   0.53535   0.54746   0.00000  Uiso   1.00
C893   C     0.83441   0.50022   0.97669   0.00000  Uiso   1.00
C894   C     0.83226   0.49978   0.52331   0.00000  Uiso   1.00
C895   C     0.85664   0.53600   0.95424   0.00000  Uiso   1.00
C896   C     0.81002   0.46400   0.54576   0.00000  Uiso   1.00
C897   C     0.79284   0.42927   0.97439   0.00000  Uiso   1.00
C898   C     0.87383   0.57073   0.52561   0.00000  Uiso   1.00
Cu899  Cu    0.83333   0.54689   0.75000   0.00000  Uiso   1.00
Cu900  Cu    0.83333   0.45311   0.75000   0.00000  Uiso   1.00
H901   H     0.79913   0.43823   0.88808   0.00000  Uiso   1.00
H902   H     0.86754   0.56177   0.61192   0.00000  Uiso   1.00
H903   H     0.77775   0.40210   0.95519   0.00000  Uiso   1.00
H904   H     0.88892   0.59790   0.54481   0.00000  Uiso   1.00
H905   H     0.70399   0.42415   0.74868   0.00000  Uiso   1.00
H906   H     0.96267   0.57585   0.75132   0.00000  Uiso   1.00
H907   H     0.96273   0.42414   0.74884   0.00000  Uiso   1.00
H908   H     0.70393   0.57586   0.75116   0.00000  Uiso   1.00
H909   H     0.78640   0.37689   0.70129   0.00000  Uiso   1.00
H910   H     0.88026   0.62311   0.79871   0.00000  Uiso   1.00
H911   H     0.88024   0.37682   0.79873   0.00000  Uiso   1.00
H912   H     0.78642   0.62318   0.70127   0.00000  Uiso   1.00
N913   N     0.83333   0.61736   0.75000   0.00000  Uiso   1.00
N914   N     0.83333   0.38264   0.75000   0.00000  Uiso   1.00
O915   O     0.77321   0.53958   0.75000   0.00000  Uiso   1.00
O916   O     0.89345   0.46042   0.75001   0.00000  Uiso   1.00
O917   O     0.89345   0.53958   0.75001   0.00000  Uiso   1.00
O918   O     0.77321   0.46042   0.75000   0.00000  Uiso   1.00
O919   O     0.83332   0.53960   0.68513   0.00000  Uiso   1.00
O920   O     0.83334   0.46040   0.81487   0.00000  Uiso   1.00
O921   O     0.83334   0.53960   0.81487   0.00000  Uiso   1.00
O922   O     0.83332   0.46040   0.68513   0.00000  Uiso   1.00
O923   O     0.88374   0.56662   0.88563   0.00000  Uiso   1.00
H924   H     0.89543   0.55154   0.85889   0.00000  Uiso   1.00
O925   O     0.78293   0.43338   0.61437   0.00000  Uiso   1.00
H926   H     0.77124   0.44846   0.64111   0.00000  Uiso   1.00
O927   O     0.76930   0.39267   0.54187   0.00000  Uiso   1.00
H928   H     0.75773   0.37087   0.51948   0.00000  Uiso   1.00
O929   O     0.89737   0.60733   0.95813   0.00000  Uiso   1.00
H930   H     0.90893   0.62913   0.98052   0.00000  Uiso   1.00
C931   C     0.08735   0.83334   0.74995   0.00000  Uiso   1.00
C932   C     0.24598   0.83333   0.75005   0.00000  Uiso   1.00
C933   C     0.12371   0.76167   0.52077   0.00000  Uiso   1.00
C934   C     0.20962   0.90500   0.97923   0.00000  Uiso   1.00
C935   C     0.02130   0.79076   0.74927   0.00000  Uiso   1.00
C936   C     0.31203   0.87590   0.75073   0.00000  Uiso   1.00
C937   C     0.31207   0.79076   0.74936   0.00000  Uiso   1.00
C938   C     0.02127   0.87591   0.75064   0.00000  Uiso   1.00
C939   C     0.29060   0.83333   0.75007   0.00000  Uiso   1.00
C940   C     0.04274   0.83334   0.74993   0.00000  Uiso   1.00
C941   C     0.14061   0.69150   0.72294   0.00000  Uiso   1.00
C942   C     0.19272   0.97517   0.77706   0.00000  Uiso   1.00
C943   C     0.19272   0.69146   0.77706   0.00000  Uiso   1.00
C944   C     0.14062   0.97521   0.72294   0.00000  Uiso   1.00
C945   C     0.16527   0.83334   0.66441   0.00000  Uiso   1.00
C946   C     0.16806   0.83333   0.83560   0.00000  Uiso   1.00
C947   C     0.19243   0.86797   0.90746   0.00000  Uiso   1.00
C948   C     0.14090   0.79870   0.59254   0.00000  Uiso   1.00
C949   C     0.17031   0.83320   0.88392   0.00000  Uiso   1.00
C950   C     0.16302   0.83346   0.61608   0.00000  Uiso   1.00
C951   C     0.14897   0.79827   0.90655   0.00000  Uiso   1.00
C952   C     0.18436   0.86840   0.59345   0.00000  Uiso   1.00
C953   C     0.14774   0.79799   0.95254   0.00000  Uiso   1.00
C954   C     0.18559   0.86868   0.54746   0.00000  Uiso   1.00
C955   C     0.16774   0.83355   0.97669   0.00000  Uiso   1.00
C956   C     0.16559   0.83311   0.52331   0.00000  Uiso   1.00
C957   C     0.18998   0.86933   0.95424   0.00000  Uiso   1.00
C958   C     0.14336   0.79733   0.54576   0.00000  Uiso   1.00
C959   C     0.12617   0.76260   0.97439   0.00000  Uiso   1.00
C960   C     0.20716   0.90407   0.52561   0.00000  Uiso   1.00
Cu961  Cu    0.16667   0.88022   0.75000   0.00000  Uiso   1.00
Cu962  Cu    0.16667   0.78645   0.75000   0.00000  Uiso   1.00
H963   H     0.13246   0.77156   0.88808   0.00000  Uiso   1.00
H964   H     0.20087   0.89510   0.61192   0.00000  Uiso   1.00
H965   H     0.11108   0.73544   0.95519   0.00000  Uiso   1.00
H966   H     0.22225   0.93123   0.54481   0.00000  Uiso   1.00
H967   H     0.03733   0.75748   0.74868   0.00000  Uiso   1.00
H968   H     0.29601   0.90919   0.75132   0.00000  Uiso   1.00
H969   H     0.29607   0.75747   0.74884   0.00000  Uiso   1.00
H970   H     0.03727   0.90920   0.75116   0.00000  Uiso   1.00
H971   H     0.11974   0.71023   0.70129   0.00000  Uiso   1.00
H972   H     0.21359   0.95644   0.79871   0.00000  Uiso   1.00
H973   H     0.21358   0.71015   0.79873   0.00000  Uiso   1.00
H974   H     0.11976   0.95651   0.70127   0.00000  Uiso   1.00
N975   N     0.16667   0.95069   0.75000   0.00000  Uiso   1.00
N976   N     0.16667   0.71598   0.75000   0.00000  Uiso   1.00
O977   O     0.10655   0.87291   0.75000   0.00000  Uiso   1.00
O978   O     0.22679   0.79375   0.75001   0.00000  Uiso   1.00
O979   O     0.22679   0.87291   0.75001   0.00000  Uiso   1.00
O980   O     0.10655   0.79375   0.75000   0.00000  Uiso   1.00
O981   O     0.16666   0.87293   0.68513   0.00000  Uiso   1.00
O982   O     0.16668   0.79373   0.81487   0.00000  Uiso   1.00
O983   O     0.16668   0.87293   0.81487   0.00000  Uiso   1.00
O984   O     0.16666   0.79373   0.68513   0.00000  Uiso   1.00
O985   O     0.21708   0.89996   0.88563   0.00000  Uiso   1.00
H986   H     0.22876   0.88487   0.85889   0.00000  Uiso   1.00
O987   O     0.11626   0.76671   0.61437   0.00000  Uiso   1.00
H988   H     0.10457   0.78179   0.64111   0.00000  Uiso   1.00
O989   O     0.10263   0.72600   0.54187   0.00000  Uiso   1.00
H990   H     0.09107   0.70420   0.51948   0.00000  Uiso   1.00
O991   O     0.23070   0.94067   0.95813   0.00000  Uiso   1.00
H992   H     0.24227   0.96246   0.98052   0.00000  Uiso   1.00
C993   C     0.42068   0.83334   0.74995   0.00000  Uiso   1.00
C994   C     0.57932   0.83333   0.75005   0.00000  Uiso   1.00
C995   C     0.45705   0.76167   0.52077   0.00000  Uiso   1.00
C996   C     0.54295   0.90500   0.97923   0.00000  Uiso   1.00
C997   C     0.35463   0.79076   0.74927   0.00000  Uiso   1.00
C998   C     0.64537   0.87590   0.75073   0.00000  Uiso   1.00
C999   C     0.64540   0.79076   0.74936   0.00000  Uiso   1.00
C1000  C     0.35460   0.87591   0.75064   0.00000  Uiso   1.00
C1001  C     0.62393   0.83333   0.75007   0.00000  Uiso   1.00
C1002  C     0.37607   0.83334   0.74993   0.00000  Uiso   1.00
C1003  C     0.47395   0.69150   0.72294   0.00000  Uiso   1.00
C1004  C     0.52605   0.97517   0.77706   0.00000  Uiso   1.00
C1005  C     0.52605   0.69146   0.77706   0.00000  Uiso   1.00
C1006  C     0.47395   0.97521   0.72294   0.00000  Uiso   1.00
C1007  C     0.49860   0.83334   0.66441   0.00000  Uiso   1.00
C1008  C     0.50140   0.83333   0.83560   0.00000  Uiso   1.00
C1009  C     0.52577   0.86797   0.90746   0.00000  Uiso   1.00
C1010  C     0.47423   0.79870   0.59254   0.00000  Uiso   1.00
C1011  C     0.50364   0.83320   0.88392   0.00000  Uiso   1.00
C1012  C     0.49636   0.83346   0.61608   0.00000  Uiso   1.00
C1013  C     0.48230   0.79827   0.90655   0.00000  Uiso   1.00
C1014  C     0.51770   0.86840   0.59345   0.00000  Uiso   1.00
C1015  C     0.48107   0.79799   0.95254   0.00000  Uiso   1.00
C1016  C     0.51893   0.86868   0.54746   0.00000  Uiso   1.00
C1017  C     0.50108   0.83355   0.97669   0.00000  Uiso   1.00
C1018  C     0.49892   0.83311   0.52331   0.00000  Uiso   1.00
C1019  C     0.52331   0.86933   0.95424   0.00000  Uiso   1.00
C1020  C     0.47669   0.79733   0.54576   0.00000  Uiso   1.00
C1021  C     0.45951   0.76260   0.97439   0.00000  Uiso   1.00
C1022  C     0.54049   0.90407   0.52561   0.00000  Uiso   1.00
Cu1023 Cu    0.50000   0.88022   0.75000   0.00000  Uiso   1.00
Cu1024 Cu    0.50000   0.78645   0.75000   0.00000  Uiso   1.00
H1025  H     0.46579   0.77156   0.88808   0.00000  Uiso   1.00
H1026  H     0.53420   0.89510   0.61192   0.00000  Uiso   1.00
H1027  H     0.44442   0.73544   0.95519   0.00000  Uiso   1.00
H1028  H     0.55558   0.93123   0.54481   0.00000  Uiso   1.00
H1029  H     0.37066   0.75748   0.74868   0.00000  Uiso   1.00
H1030  H     0.62934   0.90919   0.75132   0.00000  Uiso   1.00
H1031  H     0.62940   0.75747   0.74884   0.00000  Uiso   1.00
H1032  H     0.37060   0.90920   0.75116   0.00000  Uiso   1.00
H1033  H     0.45307   0.71023   0.70129   0.00000  Uiso   1.00
H1034  H     0.54693   0.95644   0.79871   0.00000  Uiso   1.00
H1035  H     0.54691   0.71015   0.79873   0.00000  Uiso   1.00
H1036  H     0.45309   0.95651   0.70127   0.00000  Uiso   1.00
N1037  N     0.50000   0.95069   0.75000   0.00000  Uiso   1.00
N1038  N     0.50000   0.71598   0.75000   0.00000  Uiso   1.00
O1039  O     0.43988   0.87291   0.75000   0.00000  Uiso   1.00
O1040  O     0.56012   0.79375   0.75001   0.00000  Uiso   1.00
O1041  O     0.56012   0.87291   0.75001   0.00000  Uiso   1.00
O1042  O     0.43988   0.79375   0.75000   0.00000  Uiso   1.00
O1043  O     0.49999   0.87293   0.68513   0.00000  Uiso   1.00
O1044  O     0.50001   0.79373   0.81487   0.00000  Uiso   1.00
O1045  O     0.50001   0.87293   0.81487   0.00000  Uiso   1.00
O1046  O     0.49999   0.79373   0.68513   0.00000  Uiso   1.00
O1047  O     0.55041   0.89996   0.88563   0.00000  Uiso   1.00
H1048  H     0.56210   0.88487   0.85889   0.00000  Uiso   1.00
O1049  O     0.44959   0.76671   0.61437   0.00000  Uiso   1.00
H1050  H     0.43790   0.78179   0.64111   0.00000  Uiso   1.00
O1051  O     0.43597   0.72600   0.54187   0.00000  Uiso   1.00
H1052  H     0.42440   0.70420   0.51948   0.00000  Uiso   1.00
O1053  O     0.56403   0.94067   0.95813   0.00000  Uiso   1.00
H1054  H     0.57560   0.96246   0.98052   0.00000  Uiso   1.00
C1055  C     0.75402   0.83334   0.74995   0.00000  Uiso   1.00
C1056  C     0.91265   0.83333   0.75005   0.00000  Uiso   1.00
C1057  C     0.79038   0.76167   0.52077   0.00000  Uiso   1.00
C1058  C     0.87629   0.90500   0.97923   0.00000  Uiso   1.00
C1059  C     0.68797   0.79076   0.74927   0.00000  Uiso   1.00
C1060  C     0.97870   0.87590   0.75073   0.00000  Uiso   1.00
C1061  C     0.97873   0.79076   0.74936   0.00000  Uiso   1.00
C1062  C     0.68793   0.87591   0.75064   0.00000  Uiso   1.00
C1063  C     0.95726   0.83333   0.75007   0.00000  Uiso   1.00
C1064  C     0.70940   0.83334   0.74993   0.00000  Uiso   1.00
C1065  C     0.80728   0.69150   0.72294   0.00000  Uiso   1.00
C1066  C     0.85939   0.97517   0.77706   0.00000  Uiso   1.00
C1067  C     0.85938   0.69146   0.77706   0.00000  Uiso   1.00
C1068  C     0.80728   0.97521   0.72294   0.00000  Uiso   1.00
C1069  C     0.83194   0.83334   0.66441   0.00000  Uiso   1.00
C1070  C     0.83473   0.83333   0.83560   0.00000  Uiso   1.00
C1071  C     0.85910   0.86797   0.90746   0.00000  Uiso   1.00
C1072  C     0.80757   0.79870   0.59254   0.00000  Uiso   1.00
C1073  C     0.83698   0.83320   0.88392   0.00000  Uiso   1.00
C1074  C     0.82969   0.83346   0.61608   0.00000  Uiso   1.00
C1075  C     0.81564   0.79827   0.90655   0.00000  Uiso   1.00
C1076  C     0.85103   0.86840   0.59345   0.00000  Uiso   1.00
C1077  C     0.81441   0.79799   0.95254   0.00000  Uiso   1.00
C1078  C     0.85226   0.86868   0.54746   0.00000  Uiso   1.00
C1079  C     0.83441   0.83355   0.97669   0.00000  Uiso   1.00
C1080  C     0.83226   0.83311   0.52331   0.00000  Uiso   1.00
C1081  C     0.85664   0.86933   0.95424   0.00000  Uiso   1.00
C1082  C     0.81002   0.79733   0.54576   0.00000  Uiso   1.00
C1083  C     0.79284   0.76260   0.97439   0.00000  Uiso   1.00
C1084  C     0.87383   0.90407   0.52561   0.00000  Uiso   1.00
Cu1085 Cu    0.83333   0.88022   0.75000   0.00000  Uiso   1.00
Cu1086 Cu    0.83333   0.78645   0.75000   0.00000  Uiso   1.00
H1087  H     0.79913   0.77156   0.88808   0.00000  Uiso   1.00
H1088  H     0.86754   0.89510   0.61192   0.00000  Uiso   1.00
H1089  H     0.77775   0.73544   0.95519   0.00000  Uiso   1.00
H1090  H     0.88892   0.93123   0.54481   0.00000  Uiso   1.00
H1091  H     0.70399   0.75748   0.74868   0.00000  Uiso   1.00
H1092  H     0.96267   0.90919   0.75132   0.00000  Uiso   1.00
H1093  H     0.96273   0.75747   0.74884   0.00000  Uiso   1.00
H1094  H     0.70393   0.90920   0.75116   0.00000  Uiso   1.00
H1095  H     0.78640   0.71023   0.70129   0.00000  Uiso   1.00
H1096  H     0.88026   0.95644   0.79871   0.00000  Uiso   1.00
H1097  H     0.88024   0.71015   0.79873   0.00000  Uiso   1.00
H1098  H     0.78642   0.95651   0.70127   0.00000  Uiso   1.00
N1099  N     0.83333   0.95069   0.75000   0.00000  Uiso   1.00
N1100  N     0.83333   0.71598   0.75000   0.00000  Uiso   1.00
O1101  O     0.77321   0.87291   0.75000   0.00000  Uiso   1.00
O1102  O     0.89345   0.79375   0.75001   0.00000  Uiso   1.00
O1103  O     0.89345   0.87291   0.75001   0.00000  Uiso   1.00
O1104  O     0.77321   0.79375   0.75000   0.00000  Uiso   1.00
O1105  O     0.83332   0.87293   0.68513   0.00000  Uiso   1.00
O1106  O     0.83334   0.79373   0.81487   0.00000  Uiso   1.00
O1107  O     0.83334   0.87293   0.81487   0.00000  Uiso   1.00
O1108  O     0.83332   0.79373   0.68513   0.00000  Uiso   1.00
O1109  O     0.88374   0.89996   0.88563   0.00000  Uiso   1.00
H1110  H     0.89543   0.88487   0.85889   0.00000  Uiso   1.00
O1111  O     0.78293   0.76671   0.61437   0.00000  Uiso   1.00
H1112  H     0.77124   0.78179   0.64111   0.00000  Uiso   1.00
O1113  O     0.76930   0.72600   0.54187   0.00000  Uiso   1.00
H1114  H     0.75773   0.70420   0.51948   0.00000  Uiso   1.00
O1115  O     0.89737   0.94067   0.95813   0.00000  Uiso   1.00
H1116  H     0.90893   0.96246   0.98052   0.00000  Uiso   1.00
loop_
_geom_bond_atom_site_label_1
_geom_bond_atom_site_label_2
_geom_bond_distance
_geom_bond_site_symmetry_2
_ccdc_geom_bond_type
C1     O50     1.290   .     A
C1     O47     1.291   .     A
C1     C10     1.450   .     S
C2     O49     1.290   .     A
C2     O48     1.291   .     A
C2     C9      1.450   .     S
C3     C28     1.418   .     A
C3     O59     1.383   .     S
C3     C587    1.401   1_554 S
C4     C27     1.418   .     A
C4     O61     1.383   .     S
C4     C588    1.401   .     S
C5     H37     1.083   .     S
C5     C10     1.401   .     A
C5     C131    1.383   1_455 S
C6     H38     1.083   .     S
C6     C9      1.401   .     A
C6     C70     1.383   .     S
C7     H39     1.083   .     S
C7     C9      1.401   .     A
C7     C67     1.383   .     S
C8     C10     1.401   .     A
C8     H40     1.083   .     S
C8     C130    1.383   1_455 S
C11    H41     1.082   .     S
C11    N46     1.367   .     A
C11    C386    1.416   1_545 S
C12    H42     1.082   .     S
C12    N45     1.367   .     A
C12    C199    1.416   .     S
C13    H43     1.082   .     S
C13    N46     1.367   .     A
C13    C384    1.416   1_545 S
C14    H44     1.082   .     S
C14    N45     1.367   .     A
C14    C197    1.416   .     S
C15    O51     1.292   .     A
C15    C20     1.459   .     S
C15    O54     1.292   .     A
C16    C19     1.459   .     S
C16    O53     1.292   .     A
C16    O52     1.292   .     A
C17    O55     1.382   .     S
C17    C19     1.416   .     A
C17    C27     1.414   .     A
C18    O57     1.382   .     S
C18    C20     1.416   .     A
C18    C28     1.414   .     A
C19    C21     1.394   .     A
C20    C22     1.394   .     A
C21    C23     1.388   .     A
C21    H33     1.085   .     S
C22    H34     1.085   .     S
C22    C24     1.388   .     A
C23    C29     1.396   .     A
C23    C25     1.408   .     A
C24    C26     1.408   .     A
C24    C30     1.396   .     A
C25    C27     1.423   .     A
C25    C584    1.408   .     S
C26    C28     1.423   .     A
C26    C583    1.408   1_554 S
C29    H35     1.085   .     S
C29    C561    1.401   .     S
C30    H36     1.085   .     S
C30    C562    1.401   1_554 S
Cu31   Cu32    2.676   .     S
Cu31   O47     1.965   .     S
Cu31   O53     1.967   .     S
Cu31   O49     1.965   .     S
Cu31   N45     2.011   .     S
Cu31   O51     1.967   .     S
Cu32   O48     1.965   .     S
Cu32   O50     1.965   .     S
Cu32   O54     1.967   .     S
Cu32   N46     2.011   .     S
Cu32   O52     1.967   .     S
O55    H56     0.991   .     S
O57    H58     0.991   .     S
O59    H60     0.992   .     S
O61    H62     0.992   .     S
C63    O112    1.290   .     A
C63    O109    1.291   .     A
C63    C72     1.450   .     S
C64    O111    1.290   .     A
C64    O110    1.291   .     A
C64    C71     1.450   .     S
C65    C90     1.418   .     A
C65    O121    1.383   .     S
C65    C649    1.401   1_554 S
C66    C89     1.418   .     A
C66    O123    1.383   .     S
C66    C650    1.401   .     S
C67    H99     1.083   .     S
C67    C72     1.401   .     A
C68    H100    1.083   .     S
C68    C71     1.401   .     A
C68    C132    1.383   .     S
C69    H101    1.083   .     S
C69    C71     1.401   .     A
C69    C129    1.383   .     S
C70    C72     1.401   .     A
C70    H102    1.083   .     S
C73    H103    1.082   .     S
C73    N108    1.367   .     A
C73    C448    1.416   1_545 S
C74    H104    1.082   .     S
C74    N107    1.367   .     A
C74    C261    1.416   .     S
C75    H105    1.082   .     S
C75    N108    1.367   .     A
C75    C446    1.416   1_545 S
C76    H106    1.082   .     S
C76    N107    1.367   .     A
C76    C259    1.416   .     S
C77    O113    1.292   .     A
C77    C82     1.459   .     S
C77    O116    1.292   .     A
C78    C81     1.459   .     S
C78    O115    1.292   .     A
C78    O114    1.292   .     A
C79    O117    1.382   .     S
C79    C81     1.416   .     A
C79    C89     1.414   .     A
C80    O119    1.382   .     S
C80    C82     1.416   .     A
C80    C90     1.414   .     A
C81    C83     1.394   .     A
C82    C84     1.394   .     A
C83    C85     1.388   .     A
C83    H95     1.085   .     S
C84    H96     1.085   .     S
C84    C86     1.388   .     A
C85    C91     1.396   .     A
C85    C87     1.408   .     A
C86    C88     1.408   .     A
C86    C92     1.396   .     A
C87    C89     1.423   .     A
C87    C646    1.408   .     S
C88    C90     1.423   .     A
C88    C645    1.408   1_554 S
C91    H97     1.085   .     S
C91    C623    1.401   .     S
C92    H98     1.085   .     S
C92    C624    1.401   1_554 S
Cu93   Cu94    2.676   .     S
Cu93   O109    1.965   .     S
Cu93   O115    1.967   .     S
Cu93   O111    1.965   .     S
Cu93   N107    2.011   .     S
Cu93   O113    1.967   .     S
Cu94   O110    1.965   .     S
Cu94   O112    1.965   .     S
Cu94   O116    1.967   .     S
Cu94   N108    2.011   .     S
Cu94   O114    1.967   .     S
O117   H118    0.991   .     S
O119   H120    0.991   .     S
O121   H122    0.992   .     S
O123   H124    0.992   .     S
C125   O174    1.290   .     A
C125   O171    1.291   .     A
C125   C134    1.450   .     S
C126   O173    1.290   .     A
C126   O172    1.291   .     A
C126   C133    1.450   .     S
C127   C152    1.418   .     A
C127   O183    1.383   .     S
C127   C711    1.401   1_554 S
C128   C151    1.418   .     A
C128   O185    1.383   .     S
C128   C712    1.401   .     S
C129   H161    1.083   .     S
C129   C134    1.401   .     A
C130   H162    1.083   .     S
C130   C133    1.401   .     A
C130   C8      1.383   1_655 S
C131   H163    1.083   .     S
C131   C133    1.401   .     A
C131   C5      1.383   1_655 S
C132   C134    1.401   .     A
C132   H164    1.083   .     S
C135   H165    1.082   .     S
C135   N170    1.367   .     A
C135   C510    1.416   1_545 S
C136   H166    1.082   .     S
C136   N169    1.367   .     A
C136   C323    1.416   .     S
C137   H167    1.082   .     S
C137   N170    1.367   .     A
C137   C508    1.416   1_545 S
C138   H168    1.082   .     S
C138   N169    1.367   .     A
C138   C321    1.416   .     S
C139   O175    1.292   .     A
C139   C144    1.459   .     S
C139   O178    1.292   .     A
C140   C143    1.459   .     S
C140   O177    1.292   .     A
C140   O176    1.292   .     A
C141   O179    1.382   .     S
C141   C143    1.416   .     A
C141   C151    1.414   .     A
C142   O181    1.382   .     S
C142   C144    1.416   .     A
C142   C152    1.414   .     A
C143   C145    1.394   .     A
C144   C146    1.394   .     A
C145   C147    1.388   .     A
C145   H157    1.085   .     S
C146   H158    1.085   .     S
C146   C148    1.388   .     A
C147   C153    1.396   .     A
C147   C149    1.408   .     A
C148   C150    1.408   .     A
C148   C154    1.396   .     A
C149   C151    1.423   .     A
C149   C708    1.408   .     S
C150   C152    1.423   .     A
C150   C707    1.408   1_554 S
C153   H159    1.085   .     S
C153   C685    1.401   .     S
C154   H160    1.085   .     S
C154   C686    1.401   1_554 S
Cu155  Cu156   2.676   .     S
Cu155  O171    1.965   .     S
Cu155  O177    1.967   .     S
Cu155  O173    1.965   .     S
Cu155  N169    2.011   .     S
Cu155  O175    1.967   .     S
Cu156  O172    1.965   .     S
Cu156  O174    1.965   .     S
Cu156  O178    1.967   .     S
Cu156  N170    2.011   .     S
Cu156  O176    1.967   .     S
O179   H180    0.991   .     S
O181   H182    0.991   .     S
O183   H184    0.992   .     S
O185   H186    0.992   .     S
C187   O236    1.290   .     A
C187   O233    1.291   .     A
C187   C196    1.450   .     S
C188   O235    1.290   .     A
C188   O234    1.291   .     A
C188   C195    1.450   .     S
C189   C214    1.418   .     A
C189   O245    1.383   .     S
C189   C773    1.401   1_554 S
C190   C213    1.418   .     A
C190   O247    1.383   .     S
C190   C774    1.401   .     S
C191   H223    1.083   .     S
C191   C196    1.401   .     A
C191   C317    1.383   1_455 S
C192   H224    1.083   .     S
C192   C195    1.401   .     A
C192   C256    1.383   .     S
C193   H225    1.083   .     S
C193   C195    1.401   .     A
C193   C253    1.383   .     S
C194   C196    1.401   .     A
C194   H226    1.083   .     S
C194   C316    1.383   1_455 S
C197   H227    1.082   .     S
C197   N232    1.367   .     A
C198   H228    1.082   .     S
C198   N231    1.367   .     A
C198   C385    1.416   .     S
C199   H229    1.082   .     S
C199   N232    1.367   .     A
C200   H230    1.082   .     S
C200   N231    1.367   .     A
C200   C383    1.416   .     S
C201   O237    1.292   .     A
C201   C206    1.459   .     S
C201   O240    1.292   .     A
C202   C205    1.459   .     S
C202   O239    1.292   .     A
C202   O238    1.292   .     A
C203   O241    1.382   .     S
C203   C205    1.416   .     A
C203   C213    1.414   .     A
C204   O243    1.382   .     S
C204   C206    1.416   .     A
C204   C214    1.414   .     A
C205   C207    1.394   .     A
C206   C208    1.394   .     A
C207   C209    1.388   .     A
C207   H219    1.085   .     S
C208   H220    1.085   .     S
C208   C210    1.388   .     A
C209   C215    1.396   .     A
C209   C211    1.408   .     A
C210   C212    1.408   .     A
C210   C216    1.396   .     A
C211   C213    1.423   .     A
C211   C770    1.408   .     S
C212   C214    1.423   .     A
C212   C769    1.408   1_554 S
C215   H221    1.085   .     S
C215   C747    1.401   .     S
C216   H222    1.085   .     S
C216   C748    1.401   1_554 S
Cu217  Cu218   2.676   .     S
Cu217  O233    1.965   .     S
Cu217  O239    1.967   .     S
Cu217  O235    1.965   .     S
Cu217  N231    2.011   .     S
Cu217  O237    1.967   .     S
Cu218  O234    1.965   .     S
Cu218  O236    1.965   .     S
Cu218  O240    1.967   .     S
Cu218  N232    2.011   .     S
Cu218  O238    1.967   .     S
O241   H242    0.991   .     S
O243   H244    0.991   .     S
O245   H246    0.992   .     S
O247   H248    0.992   .     S
C249   O298    1.290   .     A
C249   O295    1.291   .     A
C249   C258    1.450   .     S
C250   O297    1.290   .     A
C250   O296    1.291   .     A
C250   C257    1.450   .     S
C251   C276    1.418   .     A
C251   O307    1.383   .     S
C251   C835    1.401   1_554 S
C252   C275    1.418   .     A
C252   O309    1.383   .     S
C252   C836    1.401   .     S
C253   H285    1.083   .     S
C253   C258    1.401   .     A
C254   H286    1.083   .     S
C254   C257    1.401   .     A
C254   C318    1.383   .     S
C255   H287    1.083   .     S
C255   C257    1.401   .     A
C255   C315    1.383   .     S
C256   C258    1.401   .     A
C256   H288    1.083   .     S
C259   H289    1.082   .     S
C259   N294    1.367   .     A
C260   H290    1.082   .     S
C260   N293    1.367   .     A
C260   C447    1.416   .     S
C261   H291    1.082   .     S
C261   N294    1.367   .     A
C262   H292    1.082   .     S
C262   N293    1.367   .     A
C262   C445    1.416   .     S
C263   O299    1.292   .     A
C263   C268    1.459   .     S
C263   O302    1.292   .     A
C264   C267    1.459   .     S
C264   O301    1.292   .     A
C264   O300    1.292   .     A
C265   O303    1.382   .     S
C265   C267    1.416   .     A
C265   C275    1.414   .     A
C266   O305    1.382   .     S
C266   C268    1.416   .     A
C266   C276    1.414   .     A
C267   C269    1.394   .     A
C268   C270    1.394   .     A
C269   C271    1.388   .     A
C269   H281    1.085   .     S
C270   H282    1.085   .     S
C270   C272    1.388   .     A
C271   C277    1.396   .     A
C271   C273    1.408   .     A
C272   C274    1.408   .     A
C272   C278    1.396   .     A
C273   C275    1.423   .     A
C273   C832    1.408   .     S
C274   C276    1.423   .     A
C274   C831    1.408   1_554 S
C277   H283    1.085   .     S
C277   C809    1.401   .     S
C278   H284    1.085   .     S
C278   C810    1.401   1_554 S
Cu279  Cu280   2.676   .     S
Cu279  O295    1.965   .     S
Cu279  O301    1.967   .     S
Cu279  O297    1.965   .     S
Cu279  N293    2.011   .     S
Cu279  O299    1.967   .     S
Cu280  O296    1.965   .     S
Cu280  O298    1.965   .     S
Cu280  O302    1.967   .     S
Cu280  N294    2.011   .     S
Cu280  O300    1.967   .     S
O303   H304    0.991   .     S
O305   H306    0.991   .     S
O307   H308    0.992   .     S
O309   H310    0.992   .     S
C311   O360    1.290   .     A
C311   O357    1.291   .     A
C311   C320    1.450   .     S
C312   O359    1.290   .     A
C312   O358    1.291   .     A
C312   C319    1.450   .     S
C313   C338    1.418   .     A
C313   O369    1.383   .     S
C313   C897    1.401   1_554 S
C314   C337    1.418   .     A
C314   O371    1.383   .     S
C314   C898    1.401   .     S
C315   H347    1.083   .     S
C315   C320    1.401   .     A
C316   H348    1.083   .     S
C316   C319    1.401   .     A
C316   C194    1.383   1_655 S
C317   H349    1.083   .     S
C317   C319    1.401   .     A
C317   C191    1.383   1_655 S
C318   C320    1.401   .     A
C318   H350    1.083   .     S
C321   H351    1.082   .     S
C321   N356    1.367   .     A
C322   H352    1.082   .     S
C322   N355    1.367   .     A
C322   C509    1.416   .     S
C323   H353    1.082   .     S
C323   N356    1.367   .     A
C324   H354    1.082   .     S
C324   N355    1.367   .     A
C324   C507    1.416   .     S
C325   O361    1.292   .     A
C325   C330    1.459   .     S
C325   O364    1.292   .     A
C326   C329    1.459   .     S
C326   O363    1.292   .     A
C326   O362    1.292   .     A
C327   O365    1.382   .     S
C327   C329    1.416   .     A
C327   C337    1.414   .     A
C328   O367    1.382   .     S
C328   C330    1.416   .     A
C328   C338    1.414   .     A
C329   C331    1.394   .     A
C330   C332    1.394   .     A
C331   C333    1.388   .     A
C331   H343    1.085   .     S
C332   H344    1.085   .     S
C332   C334    1.388   .     A
C333   C339    1.396   .     A
C333   C335    1.408   .     A
C334   C336    1.408   .     A
C334   C340    1.396   .     A
C335   C337    1.423   .     A
C335   C894    1.408   .     S
C336   C338    1.423   .     A
C336   C893    1.408   1_554 S
C339   H345    1.085   .     S
C339   C871    1.401   .     S
C340   H346    1.085   .     S
C340   C872    1.401   1_554 S
Cu341  Cu342   2.676   .     S
Cu341  O357    1.965   .     S
Cu341  O363    1.967   .     S
Cu341  O359    1.965   .     S
Cu341  N355    2.011   .     S
Cu341  O361    1.967   .     S
Cu342  O358    1.965   .     S
Cu342  O360    1.965   .     S
Cu342  O364    1.967   .     S
Cu342  N356    2.011   .     S
Cu342  O362    1.967   .     S
O365   H366    0.991   .     S
O367   H368    0.991   .     S
O369   H370    0.992   .     S
O371   H372    0.992   .     S
C373   O422    1.290   .     A
C373   O419    1.291   .     A
C373   C382    1.450   .     S
C374   O421    1.290   .     A
C374   O420    1.291   .     A
C374   C381    1.450   .     S
C375   C400    1.418   .     A
C375   O431    1.383   .     S
C375   C959    1.401   1_554 S
C376   C399    1.418   .     A
C376   O433    1.383   .     S
C376   C960    1.401   .     S
C377   H409    1.083   .     S
C377   C382    1.401   .     A
C377   C503    1.383   1_455 S
C378   H410    1.083   .     S
C378   C381    1.401   .     A
C378   C442    1.383   .     S
C379   H411    1.083   .     S
C379   C381    1.401   .     A
C379   C439    1.383   .     S
C380   C382    1.401   .     A
C380   H412    1.083   .     S
C380   C502    1.383   1_455 S
C383   H413    1.082   .     S
C383   N418    1.367   .     A
C384   H414    1.082   .     S
C384   N417    1.367   .     A
C384   C13     1.416   1_565 S
C385   H415    1.082   .     S
C385   N418    1.367   .     A
C386   H416    1.082   .     S
C386   N417    1.367   .     A
C386   C11     1.416   1_565 S
C387   O423    1.292   .     A
C387   C392    1.459   .     S
C387   O426    1.292   .     A
C388   C391    1.459   .     S
C388   O425    1.292   .     A
C388   O424    1.292   .     A
C389   O427    1.382   .     S
C389   C391    1.416   .     A
C389   C399    1.414   .     A
C390   O429    1.382   .     S
C390   C392    1.416   .     A
C390   C400    1.414   .     A
C391   C393    1.394   .     A
C392   C394    1.394   .     A
C393   C395    1.388   .     A
C393   H405    1.085   .     S
C394   H406    1.085   .     S
C394   C396    1.388   .     A
C395   C401    1.396   .     A
C395   C397    1.408   .     A
C396   C398    1.408   .     A
C396   C402    1.396   .     A
C397   C399    1.423   .     A
C397   C956    1.408   .     S
C398   C400    1.423   .     A
C398   C955    1.408   1_554 S
C401   H407    1.085   .     S
C401   C933    1.401   .     S
C402   H408    1.085   .     S
C402   C934    1.401   1_554 S
Cu403  Cu404   2.676   .     S
Cu403  O419    1.965   .     S
Cu403  O425    1.967   .     S
Cu403  O421    1.965   .     S
Cu403  N417    2.011   .     S
Cu403  O423    1.967   .     S
Cu404  O420    1.965   .     S
Cu404  O422    1.965   .     S
Cu404  O426    1.967   .     S
Cu404  N418    2.011   .     S
Cu404  O424    1.967   .     S
O427   H428    0.991   .     S
O429   H430    0.991   .     S
O431   H432    0.992   .     S
O433   H434    0.992   .     S
C435   O484    1.290   .     A
C435   O481    1.291   .     A
C435   C444    1.450   .     S
C436   O483    1.290   .     A
C436   O482    1.291   .     A
C436   C443    1.450   .     S
C437   C462    1.418   .     A
C437   O493    1.383   .     S
C437   C1021   1.401   1_554 S
C438   C461    1.418   .     A
C438   O495    1.383   .     S
C438   C1022   1.401   .     S
C439   H471    1.083   .     S
C439   C444    1.401   .     A
C440   H472    1.083   .     S
C440   C443    1.401   .     A
C440   C504    1.383   .     S
C441   H473    1.083   .     S
C441   C443    1.401   .     A
C441   C501    1.383   .     S
C442   C444    1.401   .     A
C442   H474    1.083   .     S
C445   H475    1.082   .     S
C445   N480    1.367   .     A
C446   H476    1.082   .     S
C446   N479    1.367   .     A
C446   C75     1.416   1_565 S
C447   H477    1.082   .     S
C447   N480    1.367   .     A
C448   H478    1.082   .     S
C448   N479    1.367   .     A
C448   C73     1.416   1_565 S
C449   O485    1.292   .     A
C449   C454    1.459   .     S
C449   O488    1.292   .     A
C450   C453    1.459   .     S
C450   O487    1.292   .     A
C450   O486    1.292   .     A
C451   O489    1.382   .     S
C451   C453    1.416   .     A
C451   C461    1.414   .     A
C452   O491    1.382   .     S
C452   C454    1.416   .     A
C452   C462    1.414   .     A
C453   C455    1.394   .     A
C454   C456    1.394   .     A
C455   C457    1.388   .     A
C455   H467    1.085   .     S
C456   H468    1.085   .     S
C456   C458    1.388   .     A
C457   C463    1.396   .     A
C457   C459    1.408   .     A
C458   C460    1.408   .     A
C458   C464    1.396   .     A
C459   C461    1.423   .     A
C459   C1018   1.408   .     S
C460   C462    1.423   .     A
C460   C1017   1.408   1_554 S
C463   H469    1.085   .     S
C463   C995    1.401   .     S
C464   H470    1.085   .     S
C464   C996    1.401   1_554 S
Cu465  Cu466   2.676   .     S
Cu465  O481    1.965   .     S
Cu465  O487    1.967   .     S
Cu465  O483    1.965   .     S
Cu465  N479    2.011   .     S
Cu465  O485    1.967   .     S
Cu466  O482    1.965   .     S
Cu466  O484    1.965   .     S
Cu466  O488    1.967   .     S
Cu466  N480    2.011   .     S
Cu466  O486    1.967   .     S
O489   H490    0.991   .     S
O491   H492    0.991   .     S
O493   H494    0.992   .     S
O495   H496    0.992   .     S
C497   O546    1.290   .     A
C497   O543    1.291   .     A
C497   C506    1.450   .     S
C498   O545    1.290   .     A
C498   O544    1.291   .     A
C498   C505    1.450   .     S
C499   C524    1.418   .     A
C499   O555    1.383   .     S
C499   C1083   1.401   1_554 S
C500   C523    1.418   .     A
C500   O557    1.383   .     S
C500   C1084   1.401   .     S
C501   H533    1.083   .     S
C501   C506    1.401   .     A
C502   H534    1.083   .     S
C502   C505    1.401   .     A
C502   C380    1.383   1_655 S
C503   H535    1.083   .     S
C503   C505    1.401   .     A
C503   C377    1.383   1_655 S
C504   C506    1.401   .     A
C504   H536    1.083   .     S
C507   H537    1.082   .     S
C507   N542    1.367   .     A
C508   H538    1.082   .     S
C508   N541    1.367   .     A
C508   C137    1.416   1_565 S
C509   H539    1.082   .     S
C509   N542    1.367   .     A
C510   H540    1.082   .     S
C510   N541    1.367   .     A
C510   C135    1.416   1_565 S
C511   O547    1.292   .     A
C511   C516    1.459   .     S
C511   O550    1.292   .     A
C512   C515    1.459   .     S
C512   O549    1.292   .     A
C512   O548    1.292   .     A
C513   O551    1.382   .     S
C513   C515    1.416   .     A
C513   C523    1.414   .     A
C514   O553    1.382   .     S
C514   C516    1.416   .     A
C514   C524    1.414   .     A
C515   C517    1.394   .     A
C516   C518    1.394   .     A
C517   C519    1.388   .     A
C517   H529    1.085   .     S
C518   H530    1.085   .     S
C518   C520    1.388   .     A
C519   C525    1.396   .     A
C519   C521    1.408   .     A
C520   C522    1.408   .     A
C520   C526    1.396   .     A
C521   C523    1.423   .     A
C521   C1080   1.408   .     S
C522   C524    1.423   .     A
C522   C1079   1.408   1_554 S
C525   H531    1.085   .     S
C525   C1057   1.401   .     S
C526   H532    1.085   .     S
C526   C1058   1.401   1_554 S
Cu527  Cu528   2.676   .     S
Cu527  O543    1.965   .     S
Cu527  O549    1.967   .     S
Cu527  O545    1.965   .     S
Cu527  N541    2.011   .     S
Cu527  O547    1.967   .     S
Cu528  O544    1.965   .     S
Cu528  O546    1.965   .     S
Cu528  O550    1.967   .     S
Cu528  N542    2.011   .     S
Cu528  O548    1.967   .     S
O551   H552    0.991   .     S
O553   H554    0.991   .     S
O555   H556    0.992   .     S
O557   H558    0.992   .     S
C559   O608    1.290   .     A
C559   O605    1.291   .     A
C559   C568    1.450   .     S
C560   O607    1.290   .     A
C560   O606    1.291   .     A
C560   C567    1.450   .     S
C561   C586    1.418   .     A
C561   O617    1.383   .     S
C562   C585    1.418   .     A
C562   O619    1.383   .     S
C562   C30     1.401   1_556 S
C563   H595    1.083   .     S
C563   C568    1.401   .     A
C563   C689    1.383   1_455 S
C564   H596    1.083   .     S
C564   C567    1.401   .     A
C564   C628    1.383   .     S
C565   H597    1.083   .     S
C565   C567    1.401   .     A
C565   C625    1.383   .     S
C566   C568    1.401   .     A
C566   H598    1.083   .     S
C566   C688    1.383   1_455 S
C569   H599    1.082   .     S
C569   N604    1.367   .     A
C569   C944    1.416   1_545 S
C570   H600    1.082   .     S
C570   N603    1.367   .     A
C570   C757    1.416   .     S
C571   H601    1.082   .     S
C571   N604    1.367   .     A
C571   C942    1.416   1_545 S
C572   H602    1.082   .     S
C572   N603    1.367   .     A
C572   C755    1.416   .     S
C573   O609    1.292   .     A
C573   C578    1.459   .     S
C573   O612    1.292   .     A
C574   C577    1.459   .     S
C574   O611    1.292   .     A
C574   O610    1.292   .     A
C575   O613    1.382   .     S
C575   C577    1.416   .     A
C575   C585    1.414   .     A
C576   O615    1.382   .     S
C576   C578    1.416   .     A
C576   C586    1.414   .     A
C577   C579    1.394   .     A
C578   C580    1.394   .     A
C579   C581    1.388   .     A
C579   H591    1.085   .     S
C580   H592    1.085   .     S
C580   C582    1.388   .     A
C581   C587    1.396   .     A
C581   C583    1.408   .     A
C582   C584    1.408   .     A
C582   C588    1.396   .     A
C583   C585    1.423   .     A
C583   C26     1.408   1_556 S
C584   C586    1.423   .     A
C587   H593    1.085   .     S
C587   C3      1.401   1_556 S
C588   H594    1.085   .     S
Cu589  Cu590   2.676   .     S
Cu589  O605    1.965   .     S
Cu589  O611    1.967   .     S
Cu589  O607    1.965   .     S
Cu589  N603    2.011   .     S
Cu589  O609    1.967   .     S
Cu590  O606    1.965   .     S
Cu590  O608    1.965   .     S
Cu590  O612    1.967   .     S
Cu590  N604    2.011   .     S
Cu590  O610    1.967   .     S
O613   H614    0.991   .     S
O615   H616    0.991   .     S
O617   H618    0.992   .     S
O619   H620    0.992   .     S
C621   O670    1.290   .     A
C621   O667    1.291   .     A
C621   C630    1.450   .     S
C622   O669    1.290   .     A
C622   O668    1.291   .     A
C622   C629    1.450   .     S
C623   C648    1.418   .     A
C623   O679    1.383   .     S
C624   C647    1.418   .     A
C624   O681    1.383   .     S
C624   C92     1.401   1_556 S
C625   H657    1.083   .     S
C625   C630    1.401   .     A
C626   H658    1.083   .     S
C626   C629    1.401   .     A
C626   C690    1.383   .     S
C627   H659    1.083   .     S
C627   C629    1.401   .     A
C627   C687    1.383   .     S
C628   C630    1.401   .     A
C628   H660    1.083   .     S
C631   H661    1.082   .     S
C631   N666    1.367   .     A
C631   C1006   1.416   1_545 S
C632   H662    1.082   .     S
C632   N665    1.367   .     A
C632   C819    1.416   .     S
C633   H663    1.082   .     S
C633   N666    1.367   .     A
C633   C1004   1.416   1_545 S
C634   H664    1.082   .     S
C634   N665    1.367   .     A
C634   C817    1.416   .     S
C635   O671    1.292   .     A
C635   C640    1.459   .     S
C635   O674    1.292   .     A
C636   C639    1.459   .     S
C636   O673    1.292   .     A
C636   O672    1.292   .     A
C637   O675    1.382   .     S
C637   C639    1.416   .     A
C637   C647    1.414   .     A
C638   O677    1.382   .     S
C638   C640    1.416   .     A
C638   C648    1.414   .     A
C639   C641    1.394   .     A
C640   C642    1.394   .     A
C641   C643    1.388   .     A
C641   H653    1.085   .     S
C642   H654    1.085   .     S
C642   C644    1.388   .     A
C643   C649    1.396   .     A
C643   C645    1.408   .     A
C644   C646    1.408   .     A
C644   C650    1.396   .     A
C645   C647    1.423   .     A
C645   C88     1.408   1_556 S
C646   C648    1.423   .     A
C649   H655    1.085   .     S
C649   C65     1.401   1_556 S
C650   H656    1.085   .     S
Cu651  Cu652   2.676   .     S
Cu651  O667    1.965   .     S
Cu651  O673    1.967   .     S
Cu651  O669    1.965   .     S
Cu651  N665    2.011   .     S
Cu651  O671    1.967   .     S
Cu652  O668    1.965   .     S
Cu652  O670    1.965   .     S
Cu652  O674    1.967   .     S
Cu652  N666    2.011   .     S
Cu652  O672    1.967   .     S
O675   H676    0.991   .     S
O677   H678    0.991   .     S
O679   H680    0.992   .     S
O681   H682    0.992   .     S
C683   O732    1.290   .     A
C683   O729    1.291   .     A
C683   C692    1.450   .     S
C684   O731    1.290   .     A
C684   O730    1.291   .     A
C684   C691    1.450   .     S
C685   C710    1.418   .     A
C685   O741    1.383   .     S
C686   C709    1.418   .     A
C686   O743    1.383   .     S
C686   C154    1.401   1_556 S
C687   H719    1.083   .     S
C687   C692    1.401   .     A
C688   H720    1.083   .     S
C688   C691    1.401   .     A
C688   C566    1.383   1_655 S
C689   H721    1.083   .     S
C689   C691    1.401   .     A
C689   C563    1.383   1_655 S
C690   C692    1.401   .     A
C690   H722    1.083   .     S
C693   H723    1.082   .     S
C693   N728    1.367   .     A
C693   C1068   1.416   1_545 S
C694   H724    1.082   .     S
C694   N727    1.367   .     A
C694   C881    1.416   .     S
C695   H725    1.082   .     S
C695   N728    1.367   .     A
C695   C1066   1.416   1_545 S
C696   H726    1.082   .     S
C696   N727    1.367   .     A
C696   C879    1.416   .     S
C697   O733    1.292   .     A
C697   C702    1.459   .     S
C697   O736    1.292   .     A
C698   C701    1.459   .     S
C698   O735    1.292   .     A
C698   O734    1.292   .     A
C699   O737    1.382   .     S
C699   C701    1.416   .     A
C699   C709    1.414   .     A
C700   O739    1.382   .     S
C700   C702    1.416   .     A
C700   C710    1.414   .     A
C701   C703    1.394   .     A
C702   C704    1.394   .     A
C703   C705    1.388   .     A
C703   H715    1.085   .     S
C704   H716    1.085   .     S
C704   C706    1.388   .     A
C705   C711    1.396   .     A
C705   C707    1.408   .     A
C706   C708    1.408   .     A
C706   C712    1.396   .     A
C707   C709    1.423   .     A
C707   C150    1.408   1_556 S
C708   C710    1.423   .     A
C711   H717    1.085   .     S
C711   C127    1.401   1_556 S
C712   H718    1.085   .     S
Cu713  Cu714   2.676   .     S
Cu713  O729    1.965   .     S
Cu713  O735    1.967   .     S
Cu713  O731    1.965   .     S
Cu713  N727    2.011   .     S
Cu713  O733    1.967   .     S
Cu714  O730    1.965   .     S
Cu714  O732    1.965   .     S
Cu714  O736    1.967   .     S
Cu714  N728    2.011   .     S
Cu714  O734    1.967   .     S
O737   H738    0.991   .     S
O739   H740    0.991   .     S
O741   H742    0.992   .     S
O743   H744    0.992   .     S
C745   O794    1.290   .     A
C745   O791    1.291   .     A
C745   C754    1.450   .     S
C746   O793    1.290   .     A
C746   O792    1.291   .     A
C746   C753    1.450   .     S
C747   C772    1.418   .     A
C747   O803    1.383   .     S
C748   C771    1.418   .     A
C748   O805    1.383   .     S
C748   C216    1.401   1_556 S
C749   H781    1.083   .     S
C749   C754    1.401   .     A
C749   C875    1.383   1_455 S
C750   H782    1.083   .     S
C750   C753    1.401   .     A
C750   C814    1.383   .     S
C751   H783    1.083   .     S
C751   C753    1.401   .     A
C751   C811    1.383   .     S
C752   C754    1.401   .     A
C752   H784    1.083   .     S
C752   C874    1.383   1_455 S
C755   H785    1.082   .     S
C755   N790    1.367   .     A
C756   H786    1.082   .     S
C756   N789    1.367   .     A
C756   C943    1.416   .     S
C757   H787    1.082   .     S
C757   N790    1.367   .     A
C758   H788    1.082   .     S
C758   N789    1.367   .     A
C758   C941    1.416   .     S
C759   O795    1.292   .     A
C759   C764    1.459   .     S
C759   O798    1.292   .     A
C760   C763    1.459   .     S
C760   O797    1.292   .     A
C760   O796    1.292   .     A
C761   O799    1.382   .     S
C761   C763    1.416   .     A
C761   C771    1.414   .     A
C762   O801    1.382   .     S
C762   C764    1.416   .     A
C762   C772    1.414   .     A
C763   C765    1.394   .     A
C764   C766    1.394   .     A
C765   C767    1.388   .     A
C765   H777    1.085   .     S
C766   H778    1.085   .     S
C766   C768    1.388   .     A
C767   C773    1.396   .     A
C767   C769    1.408   .     A
C768   C770    1.408   .     A
C768   C774    1.396   .     A
C769   C771    1.423   .     A
C769   C212    1.408   1_556 S
C770   C772    1.423   .     A
C773   H779    1.085   .     S
C773   C189    1.401   1_556 S
C774   H780    1.085   .     S
Cu775  Cu776   2.676   .     S
Cu775  O791    1.965   .     S
Cu775  O797    1.967   .     S
Cu775  O793    1.965   .     S
Cu775  N789    2.011   .     S
Cu775  O795    1.967   .     S
Cu776  O792    1.965   .     S
Cu776  O794    1.965   .     S
Cu776  O798    1.967   .     S
Cu776  N790    2.011   .     S
Cu776  O796    1.967   .     S
O799   H800    0.991   .     S
O801   H802    0.991   .     S
O803   H804    0.992   .     S
O805   H806    0.992   .     S
C807   O856    1.290   .     A
C807   O853    1.291   .     A
C807   C816    1.450   .     S
C808   O855    1.290   .     A
C808   O854    1.291   .     A
C808   C815    1.450   .     S
C809   C834    1.418   .     A
C809   O865    1.383   .     S
C810   C833    1.418   .     A
C810   O867    1.383   .     S
C810   C278    1.401   1_556 S
C811   H843    1.083   .     S
C811   C816    1.401   .     A
C812   H844    1.083   .     S
C812   C815    1.401   .     A
C812   C876    1.383   .     S
C813   H845    1.083   .     S
C813   C815    1.401   .     A
C813   C873    1.383   .     S
C814   C816    1.401   .     A
C814   H846    1.083   .     S
C817   H847    1.082   .     S
C817   N852    1.367   .     A
C818   H848    1.082   .     S
C818   N851    1.367   .     A
C818   C1005   1.416   .     S
C819   H849    1.082   .     S
C819   N852    1.367   .     A
C820   H850    1.082   .     S
C820   N851    1.367   .     A
C820   C1003   1.416   .     S
C821   O857    1.292   .     A
C821   C826    1.459   .     S
C821   O860    1.292   .     A
C822   C825    1.459   .     S
C822   O859    1.292   .     A
C822   O858    1.292   .     A
C823   O861    1.382   .     S
C823   C825    1.416   .     A
C823   C833    1.414   .     A
C824   O863    1.382   .     S
C824   C826    1.416   .     A
C824   C834    1.414   .     A
C825   C827    1.394   .     A
C826   C828    1.394   .     A
C827   C829    1.388   .     A
C827   H839    1.085   .     S
C828   H840    1.085   .     S
C828   C830    1.388   .     A
C829   C835    1.396   .     A
C829   C831    1.408   .     A
C830   C832    1.408   .     A
C830   C836    1.396   .     A
C831   C833    1.423   .     A
C831   C274    1.408   1_556 S
C832   C834    1.423   .     A
C835   H841    1.085   .     S
C835   C251    1.401   1_556 S
C836   H842    1.085   .     S
Cu837  Cu838   2.676   .     S
Cu837  O853    1.965   .     S
Cu837  O859    1.967   .     S
Cu837  O855    1.965   .     S
Cu837  N851    2.011   .     S
Cu837  O857    1.967   .     S
Cu838  O854    1.965   .     S
Cu838  O856    1.965   .     S
Cu838  O860    1.967   .     S
Cu838  N852    2.011   .     S
Cu838  O858    1.967   .     S
O861   H862    0.991   .     S
O863   H864    0.991   .     S
O865   H866    0.992   .     S
O867   H868    0.992   .     S
C869   O918    1.290   .     A
C869   O915    1.291   .     A
C869   C878    1.450   .     S
C870   O917    1.290   .     A
C870   O916    1.291   .     A
C870   C877    1.450   .     S
C871   C896    1.418   .     A
C871   O927    1.383   .     S
C872   C895    1.418   .     A
C872   O929    1.383   .     S
C872   C340    1.401   1_556 S
C873   H905    1.083   .     S
C873   C878    1.401   .     A
C874   H906    1.083   .     S
C874   C877    1.401   .     A
C874   C752    1.383   1_655 S
C875   H907    1.083   .     S
C875   C877    1.401   .     A
C875   C749    1.383   1_655 S
C876   C878    1.401   .     A
C876   H908    1.083   .     S
C879   H909    1.082   .     S
C879   N914    1.367   .     A
C880   H910    1.082   .     S
C880   N913    1.367   .     A
C880   C1067   1.416   .     S
C881   H911    1.082   .     S
C881   N914    1.367   .     A
C882   H912    1.082   .     S
C882   N913    1.367   .     A
C882   C1065   1.416   .     S
C883   O919    1.292   .     A
C883   C888    1.459   .     S
C883   O922    1.292   .     A
C884   C887    1.459   .     S
C884   O921    1.292   .     A
C884   O920    1.292   .     A
C885   O923    1.382   .     S
C885   C887    1.416   .     A
C885   C895    1.414   .     A
C886   O925    1.382   .     S
C886   C888    1.416   .     A
C886   C896    1.414   .     A
C887   C889    1.394   .     A
C888   C890    1.394   .     A
C889   C891    1.388   .     A
C889   H901    1.085   .     S
C890   H902    1.085   .     S
C890   C892    1.388   .     A
C891   C897    1.396   .     A
C891   C893    1.408   .     A
C892   C894    1.408   .     A
C892   C898    1.396   .     A
C893   C895    1.423   .     A
C893   C336    1.408   1_556 S
C894   C896    1.423   .     A
C897   H903    1.085   .     S
C897   C313    1.401   1_556 S
C898   H904    1.085   .     S
Cu899  Cu900   2.676   .     S
Cu899  O915    1.965   .     S
Cu899  O921    1.967   .     S
Cu899  O917    1.965   .     S
Cu899  N913    2.011   .     S
Cu899  O919    1.967   .     S
Cu900  O916    1.965   .     S
Cu900  O918    1.965   .     S
Cu900  O922    1.967   .     S
Cu900  N914    2.011   .     S
Cu900  O920    1.967   .     S
O923   H924    0.991   .     S
O925   H926    0.991   .     S
O927   H928    0.992   .     S
O929   H930    0.992   .     S
C931   O980    1.290   .     A
C931   O977    1.291   .     A
C931   C940    1.450   .     S
C932   O979    1.290   .     A
C932   O978    1.291   .     A
C932   C939    1.450   .     S
C933   C958    1.418   .     A
C933   O989    1.383   .     S
C934   C957    1.418   .     A
C934   O991    1.383   .     S
C934   C402    1.401   1_556 S
C935   H967    1.083   .     S
C935   C940    1.401   .     A
C935   C1061   1.383   1_455 S
C936   H968    1.083   .     S
C936   C939    1.401   .     A
C936   C1000   1.383   .     S
C937   H969    1.083   .     S
C937   C939    1.401   .     A
C937   C997    1.383   .     S
C938   C940    1.401   .     A
C938   H970    1.083   .     S
C938   C1060   1.383   1_455 S
C941   H971    1.082   .     S
C941   N976    1.367   .     A
C942   H972    1.082   .     S
C942   N975    1.367   .     A
C942   C571    1.416   1_565 S
C943   H973    1.082   .     S
C943   N976    1.367   .     A
C944   H974    1.082   .     S
C944   N975    1.367   .     A
C944   C569    1.416   1_565 S
C945   O981    1.292   .     A
C945   C950    1.459   .     S
C945   O984    1.292   .     A
C946   C949    1.459   .     S
C946   O983    1.292   .     A
C946   O982    1.292   .     A
C947   O985    1.382   .     S
C947   C949    1.416   .     A
C947   C957    1.414   .     A
C948   O987    1.382   .     S
C948   C950    1.416   .     A
C948   C958    1.414   .     A
C949   C951    1.394   .     A
C950   C952    1.394   .     A
C951   C953    1.388   .     A
C951   H963    1.085   .     S
C952   H964    1.085   .     S
C952   C954    1.388   .     A
C953   C959    1.396   .     A
C953   C955    1.408   .     A
C954   C956    1.408   .     A
C954   C960    1.396   .     A
C955   C957    1.423   .     A
C955   C398    1.408   1_556 S
C956   C958    1.423   .     A
C959   H965    1.085   .     S
C959   C375    1.401   1_556 S
C960   H966    1.085   .     S
Cu961  Cu962   2.676   .     S
Cu961  O977    1.965   .     S
Cu961  O983    1.967   .     S
Cu961  O979    1.965   .     S
Cu961  N975    2.011   .     S
Cu961  O981    1.967   .     S
Cu962  O978    1.965   .     S
Cu962  O980    1.965   .     S
Cu962  O984    1.967   .     S
Cu962  N976    2.011   .     S
Cu962  O982    1.967   .     S
O985   H986    0.991   .     S
O987   H988    0.991   .     S
O989   H990    0.992   .     S
O991   H992    0.992   .     S
C993   O1042   1.290   .     A
C993   O1039   1.291   .     A
C993   C1002   1.450   .     S
C994   O1041   1.290   .     A
C994   O1040   1.291   .     A
C994   C1001   1.450   .     S
C995   C1020   1.418   .     A
C995   O1051   1.383   .     S
C996   C1019   1.418   .     A
C996   O1053   1.383   .     S
C996   C464    1.401   1_556 S
C997   H1029   1.083   .     S
C997   C1002   1.401   .     A
C998   H1030   1.083   .     S
C998   C1001   1.401   .     A
C998   C1062   1.383   .     S
C999   H1031   1.083   .     S
C999   C1001   1.401   .     A
C999   C1059   1.383   .     S
C1000  C1002   1.401   .     A
C1000  H1032   1.083   .     S
C1003  H1033   1.082   .     S
C1003  N1038   1.367   .     A
C1004  H1034   1.082   .     S
C1004  N1037   1.367   .     A
C1004  C633    1.416   1_565 S
C1005  H1035   1.082   .     S
C1005  N1038   1.367   .     A
C1006  H1036   1.082   .     S
C1006  N1037   1.367   .     A
C1006  C631    1.416   1_565 S
C1007  O1043   1.292   .     A
C1007  C1012   1.459   .     S
C1007  O1046   1.292   .     A
C1008  C1011   1.459   .     S
C1008  O1045   1.292   .     A
C1008  O1044   1.292   .     A
C1009  O1047   1.382   .     S
C1009  C1011   1.416   .     A
C1009  C1019   1.414   .     A
C1010  O1049   1.382   .     S
C1010  C1012   1.416   .     A
C1010  C1020   1.414   .     A
C1011  C1013   1.394   .     A
C1012  C1014   1.394   .     A
C1013  C1015   1.388   .     A
C1013  H1025   1.085   .     S
C1014  H1026   1.085   .     S
C1014  C1016   1.388   .     A
C1015  C1021   1.396   .     A
C1015  C1017   1.408   .     A
C1016  C1018   1.408   .     A
C1016  C1022   1.396   .     A
C1017  C1019   1.423   .     A
C1017  C460    1.408   1_556 S
C1018  C1020   1.423   .     A
C1021  H1027   1.085   .     S
C1021  C437    1.401   1_556 S
C1022  H1028   1.085   .     S
Cu1023 Cu1024  2.676   .     S
Cu1023 O1039   1.965   .     S
Cu1023 O1045   1.967   .     S
Cu1023 O1041   1.965   .     S
Cu1023 N1037   2.011   .     S
Cu1023 O1043   1.967   .     S
Cu1024 O1040   1.965   .     S
Cu1024 O1042   1.965   .     S
Cu1024 O1046   1.967   .     S
Cu1024 N1038   2.011   .     S
Cu1024 O1044   1.967   .     S
O1047  H1048   0.991   .     S
O1049  H1050   0.991   .     S
O1051  H1052   0.992   .     S
O1053  H1054   0.992   .     S
C1055  O1104   1.290   .     A
C1055  O1101   1.291   .     A
C1055  C1064   1.450   .     S
C1056  O1103   1.290   .     A
C1056  O1102   1.291   .     A
C1056  C1063   1.450   .     S
C1057  C1082   1.418   .     A
C1057  O1113   1.383   .     S
C1058  C1081   1.418   .     A
C1058  O1115   1.383   .     S
C1058  C526    1.401   1_556 S
C1059  H1091   1.083   .     S
C1059  C1064   1.401   .     A
C1060  H1092   1.083   .     S
C1060  C1063   1.401   .     A
C1060  C938    1.383   1_655 S
C1061  H1093   1.083   .     S
C1061  C1063   1.401   .     A
C1061  C935    1.383   1_655 S
C1062  C1064   1.401   .     A
C1062  H1094   1.083   .     S
C1065  H1095   1.082   .     S
C1065  N1100   1.367   .     A
C1066  H1096   1.082   .     S
C1066  N1099   1.367   .     A
C1066  C695    1.416   1_565 S
C1067  H1097   1.082   .     S
C1067  N1100   1.367   .     A
C1068  H1098   1.082   .     S
C1068  N1099   1.367   .     A
C1068  C693    1.416   1_565 S
C1069  O1105   1.292   .     A
C1069  C1074   1.459   .     S
C1069  O1108   1.292   .     A
C1070  C1073   1.459   .     S
C1070  O1107   1.292   .     A
C1070  O1106   1.292   .     A
C1071  O1109   1.382   .     S
C1071  C1073   1.416   .     A
C1071  C1081   1.414   .     A
C1072  O1111   1.382   .     S
C1072  C1074   1.416   .     A
C1072  C1082   1.414   .     A
C1073  C1075   1.394   .     A
C1074  C1076   1.394   .     A
C1075  C1077   1.388   .     A
C1075  H1087   1.085   .     S
C1076  H1088   1.085   .     S
C1076  C1078   1.388   .     A
C1077  C1083   1.396   .     A
C1077  C1079   1.408   .     A
C1078  C1080   1.408   .     A
C1078  C1084   1.396   .     A
C1079  C1081   1.423   .     A
C1079  C522    1.408   1_556 S
C1080  C1082   1.423   .     A
C1083  H1089   1.085   .     S
C1083  C499    1.401   1_556 S
C1084  H1090   1.085   .     S
Cu1085 Cu1086  2.676   .     S
Cu1085 O1101   1.965   .     S
Cu1085 O1107   1.967   .     S
Cu1085 O1103   1.965   .     S
Cu1085 N1099   2.011   .     S
Cu1085 O1105   1.967   .     S
Cu1086 O1102   1.965   .     S
Cu1086 O1104   1.965   .     S
Cu1086 O1108   1.967   .     S
Cu1086 N1100   2.011   .     S
Cu1086 O1106   1.967   .     S
O1109  H1110   0.991   .     S
O1111  H1112   0.991   .     S
O1113  H1114   0.992   .     S
O1115  H1116   0.992   .     S
