data_str_m2_o2_o5_pcu_sym.99
_audit_creation_date              2020-01-03
_audit_creation_method            'Materials Studio'
_symmetry_space_group_name_H-M    'P1'
_symmetry_Int_Tables_number       1
_symmetry_cell_setting            triclinic
loop_
_symmetry_equiv_pos_as_xyz
  x,y,z
_cell_length_a                    30.5089
_cell_length_b                    27.9767
_cell_length_c                    27.1459
_cell_angle_alpha                 89.9999
_cell_angle_beta                  93.3754
_cell_angle_gamma                 90.0003
loop_
_atom_site_label
_atom_site_type_symbol
_atom_site_fract_x
_atom_site_fract_y
_atom_site_fract_z
_atom_site_U_iso_or_equiv
_atom_site_adp_type
_atom_site_occupancy
C1     C     0.16521   0.25007   0.16994   0.00000  Uiso   1.00
C2     C     0.27016   0.44663   0.20552   0.00000  Uiso   1.00
C3     C     0.24999   0.24998   0.07362   0.00000  Uiso   1.00
C4     C     0.25001   0.24998   0.25972   0.00000  Uiso   1.00
C5     C     0.25000   0.02740   0.16667   0.00000  Uiso   1.00
C6     C     0.25000   0.47308   0.16667   0.00000  Uiso   1.00
C7     C     0.25001   0.24995   0.02188   0.00000  Uiso   1.00
C8     C     0.24999   0.24995   0.31146   0.00000  Uiso   1.00
C9     C     0.04725   0.29092   0.15948   0.00000  Uiso   1.00
C10    C     0.45193   0.20777   0.15073   0.00000  Uiso   1.00
C11    C     0.45275   0.29092   0.17385   0.00000  Uiso   1.00
C12    C     0.33479   0.25007   0.16339   0.00000  Uiso   1.00
C13    C     0.04807   0.20777   0.18259   0.00000  Uiso   1.00
C14    C     0.09253   0.29301   0.16618   0.00000  Uiso   1.00
C15    C     0.40609   0.20797   0.14781   0.00000  Uiso   1.00
C16    C     0.40747   0.29300   0.16716   0.00000  Uiso   1.00
C17    C     0.09391   0.20797   0.18552   0.00000  Uiso   1.00
C18    C     0.11704   0.25036   0.17428   0.00000  Uiso   1.00
C19    C     0.38296   0.25036   0.15905   0.00000  Uiso   1.00
C20    C     0.02431   0.24874   0.16816   0.00000  Uiso   1.00
C21    C     0.47569   0.24874   0.16517   0.00000  Uiso   1.00
C22    C     0.27876   0.10407   0.19791   0.00000  Uiso   1.00
C23    C     0.22879   0.39640   0.12869   0.00000  Uiso   1.00
C24    C     0.22124   0.10407   0.13542   0.00000  Uiso   1.00
C25    C     0.27121   0.39640   0.20464   0.00000  Uiso   1.00
C26    C     0.27981   0.05387   0.19718   0.00000  Uiso   1.00
C27    C     0.22984   0.44663   0.12781   0.00000  Uiso   1.00
C28    C     0.22019   0.05387   0.13615   0.00000  Uiso   1.00
Cu29   Cu    0.25000   0.29822   0.16667   0.00000  Uiso   1.00
Cu30   Cu    0.25000   0.20179   0.16667   0.00000  Uiso   1.00
H31    H     0.03018   0.32341   0.14861   0.00000  Uiso   1.00
H32    H     0.46893   0.17563   0.14052   0.00000  Uiso   1.00
H33    H     0.46982   0.32341   0.18473   0.00000  Uiso   1.00
H34    H     0.03107   0.17562   0.19280   0.00000  Uiso   1.00
H35    H     0.30451   0.03623   0.22076   0.00000  Uiso   1.00
H36    H     0.21454   0.46446   0.09601   0.00000  Uiso   1.00
H37    H     0.19550   0.03623   0.11257   0.00000  Uiso   1.00
H38    H     0.28546   0.46446   0.23732   0.00000  Uiso   1.00
I39    I     0.32383   0.13572   0.25100   0.00000  Uiso   1.00
I40    I     0.19035   0.36753   0.06759   0.00000  Uiso   1.00
I41    I     0.17617   0.13572   0.08233   0.00000  Uiso   1.00
I42    I     0.30964   0.36753   0.26575   0.00000  Uiso   1.00
I43    I     0.11671   0.36437   0.17272   0.00000  Uiso   1.00
I44    I     0.37665   0.14418   0.11826   0.00000  Uiso   1.00
I45    I     0.38330   0.36437   0.16063   0.00000  Uiso   1.00
I46    I     0.12335   0.14418   0.21506   0.00000  Uiso   1.00
N47    N     0.25000   0.12935   0.16667   0.00000  Uiso   1.00
N48    N     0.25000   0.37066   0.16667   0.00000  Uiso   1.00
O49    O     0.18573   0.29072   0.16667   0.00000  Uiso   1.00
O50    O     0.31427   0.20929   0.16666   0.00000  Uiso   1.00
O51    O     0.31427   0.29072   0.16666   0.00000  Uiso   1.00
O52    O     0.18573   0.20929   0.16667   0.00000  Uiso   1.00
O53    O     0.25000   0.29071   0.09613   0.00000  Uiso   1.00
O54    O     0.25000   0.20929   0.23720   0.00000  Uiso   1.00
O55    O     0.25000   0.29071   0.23720   0.00000  Uiso   1.00
O56    O     0.25000   0.20929   0.09613   0.00000  Uiso   1.00
C57    C     0.66521   0.25007   0.16994   0.00000  Uiso   1.00
C58    C     0.77016   0.44663   0.20552   0.00000  Uiso   1.00
C59    C     0.74999   0.24998   0.07362   0.00000  Uiso   1.00
C60    C     0.75001   0.24998   0.25972   0.00000  Uiso   1.00
C61    C     0.75000   0.02740   0.16667   0.00000  Uiso   1.00
C62    C     0.75000   0.47308   0.16667   0.00000  Uiso   1.00
C63    C     0.75001   0.24995   0.02188   0.00000  Uiso   1.00
C64    C     0.74999   0.24995   0.31146   0.00000  Uiso   1.00
C65    C     0.54725   0.29092   0.15948   0.00000  Uiso   1.00
C66    C     0.95193   0.20777   0.15073   0.00000  Uiso   1.00
C67    C     0.95275   0.29092   0.17385   0.00000  Uiso   1.00
C68    C     0.83479   0.25007   0.16339   0.00000  Uiso   1.00
C69    C     0.54807   0.20777   0.18259   0.00000  Uiso   1.00
C70    C     0.59253   0.29301   0.16618   0.00000  Uiso   1.00
C71    C     0.90609   0.20797   0.14781   0.00000  Uiso   1.00
C72    C     0.90747   0.29300   0.16716   0.00000  Uiso   1.00
C73    C     0.59391   0.20797   0.18552   0.00000  Uiso   1.00
C74    C     0.61704   0.25036   0.17428   0.00000  Uiso   1.00
C75    C     0.88296   0.25036   0.15905   0.00000  Uiso   1.00
C76    C     0.52431   0.24874   0.16816   0.00000  Uiso   1.00
C77    C     0.97569   0.24874   0.16517   0.00000  Uiso   1.00
C78    C     0.77876   0.10407   0.19791   0.00000  Uiso   1.00
C79    C     0.72879   0.39640   0.12869   0.00000  Uiso   1.00
C80    C     0.72124   0.10407   0.13542   0.00000  Uiso   1.00
C81    C     0.77121   0.39640   0.20464   0.00000  Uiso   1.00
C82    C     0.77981   0.05387   0.19718   0.00000  Uiso   1.00
C83    C     0.72984   0.44663   0.12781   0.00000  Uiso   1.00
C84    C     0.72019   0.05387   0.13615   0.00000  Uiso   1.00
Cu85   Cu    0.75000   0.29822   0.16667   0.00000  Uiso   1.00
Cu86   Cu    0.75000   0.20179   0.16667   0.00000  Uiso   1.00
H87    H     0.53018   0.32341   0.14861   0.00000  Uiso   1.00
H88    H     0.96893   0.17563   0.14052   0.00000  Uiso   1.00
H89    H     0.96982   0.32341   0.18473   0.00000  Uiso   1.00
H90    H     0.53107   0.17562   0.19280   0.00000  Uiso   1.00
H91    H     0.80451   0.03623   0.22076   0.00000  Uiso   1.00
H92    H     0.71454   0.46446   0.09601   0.00000  Uiso   1.00
H93    H     0.69550   0.03623   0.11257   0.00000  Uiso   1.00
H94    H     0.78546   0.46446   0.23732   0.00000  Uiso   1.00
I95    I     0.82383   0.13572   0.25100   0.00000  Uiso   1.00
I96    I     0.69035   0.36753   0.06759   0.00000  Uiso   1.00
I97    I     0.67617   0.13572   0.08233   0.00000  Uiso   1.00
I98    I     0.80964   0.36753   0.26575   0.00000  Uiso   1.00
I99    I     0.61671   0.36437   0.17272   0.00000  Uiso   1.00
I100   I     0.87665   0.14418   0.11826   0.00000  Uiso   1.00
I101   I     0.88330   0.36437   0.16063   0.00000  Uiso   1.00
I102   I     0.62335   0.14418   0.21506   0.00000  Uiso   1.00
N103   N     0.75000   0.12935   0.16667   0.00000  Uiso   1.00
N104   N     0.75000   0.37066   0.16667   0.00000  Uiso   1.00
O105   O     0.68573   0.29072   0.16667   0.00000  Uiso   1.00
O106   O     0.81427   0.20929   0.16666   0.00000  Uiso   1.00
O107   O     0.81427   0.29072   0.16666   0.00000  Uiso   1.00
O108   O     0.68573   0.20929   0.16667   0.00000  Uiso   1.00
O109   O     0.75000   0.29071   0.09613   0.00000  Uiso   1.00
O110   O     0.75000   0.20929   0.23720   0.00000  Uiso   1.00
O111   O     0.75000   0.29071   0.23720   0.00000  Uiso   1.00
O112   O     0.75000   0.20929   0.09613   0.00000  Uiso   1.00
C113   C     0.16521   0.75007   0.16994   0.00000  Uiso   1.00
C114   C     0.27016   0.94663   0.20552   0.00000  Uiso   1.00
C115   C     0.24999   0.74998   0.07362   0.00000  Uiso   1.00
C116   C     0.25001   0.74998   0.25972   0.00000  Uiso   1.00
C117   C     0.25000   0.52740   0.16667   0.00000  Uiso   1.00
C118   C     0.25000   0.97308   0.16667   0.00000  Uiso   1.00
C119   C     0.25001   0.74995   0.02188   0.00000  Uiso   1.00
C120   C     0.24999   0.74995   0.31146   0.00000  Uiso   1.00
C121   C     0.04725   0.79092   0.15948   0.00000  Uiso   1.00
C122   C     0.45193   0.70777   0.15073   0.00000  Uiso   1.00
C123   C     0.45275   0.79092   0.17385   0.00000  Uiso   1.00
C124   C     0.33479   0.75007   0.16339   0.00000  Uiso   1.00
C125   C     0.04807   0.70777   0.18259   0.00000  Uiso   1.00
C126   C     0.09253   0.79301   0.16618   0.00000  Uiso   1.00
C127   C     0.40609   0.70797   0.14781   0.00000  Uiso   1.00
C128   C     0.40747   0.79300   0.16716   0.00000  Uiso   1.00
C129   C     0.09391   0.70797   0.18552   0.00000  Uiso   1.00
C130   C     0.11704   0.75036   0.17428   0.00000  Uiso   1.00
C131   C     0.38296   0.75036   0.15905   0.00000  Uiso   1.00
C132   C     0.02431   0.74874   0.16816   0.00000  Uiso   1.00
C133   C     0.47569   0.74874   0.16517   0.00000  Uiso   1.00
C134   C     0.27876   0.60407   0.19791   0.00000  Uiso   1.00
C135   C     0.22879   0.89640   0.12869   0.00000  Uiso   1.00
C136   C     0.22124   0.60407   0.13542   0.00000  Uiso   1.00
C137   C     0.27121   0.89640   0.20464   0.00000  Uiso   1.00
C138   C     0.27981   0.55387   0.19718   0.00000  Uiso   1.00
C139   C     0.22984   0.94663   0.12781   0.00000  Uiso   1.00
C140   C     0.22019   0.55387   0.13615   0.00000  Uiso   1.00
Cu141  Cu    0.25000   0.79822   0.16667   0.00000  Uiso   1.00
Cu142  Cu    0.25000   0.70179   0.16667   0.00000  Uiso   1.00
H143   H     0.03018   0.82341   0.14861   0.00000  Uiso   1.00
H144   H     0.46893   0.67563   0.14052   0.00000  Uiso   1.00
H145   H     0.46982   0.82341   0.18473   0.00000  Uiso   1.00
H146   H     0.03107   0.67562   0.19280   0.00000  Uiso   1.00
H147   H     0.30451   0.53623   0.22076   0.00000  Uiso   1.00
H148   H     0.21454   0.96446   0.09601   0.00000  Uiso   1.00
H149   H     0.19550   0.53623   0.11257   0.00000  Uiso   1.00
H150   H     0.28546   0.96446   0.23732   0.00000  Uiso   1.00
I151   I     0.32383   0.63572   0.25100   0.00000  Uiso   1.00
I152   I     0.19035   0.86753   0.06759   0.00000  Uiso   1.00
I153   I     0.17617   0.63572   0.08233   0.00000  Uiso   1.00
I154   I     0.30964   0.86753   0.26575   0.00000  Uiso   1.00
I155   I     0.11671   0.86437   0.17272   0.00000  Uiso   1.00
I156   I     0.37665   0.64418   0.11826   0.00000  Uiso   1.00
I157   I     0.38330   0.86437   0.16063   0.00000  Uiso   1.00
I158   I     0.12335   0.64418   0.21506   0.00000  Uiso   1.00
N159   N     0.25000   0.62935   0.16667   0.00000  Uiso   1.00
N160   N     0.25000   0.87066   0.16667   0.00000  Uiso   1.00
O161   O     0.18573   0.79072   0.16667   0.00000  Uiso   1.00
O162   O     0.31427   0.70929   0.16666   0.00000  Uiso   1.00
O163   O     0.31427   0.79072   0.16666   0.00000  Uiso   1.00
O164   O     0.18573   0.70929   0.16667   0.00000  Uiso   1.00
O165   O     0.25000   0.79071   0.09613   0.00000  Uiso   1.00
O166   O     0.25000   0.70929   0.23720   0.00000  Uiso   1.00
O167   O     0.25000   0.79071   0.23720   0.00000  Uiso   1.00
O168   O     0.25000   0.70929   0.09613   0.00000  Uiso   1.00
C169   C     0.66521   0.75007   0.16994   0.00000  Uiso   1.00
C170   C     0.77016   0.94663   0.20552   0.00000  Uiso   1.00
C171   C     0.74999   0.74998   0.07362   0.00000  Uiso   1.00
C172   C     0.75001   0.74998   0.25972   0.00000  Uiso   1.00
C173   C     0.75000   0.52740   0.16667   0.00000  Uiso   1.00
C174   C     0.75000   0.97308   0.16667   0.00000  Uiso   1.00
C175   C     0.75001   0.74995   0.02188   0.00000  Uiso   1.00
C176   C     0.74999   0.74995   0.31146   0.00000  Uiso   1.00
C177   C     0.54725   0.79092   0.15948   0.00000  Uiso   1.00
C178   C     0.95193   0.70777   0.15073   0.00000  Uiso   1.00
C179   C     0.95275   0.79092   0.17385   0.00000  Uiso   1.00
C180   C     0.83479   0.75007   0.16339   0.00000  Uiso   1.00
C181   C     0.54807   0.70777   0.18259   0.00000  Uiso   1.00
C182   C     0.59253   0.79301   0.16618   0.00000  Uiso   1.00
C183   C     0.90609   0.70797   0.14781   0.00000  Uiso   1.00
C184   C     0.90747   0.79300   0.16716   0.00000  Uiso   1.00
C185   C     0.59391   0.70797   0.18552   0.00000  Uiso   1.00
C186   C     0.61704   0.75036   0.17428   0.00000  Uiso   1.00
C187   C     0.88296   0.75036   0.15905   0.00000  Uiso   1.00
C188   C     0.52431   0.74874   0.16816   0.00000  Uiso   1.00
C189   C     0.97569   0.74874   0.16517   0.00000  Uiso   1.00
C190   C     0.77876   0.60407   0.19791   0.00000  Uiso   1.00
C191   C     0.72879   0.89640   0.12869   0.00000  Uiso   1.00
C192   C     0.72124   0.60407   0.13542   0.00000  Uiso   1.00
C193   C     0.77121   0.89640   0.20464   0.00000  Uiso   1.00
C194   C     0.77981   0.55387   0.19718   0.00000  Uiso   1.00
C195   C     0.72984   0.94663   0.12781   0.00000  Uiso   1.00
C196   C     0.72019   0.55387   0.13615   0.00000  Uiso   1.00
Cu197  Cu    0.75000   0.79822   0.16667   0.00000  Uiso   1.00
Cu198  Cu    0.75000   0.70179   0.16667   0.00000  Uiso   1.00
H199   H     0.53018   0.82341   0.14861   0.00000  Uiso   1.00
H200   H     0.96893   0.67563   0.14052   0.00000  Uiso   1.00
H201   H     0.96982   0.82341   0.18473   0.00000  Uiso   1.00
H202   H     0.53107   0.67562   0.19280   0.00000  Uiso   1.00
H203   H     0.80451   0.53623   0.22076   0.00000  Uiso   1.00
H204   H     0.71454   0.96446   0.09601   0.00000  Uiso   1.00
H205   H     0.69550   0.53623   0.11257   0.00000  Uiso   1.00
H206   H     0.78546   0.96446   0.23732   0.00000  Uiso   1.00
I207   I     0.82383   0.63572   0.25100   0.00000  Uiso   1.00
I208   I     0.69035   0.86753   0.06759   0.00000  Uiso   1.00
I209   I     0.67617   0.63572   0.08233   0.00000  Uiso   1.00
I210   I     0.80964   0.86753   0.26575   0.00000  Uiso   1.00
I211   I     0.61671   0.86437   0.17272   0.00000  Uiso   1.00
I212   I     0.87665   0.64418   0.11826   0.00000  Uiso   1.00
I213   I     0.88330   0.86437   0.16063   0.00000  Uiso   1.00
I214   I     0.62335   0.64418   0.21506   0.00000  Uiso   1.00
N215   N     0.75000   0.62935   0.16667   0.00000  Uiso   1.00
N216   N     0.75000   0.87066   0.16667   0.00000  Uiso   1.00
O217   O     0.68573   0.79072   0.16667   0.00000  Uiso   1.00
O218   O     0.81427   0.70929   0.16666   0.00000  Uiso   1.00
O219   O     0.81427   0.79072   0.16666   0.00000  Uiso   1.00
O220   O     0.68573   0.70929   0.16667   0.00000  Uiso   1.00
O221   O     0.75000   0.79071   0.09613   0.00000  Uiso   1.00
O222   O     0.75000   0.70929   0.23720   0.00000  Uiso   1.00
O223   O     0.75000   0.79071   0.23720   0.00000  Uiso   1.00
O224   O     0.75000   0.70929   0.09613   0.00000  Uiso   1.00
C225   C     0.16521   0.25007   0.50327   0.00000  Uiso   1.00
C226   C     0.27016   0.44663   0.53886   0.00000  Uiso   1.00
C227   C     0.24999   0.24998   0.40695   0.00000  Uiso   1.00
C228   C     0.25001   0.24998   0.59305   0.00000  Uiso   1.00
C229   C     0.25000   0.02740   0.50000   0.00000  Uiso   1.00
C230   C     0.25000   0.47308   0.50000   0.00000  Uiso   1.00
C231   C     0.25001   0.24995   0.35521   0.00000  Uiso   1.00
C232   C     0.24999   0.24995   0.64479   0.00000  Uiso   1.00
C233   C     0.04725   0.29092   0.49282   0.00000  Uiso   1.00
C234   C     0.45193   0.20777   0.48407   0.00000  Uiso   1.00
C235   C     0.45275   0.29092   0.50719   0.00000  Uiso   1.00
C236   C     0.33479   0.25007   0.49673   0.00000  Uiso   1.00
C237   C     0.04807   0.20777   0.51592   0.00000  Uiso   1.00
C238   C     0.09253   0.29301   0.49952   0.00000  Uiso   1.00
C239   C     0.40609   0.20797   0.48114   0.00000  Uiso   1.00
C240   C     0.40747   0.29300   0.50049   0.00000  Uiso   1.00
C241   C     0.09391   0.20797   0.51886   0.00000  Uiso   1.00
C242   C     0.11704   0.25036   0.50761   0.00000  Uiso   1.00
C243   C     0.38296   0.25036   0.49239   0.00000  Uiso   1.00
C244   C     0.02431   0.24874   0.50149   0.00000  Uiso   1.00
C245   C     0.47569   0.24874   0.49851   0.00000  Uiso   1.00
C246   C     0.27876   0.10407   0.53124   0.00000  Uiso   1.00
C247   C     0.22879   0.39640   0.46203   0.00000  Uiso   1.00
C248   C     0.22124   0.10407   0.46876   0.00000  Uiso   1.00
C249   C     0.27121   0.39640   0.53797   0.00000  Uiso   1.00
C250   C     0.27981   0.05387   0.53051   0.00000  Uiso   1.00
C251   C     0.22984   0.44663   0.46114   0.00000  Uiso   1.00
C252   C     0.22019   0.05387   0.46949   0.00000  Uiso   1.00
Cu253  Cu    0.25000   0.29822   0.50000   0.00000  Uiso   1.00
Cu254  Cu    0.25000   0.20179   0.50000   0.00000  Uiso   1.00
H255   H     0.03018   0.32341   0.48194   0.00000  Uiso   1.00
H256   H     0.46893   0.17563   0.47386   0.00000  Uiso   1.00
H257   H     0.46982   0.32341   0.51807   0.00000  Uiso   1.00
H258   H     0.03107   0.17562   0.52613   0.00000  Uiso   1.00
H259   H     0.30451   0.03623   0.55410   0.00000  Uiso   1.00
H260   H     0.21454   0.46446   0.42934   0.00000  Uiso   1.00
H261   H     0.19550   0.03623   0.44590   0.00000  Uiso   1.00
H262   H     0.28546   0.46446   0.57066   0.00000  Uiso   1.00
I263   I     0.32383   0.13572   0.58433   0.00000  Uiso   1.00
I264   I     0.19035   0.36753   0.40092   0.00000  Uiso   1.00
I265   I     0.17617   0.13572   0.41567   0.00000  Uiso   1.00
I266   I     0.30964   0.36753   0.59908   0.00000  Uiso   1.00
I267   I     0.11671   0.36437   0.50606   0.00000  Uiso   1.00
I268   I     0.37665   0.14418   0.45159   0.00000  Uiso   1.00
I269   I     0.38330   0.36437   0.49397   0.00000  Uiso   1.00
I270   I     0.12335   0.14418   0.54839   0.00000  Uiso   1.00
N271   N     0.25000   0.12935   0.50000   0.00000  Uiso   1.00
N272   N     0.25000   0.37066   0.50000   0.00000  Uiso   1.00
O273   O     0.18573   0.29072   0.50000   0.00000  Uiso   1.00
O274   O     0.31427   0.20929   0.50000   0.00000  Uiso   1.00
O275   O     0.31427   0.29072   0.50000   0.00000  Uiso   1.00
O276   O     0.18573   0.20929   0.50000   0.00000  Uiso   1.00
O277   O     0.25000   0.29071   0.42946   0.00000  Uiso   1.00
O278   O     0.25000   0.20929   0.57054   0.00000  Uiso   1.00
O279   O     0.25000   0.29071   0.57054   0.00000  Uiso   1.00
O280   O     0.25000   0.20929   0.42946   0.00000  Uiso   1.00
C281   C     0.66521   0.25007   0.50327   0.00000  Uiso   1.00
C282   C     0.77016   0.44663   0.53886   0.00000  Uiso   1.00
C283   C     0.74999   0.24998   0.40695   0.00000  Uiso   1.00
C284   C     0.75001   0.24998   0.59305   0.00000  Uiso   1.00
C285   C     0.75000   0.02740   0.50000   0.00000  Uiso   1.00
C286   C     0.75000   0.47308   0.50000   0.00000  Uiso   1.00
C287   C     0.75001   0.24995   0.35521   0.00000  Uiso   1.00
C288   C     0.74999   0.24995   0.64479   0.00000  Uiso   1.00
C289   C     0.54725   0.29092   0.49282   0.00000  Uiso   1.00
C290   C     0.95193   0.20777   0.48407   0.00000  Uiso   1.00
C291   C     0.95275   0.29092   0.50719   0.00000  Uiso   1.00
C292   C     0.83479   0.25007   0.49673   0.00000  Uiso   1.00
C293   C     0.54807   0.20777   0.51592   0.00000  Uiso   1.00
C294   C     0.59253   0.29301   0.49952   0.00000  Uiso   1.00
C295   C     0.90609   0.20797   0.48114   0.00000  Uiso   1.00
C296   C     0.90747   0.29300   0.50049   0.00000  Uiso   1.00
C297   C     0.59391   0.20797   0.51886   0.00000  Uiso   1.00
C298   C     0.61704   0.25036   0.50761   0.00000  Uiso   1.00
C299   C     0.88296   0.25036   0.49239   0.00000  Uiso   1.00
C300   C     0.52431   0.24874   0.50149   0.00000  Uiso   1.00
C301   C     0.97569   0.24874   0.49851   0.00000  Uiso   1.00
C302   C     0.77876   0.10407   0.53124   0.00000  Uiso   1.00
C303   C     0.72879   0.39640   0.46203   0.00000  Uiso   1.00
C304   C     0.72124   0.10407   0.46876   0.00000  Uiso   1.00
C305   C     0.77121   0.39640   0.53797   0.00000  Uiso   1.00
C306   C     0.77981   0.05387   0.53051   0.00000  Uiso   1.00
C307   C     0.72984   0.44663   0.46114   0.00000  Uiso   1.00
C308   C     0.72019   0.05387   0.46949   0.00000  Uiso   1.00
Cu309  Cu    0.75000   0.29822   0.50000   0.00000  Uiso   1.00
Cu310  Cu    0.75000   0.20179   0.50000   0.00000  Uiso   1.00
H311   H     0.53018   0.32341   0.48194   0.00000  Uiso   1.00
H312   H     0.96893   0.17563   0.47386   0.00000  Uiso   1.00
H313   H     0.96982   0.32341   0.51807   0.00000  Uiso   1.00
H314   H     0.53107   0.17562   0.52613   0.00000  Uiso   1.00
H315   H     0.80451   0.03623   0.55410   0.00000  Uiso   1.00
H316   H     0.71454   0.46446   0.42934   0.00000  Uiso   1.00
H317   H     0.69550   0.03623   0.44590   0.00000  Uiso   1.00
H318   H     0.78546   0.46446   0.57066   0.00000  Uiso   1.00
I319   I     0.82383   0.13572   0.58433   0.00000  Uiso   1.00
I320   I     0.69035   0.36753   0.40092   0.00000  Uiso   1.00
I321   I     0.67617   0.13572   0.41567   0.00000  Uiso   1.00
I322   I     0.80964   0.36753   0.59908   0.00000  Uiso   1.00
I323   I     0.61671   0.36437   0.50606   0.00000  Uiso   1.00
I324   I     0.87665   0.14418   0.45159   0.00000  Uiso   1.00
I325   I     0.88330   0.36437   0.49397   0.00000  Uiso   1.00
I326   I     0.62335   0.14418   0.54839   0.00000  Uiso   1.00
N327   N     0.75000   0.12935   0.50000   0.00000  Uiso   1.00
N328   N     0.75000   0.37066   0.50000   0.00000  Uiso   1.00
O329   O     0.68573   0.29072   0.50000   0.00000  Uiso   1.00
O330   O     0.81427   0.20929   0.50000   0.00000  Uiso   1.00
O331   O     0.81427   0.29072   0.50000   0.00000  Uiso   1.00
O332   O     0.68573   0.20929   0.50000   0.00000  Uiso   1.00
O333   O     0.75000   0.29071   0.42946   0.00000  Uiso   1.00
O334   O     0.75000   0.20929   0.57054   0.00000  Uiso   1.00
O335   O     0.75000   0.29071   0.57054   0.00000  Uiso   1.00
O336   O     0.75000   0.20929   0.42946   0.00000  Uiso   1.00
C337   C     0.16521   0.75007   0.50327   0.00000  Uiso   1.00
C338   C     0.27016   0.94663   0.53886   0.00000  Uiso   1.00
C339   C     0.24999   0.74998   0.40695   0.00000  Uiso   1.00
C340   C     0.25001   0.74998   0.59305   0.00000  Uiso   1.00
C341   C     0.25000   0.52740   0.50000   0.00000  Uiso   1.00
C342   C     0.25000   0.97308   0.50000   0.00000  Uiso   1.00
C343   C     0.25001   0.74995   0.35521   0.00000  Uiso   1.00
C344   C     0.24999   0.74995   0.64479   0.00000  Uiso   1.00
C345   C     0.04725   0.79092   0.49282   0.00000  Uiso   1.00
C346   C     0.45193   0.70777   0.48407   0.00000  Uiso   1.00
C347   C     0.45275   0.79092   0.50719   0.00000  Uiso   1.00
C348   C     0.33479   0.75007   0.49673   0.00000  Uiso   1.00
C349   C     0.04807   0.70777   0.51592   0.00000  Uiso   1.00
C350   C     0.09253   0.79301   0.49952   0.00000  Uiso   1.00
C351   C     0.40609   0.70797   0.48114   0.00000  Uiso   1.00
C352   C     0.40747   0.79300   0.50049   0.00000  Uiso   1.00
C353   C     0.09391   0.70797   0.51886   0.00000  Uiso   1.00
C354   C     0.11704   0.75036   0.50761   0.00000  Uiso   1.00
C355   C     0.38296   0.75036   0.49239   0.00000  Uiso   1.00
C356   C     0.02431   0.74874   0.50149   0.00000  Uiso   1.00
C357   C     0.47569   0.74874   0.49851   0.00000  Uiso   1.00
C358   C     0.27876   0.60407   0.53124   0.00000  Uiso   1.00
C359   C     0.22879   0.89640   0.46203   0.00000  Uiso   1.00
C360   C     0.22124   0.60407   0.46876   0.00000  Uiso   1.00
C361   C     0.27121   0.89640   0.53797   0.00000  Uiso   1.00
C362   C     0.27981   0.55387   0.53051   0.00000  Uiso   1.00
C363   C     0.22984   0.94663   0.46114   0.00000  Uiso   1.00
C364   C     0.22019   0.55387   0.46949   0.00000  Uiso   1.00
Cu365  Cu    0.25000   0.79822   0.50000   0.00000  Uiso   1.00
Cu366  Cu    0.25000   0.70179   0.50000   0.00000  Uiso   1.00
H367   H     0.03018   0.82341   0.48194   0.00000  Uiso   1.00
H368   H     0.46893   0.67563   0.47386   0.00000  Uiso   1.00
H369   H     0.46982   0.82341   0.51807   0.00000  Uiso   1.00
H370   H     0.03107   0.67562   0.52613   0.00000  Uiso   1.00
H371   H     0.30451   0.53623   0.55410   0.00000  Uiso   1.00
H372   H     0.21454   0.96446   0.42934   0.00000  Uiso   1.00
H373   H     0.19550   0.53623   0.44590   0.00000  Uiso   1.00
H374   H     0.28546   0.96446   0.57066   0.00000  Uiso   1.00
I375   I     0.32383   0.63572   0.58433   0.00000  Uiso   1.00
I376   I     0.19035   0.86753   0.40092   0.00000  Uiso   1.00
I377   I     0.17617   0.63572   0.41567   0.00000  Uiso   1.00
I378   I     0.30964   0.86753   0.59908   0.00000  Uiso   1.00
I379   I     0.11671   0.86437   0.50606   0.00000  Uiso   1.00
I380   I     0.37665   0.64418   0.45159   0.00000  Uiso   1.00
I381   I     0.38330   0.86437   0.49397   0.00000  Uiso   1.00
I382   I     0.12335   0.64418   0.54839   0.00000  Uiso   1.00
N383   N     0.25000   0.62935   0.50000   0.00000  Uiso   1.00
N384   N     0.25000   0.87066   0.50000   0.00000  Uiso   1.00
O385   O     0.18573   0.79072   0.50000   0.00000  Uiso   1.00
O386   O     0.31427   0.70929   0.50000   0.00000  Uiso   1.00
O387   O     0.31427   0.79072   0.50000   0.00000  Uiso   1.00
O388   O     0.18573   0.70929   0.50000   0.00000  Uiso   1.00
O389   O     0.25000   0.79071   0.42946   0.00000  Uiso   1.00
O390   O     0.25000   0.70929   0.57054   0.00000  Uiso   1.00
O391   O     0.25000   0.79071   0.57054   0.00000  Uiso   1.00
O392   O     0.25000   0.70929   0.42946   0.00000  Uiso   1.00
C393   C     0.66521   0.75007   0.50327   0.00000  Uiso   1.00
C394   C     0.77016   0.94663   0.53886   0.00000  Uiso   1.00
C395   C     0.74999   0.74998   0.40695   0.00000  Uiso   1.00
C396   C     0.75001   0.74998   0.59305   0.00000  Uiso   1.00
C397   C     0.75000   0.52740   0.50000   0.00000  Uiso   1.00
C398   C     0.75000   0.97308   0.50000   0.00000  Uiso   1.00
C399   C     0.75001   0.74995   0.35521   0.00000  Uiso   1.00
C400   C     0.74999   0.74995   0.64479   0.00000  Uiso   1.00
C401   C     0.54725   0.79092   0.49282   0.00000  Uiso   1.00
C402   C     0.95193   0.70777   0.48407   0.00000  Uiso   1.00
C403   C     0.95275   0.79092   0.50719   0.00000  Uiso   1.00
C404   C     0.83479   0.75007   0.49673   0.00000  Uiso   1.00
C405   C     0.54807   0.70777   0.51592   0.00000  Uiso   1.00
C406   C     0.59253   0.79301   0.49952   0.00000  Uiso   1.00
C407   C     0.90609   0.70797   0.48114   0.00000  Uiso   1.00
C408   C     0.90747   0.79300   0.50049   0.00000  Uiso   1.00
C409   C     0.59391   0.70797   0.51886   0.00000  Uiso   1.00
C410   C     0.61704   0.75036   0.50761   0.00000  Uiso   1.00
C411   C     0.88296   0.75036   0.49239   0.00000  Uiso   1.00
C412   C     0.52431   0.74874   0.50149   0.00000  Uiso   1.00
C413   C     0.97569   0.74874   0.49851   0.00000  Uiso   1.00
C414   C     0.77876   0.60407   0.53124   0.00000  Uiso   1.00
C415   C     0.72879   0.89640   0.46203   0.00000  Uiso   1.00
C416   C     0.72124   0.60407   0.46876   0.00000  Uiso   1.00
C417   C     0.77121   0.89640   0.53797   0.00000  Uiso   1.00
C418   C     0.77981   0.55387   0.53051   0.00000  Uiso   1.00
C419   C     0.72984   0.94663   0.46114   0.00000  Uiso   1.00
C420   C     0.72019   0.55387   0.46949   0.00000  Uiso   1.00
Cu421  Cu    0.75000   0.79822   0.50000   0.00000  Uiso   1.00
Cu422  Cu    0.75000   0.70179   0.50000   0.00000  Uiso   1.00
H423   H     0.53018   0.82341   0.48194   0.00000  Uiso   1.00
H424   H     0.96893   0.67563   0.47386   0.00000  Uiso   1.00
H425   H     0.96982   0.82341   0.51807   0.00000  Uiso   1.00
H426   H     0.53107   0.67562   0.52613   0.00000  Uiso   1.00
H427   H     0.80451   0.53623   0.55410   0.00000  Uiso   1.00
H428   H     0.71454   0.96446   0.42934   0.00000  Uiso   1.00
H429   H     0.69550   0.53623   0.44590   0.00000  Uiso   1.00
H430   H     0.78546   0.96446   0.57066   0.00000  Uiso   1.00
I431   I     0.82383   0.63572   0.58433   0.00000  Uiso   1.00
I432   I     0.69035   0.86753   0.40092   0.00000  Uiso   1.00
I433   I     0.67617   0.63572   0.41567   0.00000  Uiso   1.00
I434   I     0.80964   0.86753   0.59908   0.00000  Uiso   1.00
I435   I     0.61671   0.86437   0.50606   0.00000  Uiso   1.00
I436   I     0.87665   0.64418   0.45159   0.00000  Uiso   1.00
I437   I     0.88330   0.86437   0.49397   0.00000  Uiso   1.00
I438   I     0.62335   0.64418   0.54839   0.00000  Uiso   1.00
N439   N     0.75000   0.62935   0.50000   0.00000  Uiso   1.00
N440   N     0.75000   0.87066   0.50000   0.00000  Uiso   1.00
O441   O     0.68573   0.79072   0.50000   0.00000  Uiso   1.00
O442   O     0.81427   0.70929   0.50000   0.00000  Uiso   1.00
O443   O     0.81427   0.79072   0.50000   0.00000  Uiso   1.00
O444   O     0.68573   0.70929   0.50000   0.00000  Uiso   1.00
O445   O     0.75000   0.79071   0.42946   0.00000  Uiso   1.00
O446   O     0.75000   0.70929   0.57054   0.00000  Uiso   1.00
O447   O     0.75000   0.79071   0.57054   0.00000  Uiso   1.00
O448   O     0.75000   0.70929   0.42946   0.00000  Uiso   1.00
C449   C     0.16521   0.25007   0.83661   0.00000  Uiso   1.00
C450   C     0.27016   0.44663   0.87219   0.00000  Uiso   1.00
C451   C     0.24999   0.24998   0.74028   0.00000  Uiso   1.00
C452   C     0.25001   0.24998   0.92638   0.00000  Uiso   1.00
C453   C     0.25000   0.02740   0.83333   0.00000  Uiso   1.00
C454   C     0.25000   0.47308   0.83333   0.00000  Uiso   1.00
C455   C     0.25001   0.24995   0.68854   0.00000  Uiso   1.00
C456   C     0.24999   0.24995   0.97812   0.00000  Uiso   1.00
C457   C     0.04725   0.29092   0.82615   0.00000  Uiso   1.00
C458   C     0.45193   0.20777   0.81740   0.00000  Uiso   1.00
C459   C     0.45275   0.29092   0.84052   0.00000  Uiso   1.00
C460   C     0.33479   0.25007   0.83006   0.00000  Uiso   1.00
C461   C     0.04807   0.20777   0.84926   0.00000  Uiso   1.00
C462   C     0.09253   0.29301   0.83285   0.00000  Uiso   1.00
C463   C     0.40609   0.20797   0.81447   0.00000  Uiso   1.00
C464   C     0.40747   0.29300   0.83382   0.00000  Uiso   1.00
C465   C     0.09391   0.20797   0.85219   0.00000  Uiso   1.00
C466   C     0.11704   0.25036   0.84095   0.00000  Uiso   1.00
C467   C     0.38296   0.25036   0.82572   0.00000  Uiso   1.00
C468   C     0.02431   0.24874   0.83482   0.00000  Uiso   1.00
C469   C     0.47569   0.24874   0.83184   0.00000  Uiso   1.00
C470   C     0.27876   0.10407   0.86458   0.00000  Uiso   1.00
C471   C     0.22879   0.39640   0.79536   0.00000  Uiso   1.00
C472   C     0.22124   0.10407   0.80209   0.00000  Uiso   1.00
C473   C     0.27121   0.39640   0.87131   0.00000  Uiso   1.00
C474   C     0.27981   0.05387   0.86385   0.00000  Uiso   1.00
C475   C     0.22984   0.44663   0.79447   0.00000  Uiso   1.00
C476   C     0.22019   0.05387   0.80282   0.00000  Uiso   1.00
Cu477  Cu    0.25000   0.29822   0.83333   0.00000  Uiso   1.00
Cu478  Cu    0.25000   0.20179   0.83333   0.00000  Uiso   1.00
H479   H     0.03018   0.32341   0.81528   0.00000  Uiso   1.00
H480   H     0.46893   0.17563   0.80719   0.00000  Uiso   1.00
H481   H     0.46982   0.32341   0.85140   0.00000  Uiso   1.00
H482   H     0.03107   0.17562   0.85946   0.00000  Uiso   1.00
H483   H     0.30451   0.03623   0.88743   0.00000  Uiso   1.00
H484   H     0.21454   0.46446   0.76267   0.00000  Uiso   1.00
H485   H     0.19550   0.03623   0.77923   0.00000  Uiso   1.00
H486   H     0.28546   0.46446   0.90399   0.00000  Uiso   1.00
I487   I     0.32383   0.13572   0.91767   0.00000  Uiso   1.00
I488   I     0.19035   0.36753   0.73426   0.00000  Uiso   1.00
I489   I     0.17617   0.13572   0.74900   0.00000  Uiso   1.00
I490   I     0.30964   0.36753   0.93242   0.00000  Uiso   1.00
I491   I     0.11671   0.36437   0.83939   0.00000  Uiso   1.00
I492   I     0.37665   0.14418   0.78493   0.00000  Uiso   1.00
I493   I     0.38330   0.36437   0.82730   0.00000  Uiso   1.00
I494   I     0.12335   0.14418   0.88173   0.00000  Uiso   1.00
N495   N     0.25000   0.12935   0.83333   0.00000  Uiso   1.00
N496   N     0.25000   0.37066   0.83333   0.00000  Uiso   1.00
O497   O     0.18573   0.29072   0.83334   0.00000  Uiso   1.00
O498   O     0.31427   0.20929   0.83333   0.00000  Uiso   1.00
O499   O     0.31427   0.29072   0.83333   0.00000  Uiso   1.00
O500   O     0.18573   0.20929   0.83334   0.00000  Uiso   1.00
O501   O     0.25000   0.29071   0.76280   0.00000  Uiso   1.00
O502   O     0.25000   0.20929   0.90387   0.00000  Uiso   1.00
O503   O     0.25000   0.29071   0.90387   0.00000  Uiso   1.00
O504   O     0.25000   0.20929   0.76280   0.00000  Uiso   1.00
C505   C     0.66521   0.25007   0.83661   0.00000  Uiso   1.00
C506   C     0.77016   0.44663   0.87219   0.00000  Uiso   1.00
C507   C     0.74999   0.24998   0.74028   0.00000  Uiso   1.00
C508   C     0.75001   0.24998   0.92638   0.00000  Uiso   1.00
C509   C     0.75000   0.02740   0.83333   0.00000  Uiso   1.00
C510   C     0.75000   0.47308   0.83333   0.00000  Uiso   1.00
C511   C     0.75001   0.24995   0.68854   0.00000  Uiso   1.00
C512   C     0.74999   0.24995   0.97812   0.00000  Uiso   1.00
C513   C     0.54725   0.29092   0.82615   0.00000  Uiso   1.00
C514   C     0.95193   0.20777   0.81740   0.00000  Uiso   1.00
C515   C     0.95275   0.29092   0.84052   0.00000  Uiso   1.00
C516   C     0.83479   0.25007   0.83006   0.00000  Uiso   1.00
C517   C     0.54807   0.20777   0.84926   0.00000  Uiso   1.00
C518   C     0.59253   0.29301   0.83285   0.00000  Uiso   1.00
C519   C     0.90609   0.20797   0.81447   0.00000  Uiso   1.00
C520   C     0.90747   0.29300   0.83382   0.00000  Uiso   1.00
C521   C     0.59391   0.20797   0.85219   0.00000  Uiso   1.00
C522   C     0.61704   0.25036   0.84095   0.00000  Uiso   1.00
C523   C     0.88296   0.25036   0.82572   0.00000  Uiso   1.00
C524   C     0.52431   0.24874   0.83482   0.00000  Uiso   1.00
C525   C     0.97569   0.24874   0.83184   0.00000  Uiso   1.00
C526   C     0.77876   0.10407   0.86458   0.00000  Uiso   1.00
C527   C     0.72879   0.39640   0.79536   0.00000  Uiso   1.00
C528   C     0.72124   0.10407   0.80209   0.00000  Uiso   1.00
C529   C     0.77121   0.39640   0.87131   0.00000  Uiso   1.00
C530   C     0.77981   0.05387   0.86385   0.00000  Uiso   1.00
C531   C     0.72984   0.44663   0.79447   0.00000  Uiso   1.00
C532   C     0.72019   0.05387   0.80282   0.00000  Uiso   1.00
Cu533  Cu    0.75000   0.29822   0.83333   0.00000  Uiso   1.00
Cu534  Cu    0.75000   0.20179   0.83333   0.00000  Uiso   1.00
H535   H     0.53018   0.32341   0.81528   0.00000  Uiso   1.00
H536   H     0.96893   0.17563   0.80719   0.00000  Uiso   1.00
H537   H     0.96982   0.32341   0.85140   0.00000  Uiso   1.00
H538   H     0.53107   0.17562   0.85946   0.00000  Uiso   1.00
H539   H     0.80451   0.03623   0.88743   0.00000  Uiso   1.00
H540   H     0.71454   0.46446   0.76267   0.00000  Uiso   1.00
H541   H     0.69550   0.03623   0.77923   0.00000  Uiso   1.00
H542   H     0.78546   0.46446   0.90399   0.00000  Uiso   1.00
I543   I     0.82383   0.13572   0.91767   0.00000  Uiso   1.00
I544   I     0.69035   0.36753   0.73426   0.00000  Uiso   1.00
I545   I     0.67617   0.13572   0.74900   0.00000  Uiso   1.00
I546   I     0.80964   0.36753   0.93242   0.00000  Uiso   1.00
I547   I     0.61671   0.36437   0.83939   0.00000  Uiso   1.00
I548   I     0.87665   0.14418   0.78493   0.00000  Uiso   1.00
I549   I     0.88330   0.36437   0.82730   0.00000  Uiso   1.00
I550   I     0.62335   0.14418   0.88173   0.00000  Uiso   1.00
N551   N     0.75000   0.12935   0.83333   0.00000  Uiso   1.00
N552   N     0.75000   0.37066   0.83333   0.00000  Uiso   1.00
O553   O     0.68573   0.29072   0.83334   0.00000  Uiso   1.00
O554   O     0.81427   0.20929   0.83333   0.00000  Uiso   1.00
O555   O     0.81427   0.29072   0.83333   0.00000  Uiso   1.00
O556   O     0.68573   0.20929   0.83334   0.00000  Uiso   1.00
O557   O     0.75000   0.29071   0.76280   0.00000  Uiso   1.00
O558   O     0.75000   0.20929   0.90387   0.00000  Uiso   1.00
O559   O     0.75000   0.29071   0.90387   0.00000  Uiso   1.00
O560   O     0.75000   0.20929   0.76280   0.00000  Uiso   1.00
C561   C     0.16521   0.75007   0.83661   0.00000  Uiso   1.00
C562   C     0.27016   0.94663   0.87219   0.00000  Uiso   1.00
C563   C     0.24999   0.74998   0.74028   0.00000  Uiso   1.00
C564   C     0.25001   0.74998   0.92638   0.00000  Uiso   1.00
C565   C     0.25000   0.52740   0.83333   0.00000  Uiso   1.00
C566   C     0.25000   0.97308   0.83333   0.00000  Uiso   1.00
C567   C     0.25001   0.74995   0.68854   0.00000  Uiso   1.00
C568   C     0.24999   0.74995   0.97812   0.00000  Uiso   1.00
C569   C     0.04725   0.79092   0.82615   0.00000  Uiso   1.00
C570   C     0.45193   0.70777   0.81740   0.00000  Uiso   1.00
C571   C     0.45275   0.79092   0.84052   0.00000  Uiso   1.00
C572   C     0.33479   0.75007   0.83006   0.00000  Uiso   1.00
C573   C     0.04807   0.70777   0.84926   0.00000  Uiso   1.00
C574   C     0.09253   0.79301   0.83285   0.00000  Uiso   1.00
C575   C     0.40609   0.70797   0.81447   0.00000  Uiso   1.00
C576   C     0.40747   0.79300   0.83382   0.00000  Uiso   1.00
C577   C     0.09391   0.70797   0.85219   0.00000  Uiso   1.00
C578   C     0.11704   0.75036   0.84095   0.00000  Uiso   1.00
C579   C     0.38296   0.75036   0.82572   0.00000  Uiso   1.00
C580   C     0.02431   0.74874   0.83482   0.00000  Uiso   1.00
C581   C     0.47569   0.74874   0.83184   0.00000  Uiso   1.00
C582   C     0.27876   0.60407   0.86458   0.00000  Uiso   1.00
C583   C     0.22879   0.89640   0.79536   0.00000  Uiso   1.00
C584   C     0.22124   0.60407   0.80209   0.00000  Uiso   1.00
C585   C     0.27121   0.89640   0.87131   0.00000  Uiso   1.00
C586   C     0.27981   0.55387   0.86385   0.00000  Uiso   1.00
C587   C     0.22984   0.94663   0.79447   0.00000  Uiso   1.00
C588   C     0.22019   0.55387   0.80282   0.00000  Uiso   1.00
Cu589  Cu    0.25000   0.79822   0.83333   0.00000  Uiso   1.00
Cu590  Cu    0.25000   0.70179   0.83333   0.00000  Uiso   1.00
H591   H     0.03018   0.82341   0.81528   0.00000  Uiso   1.00
H592   H     0.46893   0.67563   0.80719   0.00000  Uiso   1.00
H593   H     0.46982   0.82341   0.85140   0.00000  Uiso   1.00
H594   H     0.03107   0.67562   0.85946   0.00000  Uiso   1.00
H595   H     0.30451   0.53623   0.88743   0.00000  Uiso   1.00
H596   H     0.21454   0.96446   0.76267   0.00000  Uiso   1.00
H597   H     0.19550   0.53623   0.77923   0.00000  Uiso   1.00
H598   H     0.28546   0.96446   0.90399   0.00000  Uiso   1.00
I599   I     0.32383   0.63572   0.91767   0.00000  Uiso   1.00
I600   I     0.19035   0.86753   0.73426   0.00000  Uiso   1.00
I601   I     0.17617   0.63572   0.74900   0.00000  Uiso   1.00
I602   I     0.30964   0.86753   0.93242   0.00000  Uiso   1.00
I603   I     0.11671   0.86437   0.83939   0.00000  Uiso   1.00
I604   I     0.37665   0.64418   0.78493   0.00000  Uiso   1.00
I605   I     0.38330   0.86437   0.82730   0.00000  Uiso   1.00
I606   I     0.12335   0.64418   0.88173   0.00000  Uiso   1.00
N607   N     0.25000   0.62935   0.83333   0.00000  Uiso   1.00
N608   N     0.25000   0.87066   0.83333   0.00000  Uiso   1.00
O609   O     0.18573   0.79072   0.83334   0.00000  Uiso   1.00
O610   O     0.31427   0.70929   0.83333   0.00000  Uiso   1.00
O611   O     0.31427   0.79072   0.83333   0.00000  Uiso   1.00
O612   O     0.18573   0.70929   0.83334   0.00000  Uiso   1.00
O613   O     0.25000   0.79071   0.76280   0.00000  Uiso   1.00
O614   O     0.25000   0.70929   0.90387   0.00000  Uiso   1.00
O615   O     0.25000   0.79071   0.90387   0.00000  Uiso   1.00
O616   O     0.25000   0.70929   0.76280   0.00000  Uiso   1.00
C617   C     0.66521   0.75007   0.83661   0.00000  Uiso   1.00
C618   C     0.77016   0.94663   0.87219   0.00000  Uiso   1.00
C619   C     0.74999   0.74998   0.74028   0.00000  Uiso   1.00
C620   C     0.75001   0.74998   0.92638   0.00000  Uiso   1.00
C621   C     0.75000   0.52740   0.83333   0.00000  Uiso   1.00
C622   C     0.75000   0.97308   0.83333   0.00000  Uiso   1.00
C623   C     0.75001   0.74995   0.68854   0.00000  Uiso   1.00
C624   C     0.74999   0.74995   0.97812   0.00000  Uiso   1.00
C625   C     0.54725   0.79092   0.82615   0.00000  Uiso   1.00
C626   C     0.95193   0.70777   0.81740   0.00000  Uiso   1.00
C627   C     0.95275   0.79092   0.84052   0.00000  Uiso   1.00
C628   C     0.83479   0.75007   0.83006   0.00000  Uiso   1.00
C629   C     0.54807   0.70777   0.84926   0.00000  Uiso   1.00
C630   C     0.59253   0.79301   0.83285   0.00000  Uiso   1.00
C631   C     0.90609   0.70797   0.81447   0.00000  Uiso   1.00
C632   C     0.90747   0.79300   0.83382   0.00000  Uiso   1.00
C633   C     0.59391   0.70797   0.85219   0.00000  Uiso   1.00
C634   C     0.61704   0.75036   0.84095   0.00000  Uiso   1.00
C635   C     0.88296   0.75036   0.82572   0.00000  Uiso   1.00
C636   C     0.52431   0.74874   0.83482   0.00000  Uiso   1.00
C637   C     0.97569   0.74874   0.83184   0.00000  Uiso   1.00
C638   C     0.77876   0.60407   0.86458   0.00000  Uiso   1.00
C639   C     0.72879   0.89640   0.79536   0.00000  Uiso   1.00
C640   C     0.72124   0.60407   0.80209   0.00000  Uiso   1.00
C641   C     0.77121   0.89640   0.87131   0.00000  Uiso   1.00
C642   C     0.77981   0.55387   0.86385   0.00000  Uiso   1.00
C643   C     0.72984   0.94663   0.79447   0.00000  Uiso   1.00
C644   C     0.72019   0.55387   0.80282   0.00000  Uiso   1.00
Cu645  Cu    0.75000   0.79822   0.83333   0.00000  Uiso   1.00
Cu646  Cu    0.75000   0.70179   0.83333   0.00000  Uiso   1.00
H647   H     0.53018   0.82341   0.81528   0.00000  Uiso   1.00
H648   H     0.96893   0.67563   0.80719   0.00000  Uiso   1.00
H649   H     0.96982   0.82341   0.85140   0.00000  Uiso   1.00
H650   H     0.53107   0.67562   0.85946   0.00000  Uiso   1.00
H651   H     0.80451   0.53623   0.88743   0.00000  Uiso   1.00
H652   H     0.71454   0.96446   0.76267   0.00000  Uiso   1.00
H653   H     0.69550   0.53623   0.77923   0.00000  Uiso   1.00
H654   H     0.78546   0.96446   0.90399   0.00000  Uiso   1.00
I655   I     0.82383   0.63572   0.91767   0.00000  Uiso   1.00
I656   I     0.69035   0.86753   0.73426   0.00000  Uiso   1.00
I657   I     0.67617   0.63572   0.74900   0.00000  Uiso   1.00
I658   I     0.80964   0.86753   0.93242   0.00000  Uiso   1.00
I659   I     0.61671   0.86437   0.83939   0.00000  Uiso   1.00
I660   I     0.87665   0.64418   0.78493   0.00000  Uiso   1.00
I661   I     0.88330   0.86437   0.82730   0.00000  Uiso   1.00
I662   I     0.62335   0.64418   0.88173   0.00000  Uiso   1.00
N663   N     0.75000   0.62935   0.83333   0.00000  Uiso   1.00
N664   N     0.75000   0.87066   0.83333   0.00000  Uiso   1.00
O665   O     0.68573   0.79072   0.83334   0.00000  Uiso   1.00
O666   O     0.81427   0.70929   0.83333   0.00000  Uiso   1.00
O667   O     0.81427   0.79072   0.83333   0.00000  Uiso   1.00
O668   O     0.68573   0.70929   0.83334   0.00000  Uiso   1.00
O669   O     0.75000   0.79071   0.76280   0.00000  Uiso   1.00
O670   O     0.75000   0.70929   0.90387   0.00000  Uiso   1.00
O671   O     0.75000   0.79071   0.90387   0.00000  Uiso   1.00
O672   O     0.75000   0.70929   0.76280   0.00000  Uiso   1.00
loop_
_geom_bond_atom_site_label_1
_geom_bond_atom_site_label_2
_geom_bond_distance
_geom_bond_site_symmetry_2
_ccdc_geom_bond_type
C1     C18     1.481   .     S
C1     O52     1.307   .     A
C1     O49     1.304   .     A
C2     C6      1.401   .     A
C2     C25     1.406   .     A
C2     H38     1.079   .     S
C3     O53     1.293   .     A
C3     O56     1.292   .     A
C3     C7      1.404   .     S
C4     C8      1.404   .     S
C4     O55     1.293   .     A
C4     O54     1.292   .     A
C5     C28     1.405   .     A
C5     C26     1.405   .     A
C5     C118    1.520   1_545 S
C6     C27     1.401   .     A
C6     C117    1.520   .     S
C7     C456    1.188   1_554 S
C8     C231    1.188   .     S
C9     C14     1.384   .     A
C9     C20     1.399   .     A
C9     H31     1.080   .     S
C10    C15     1.396   .     A
C10    C21     1.400   .     A
C10    H32     1.082   .     S
C11    C16     1.384   .     A
C11    H33     1.080   .     S
C11    C21     1.399   .     A
C12    O50     1.307   .     A
C12    C19     1.481   .     S
C12    O51     1.304   .     A
C13    C17     1.396   .     A
C13    H34     1.082   .     S
C13    C20     1.400   .     A
C14    C18     1.418   .     A
C14    I43     2.132   .     S
C15    C19     1.422   .     A
C15    I44     2.133   .     S
C16    I45     2.132   .     S
C16    C19     1.418   .     A
C17    C18     1.422   .     A
C17    I46     2.133   .     S
C20    C77     1.481   1_455 S
C21    C76     1.481   .     S
C22    I39     2.126   .     S
C22    N47     1.379   .     A
C22    C26     1.405   .     A
C23    C27     1.406   .     A
C23    I40     2.133   .     S
C23    N48     1.386   .     A
C24    I41     2.126   .     S
C24    N47     1.379   .     A
C24    C28     1.405   .     A
C25    I42     2.133   .     S
C25    N48     1.386   .     A
C26    H35     1.079   .     S
C27    H36     1.079   .     S
C28    H37     1.079   .     S
Cu29   Cu30    2.698   .     S
Cu29   O49     1.972   .     S
Cu29   O53     1.926   .     S
Cu29   N48     2.027   .     S
Cu29   O51     1.972   .     S
Cu29   O55     1.926   .     S
Cu30   O50     1.972   .     S
Cu30   O54     1.926   .     S
Cu30   N47     2.027   .     S
Cu30   O52     1.972   .     S
Cu30   O56     1.926   .     S
C57    C74     1.481   .     S
C57    O108    1.307   .     A
C57    O105    1.304   .     A
C58    C62     1.401   .     A
C58    C81     1.406   .     A
C58    H94     1.079   .     S
C59    O109    1.293   .     A
C59    O112    1.292   .     A
C59    C63     1.404   .     S
C60    C64     1.404   .     S
C60    O111    1.293   .     A
C60    O110    1.292   .     A
C61    C84     1.405   .     A
C61    C82     1.405   .     A
C61    C174    1.520   1_545 S
C62    C83     1.401   .     A
C62    C173    1.520   .     S
C63    C512    1.188   1_554 S
C64    C287    1.188   .     S
C65    C70     1.384   .     A
C65    C76     1.399   .     A
C65    H87     1.080   .     S
C66    C71     1.396   .     A
C66    C77     1.400   .     A
C66    H88     1.082   .     S
C67    C72     1.384   .     A
C67    H89     1.080   .     S
C67    C77     1.399   .     A
C68    O106    1.307   .     A
C68    C75     1.481   .     S
C68    O107    1.304   .     A
C69    C73     1.396   .     A
C69    H90     1.082   .     S
C69    C76     1.400   .     A
C70    C74     1.418   .     A
C70    I99     2.132   .     S
C71    C75     1.422   .     A
C71    I100    2.133   .     S
C72    I101    2.132   .     S
C72    C75     1.418   .     A
C73    C74     1.422   .     A
C73    I102    2.133   .     S
C77    C20     1.481   1_655 S
C78    I95     2.126   .     S
C78    N103    1.379   .     A
C78    C82     1.405   .     A
C79    C83     1.406   .     A
C79    I96     2.133   .     S
C79    N104    1.386   .     A
C80    I97     2.126   .     S
C80    N103    1.379   .     A
C80    C84     1.405   .     A
C81    I98     2.133   .     S
C81    N104    1.386   .     A
C82    H91     1.079   .     S
C83    H92     1.079   .     S
C84    H93     1.079   .     S
Cu85   Cu86    2.698   .     S
Cu85   O105    1.972   .     S
Cu85   O109    1.926   .     S
Cu85   N104    2.027   .     S
Cu85   O107    1.972   .     S
Cu85   O111    1.926   .     S
Cu86   O106    1.972   .     S
Cu86   O110    1.926   .     S
Cu86   N103    2.027   .     S
Cu86   O108    1.972   .     S
Cu86   O112    1.926   .     S
C113   C130    1.481   .     S
C113   O164    1.307   .     A
C113   O161    1.304   .     A
C114   C118    1.401   .     A
C114   C137    1.406   .     A
C114   H150    1.079   .     S
C115   O165    1.293   .     A
C115   O168    1.292   .     A
C115   C119    1.404   .     S
C116   C120    1.404   .     S
C116   O167    1.293   .     A
C116   O166    1.292   .     A
C117   C140    1.405   .     A
C117   C138    1.405   .     A
C118   C139    1.401   .     A
C118   C5      1.520   1_565 S
C119   C568    1.188   1_554 S
C120   C343    1.188   .     S
C121   C126    1.384   .     A
C121   C132    1.399   .     A
C121   H143    1.080   .     S
C122   C127    1.396   .     A
C122   C133    1.400   .     A
C122   H144    1.082   .     S
C123   C128    1.384   .     A
C123   H145    1.080   .     S
C123   C133    1.399   .     A
C124   O162    1.307   .     A
C124   C131    1.481   .     S
C124   O163    1.304   .     A
C125   C129    1.396   .     A
C125   H146    1.082   .     S
C125   C132    1.400   .     A
C126   C130    1.418   .     A
C126   I155    2.132   .     S
C127   C131    1.422   .     A
C127   I156    2.133   .     S
C128   I157    2.132   .     S
C128   C131    1.418   .     A
C129   C130    1.422   .     A
C129   I158    2.133   .     S
C132   C189    1.481   1_455 S
C133   C188    1.481   .     S
C134   I151    2.126   .     S
C134   N159    1.379   .     A
C134   C138    1.405   .     A
C135   C139    1.406   .     A
C135   I152    2.133   .     S
C135   N160    1.386   .     A
C136   I153    2.126   .     S
C136   N159    1.379   .     A
C136   C140    1.405   .     A
C137   I154    2.133   .     S
C137   N160    1.386   .     A
C138   H147    1.079   .     S
C139   H148    1.079   .     S
C140   H149    1.079   .     S
Cu141  Cu142   2.698   .     S
Cu141  O161    1.972   .     S
Cu141  O165    1.926   .     S
Cu141  N160    2.027   .     S
Cu141  O163    1.972   .     S
Cu141  O167    1.926   .     S
Cu142  O162    1.972   .     S
Cu142  O166    1.926   .     S
Cu142  N159    2.027   .     S
Cu142  O164    1.972   .     S
Cu142  O168    1.926   .     S
C169   C186    1.481   .     S
C169   O220    1.307   .     A
C169   O217    1.304   .     A
C170   C174    1.401   .     A
C170   C193    1.406   .     A
C170   H206    1.079   .     S
C171   O221    1.293   .     A
C171   O224    1.292   .     A
C171   C175    1.404   .     S
C172   C176    1.404   .     S
C172   O223    1.293   .     A
C172   O222    1.292   .     A
C173   C196    1.405   .     A
C173   C194    1.405   .     A
C174   C195    1.401   .     A
C174   C61     1.520   1_565 S
C175   C624    1.188   1_554 S
C176   C399    1.188   .     S
C177   C182    1.384   .     A
C177   C188    1.399   .     A
C177   H199    1.080   .     S
C178   C183    1.396   .     A
C178   C189    1.400   .     A
C178   H200    1.082   .     S
C179   C184    1.384   .     A
C179   H201    1.080   .     S
C179   C189    1.399   .     A
C180   O218    1.307   .     A
C180   C187    1.481   .     S
C180   O219    1.304   .     A
C181   C185    1.396   .     A
C181   H202    1.082   .     S
C181   C188    1.400   .     A
C182   C186    1.418   .     A
C182   I211    2.132   .     S
C183   C187    1.422   .     A
C183   I212    2.133   .     S
C184   I213    2.132   .     S
C184   C187    1.418   .     A
C185   C186    1.422   .     A
C185   I214    2.133   .     S
C189   C132    1.481   1_655 S
C190   I207    2.126   .     S
C190   N215    1.379   .     A
C190   C194    1.405   .     A
C191   C195    1.406   .     A
C191   I208    2.133   .     S
C191   N216    1.386   .     A
C192   I209    2.126   .     S
C192   N215    1.379   .     A
C192   C196    1.405   .     A
C193   I210    2.133   .     S
C193   N216    1.386   .     A
C194   H203    1.079   .     S
C195   H204    1.079   .     S
C196   H205    1.079   .     S
Cu197  Cu198   2.698   .     S
Cu197  O217    1.972   .     S
Cu197  O221    1.926   .     S
Cu197  N216    2.027   .     S
Cu197  O219    1.972   .     S
Cu197  O223    1.926   .     S
Cu198  O218    1.972   .     S
Cu198  O222    1.926   .     S
Cu198  N215    2.027   .     S
Cu198  O220    1.972   .     S
Cu198  O224    1.926   .     S
C225   C242    1.481   .     S
C225   O276    1.307   .     A
C225   O273    1.304   .     A
C226   C230    1.401   .     A
C226   C249    1.406   .     A
C226   H262    1.079   .     S
C227   O277    1.293   .     A
C227   O280    1.292   .     A
C227   C231    1.404   .     S
C228   C232    1.404   .     S
C228   O279    1.293   .     A
C228   O278    1.292   .     A
C229   C252    1.405   .     A
C229   C250    1.405   .     A
C229   C342    1.520   1_545 S
C230   C251    1.401   .     A
C230   C341    1.520   .     S
C232   C455    1.188   .     S
C233   C238    1.384   .     A
C233   C244    1.399   .     A
C233   H255    1.080   .     S
C234   C239    1.396   .     A
C234   C245    1.400   .     A
C234   H256    1.082   .     S
C235   C240    1.384   .     A
C235   H257    1.080   .     S
C235   C245    1.399   .     A
C236   O274    1.307   .     A
C236   C243    1.481   .     S
C236   O275    1.304   .     A
C237   C241    1.396   .     A
C237   H258    1.082   .     S
C237   C244    1.400   .     A
C238   C242    1.418   .     A
C238   I267    2.132   .     S
C239   C243    1.422   .     A
C239   I268    2.133   .     S
C240   I269    2.132   .     S
C240   C243    1.418   .     A
C241   C242    1.422   .     A
C241   I270    2.133   .     S
C244   C301    1.481   1_455 S
C245   C300    1.481   .     S
C246   I263    2.126   .     S
C246   N271    1.379   .     A
C246   C250    1.405   .     A
C247   C251    1.406   .     A
C247   I264    2.133   .     S
C247   N272    1.386   .     A
C248   I265    2.126   .     S
C248   N271    1.379   .     A
C248   C252    1.405   .     A
C249   I266    2.133   .     S
C249   N272    1.386   .     A
C250   H259    1.079   .     S
C251   H260    1.079   .     S
C252   H261    1.079   .     S
Cu253  Cu254   2.698   .     S
Cu253  O273    1.972   .     S
Cu253  O277    1.926   .     S
Cu253  N272    2.027   .     S
Cu253  O275    1.972   .     S
Cu253  O279    1.926   .     S
Cu254  O274    1.972   .     S
Cu254  O278    1.926   .     S
Cu254  N271    2.027   .     S
Cu254  O276    1.972   .     S
Cu254  O280    1.926   .     S
C281   C298    1.481   .     S
C281   O332    1.307   .     A
C281   O329    1.304   .     A
C282   C286    1.401   .     A
C282   C305    1.406   .     A
C282   H318    1.079   .     S
C283   O333    1.293   .     A
C283   O336    1.292   .     A
C283   C287    1.404   .     S
C284   C288    1.404   .     S
C284   O335    1.293   .     A
C284   O334    1.292   .     A
C285   C308    1.405   .     A
C285   C306    1.405   .     A
C285   C398    1.520   1_545 S
C286   C307    1.401   .     A
C286   C397    1.520   .     S
C288   C511    1.188   .     S
C289   C294    1.384   .     A
C289   C300    1.399   .     A
C289   H311    1.080   .     S
C290   C295    1.396   .     A
C290   C301    1.400   .     A
C290   H312    1.082   .     S
C291   C296    1.384   .     A
C291   H313    1.080   .     S
C291   C301    1.399   .     A
C292   O330    1.307   .     A
C292   C299    1.481   .     S
C292   O331    1.304   .     A
C293   C297    1.396   .     A
C293   H314    1.082   .     S
C293   C300    1.400   .     A
C294   C298    1.418   .     A
C294   I323    2.132   .     S
C295   C299    1.422   .     A
C295   I324    2.133   .     S
C296   I325    2.132   .     S
C296   C299    1.418   .     A
C297   C298    1.422   .     A
C297   I326    2.133   .     S
C301   C244    1.481   1_655 S
C302   I319    2.126   .     S
C302   N327    1.379   .     A
C302   C306    1.405   .     A
C303   C307    1.406   .     A
C303   I320    2.133   .     S
C303   N328    1.386   .     A
C304   I321    2.126   .     S
C304   N327    1.379   .     A
C304   C308    1.405   .     A
C305   I322    2.133   .     S
C305   N328    1.386   .     A
C306   H315    1.079   .     S
C307   H316    1.079   .     S
C308   H317    1.079   .     S
Cu309  Cu310   2.698   .     S
Cu309  O329    1.972   .     S
Cu309  O333    1.926   .     S
Cu309  N328    2.027   .     S
Cu309  O331    1.972   .     S
Cu309  O335    1.926   .     S
Cu310  O330    1.972   .     S
Cu310  O334    1.926   .     S
Cu310  N327    2.027   .     S
Cu310  O332    1.972   .     S
Cu310  O336    1.926   .     S
C337   C354    1.481   .     S
C337   O388    1.307   .     A
C337   O385    1.304   .     A
C338   C342    1.401   .     A
C338   C361    1.406   .     A
C338   H374    1.079   .     S
C339   O389    1.293   .     A
C339   O392    1.292   .     A
C339   C343    1.404   .     S
C340   C344    1.404   .     S
C340   O391    1.293   .     A
C340   O390    1.292   .     A
C341   C364    1.405   .     A
C341   C362    1.405   .     A
C342   C363    1.401   .     A
C342   C229    1.520   1_565 S
C344   C567    1.188   .     S
C345   C350    1.384   .     A
C345   C356    1.399   .     A
C345   H367    1.080   .     S
C346   C351    1.396   .     A
C346   C357    1.400   .     A
C346   H368    1.082   .     S
C347   C352    1.384   .     A
C347   H369    1.080   .     S
C347   C357    1.399   .     A
C348   O386    1.307   .     A
C348   C355    1.481   .     S
C348   O387    1.304   .     A
C349   C353    1.396   .     A
C349   H370    1.082   .     S
C349   C356    1.400   .     A
C350   C354    1.418   .     A
C350   I379    2.132   .     S
C351   C355    1.422   .     A
C351   I380    2.133   .     S
C352   I381    2.132   .     S
C352   C355    1.418   .     A
C353   C354    1.422   .     A
C353   I382    2.133   .     S
C356   C413    1.481   1_455 S
C357   C412    1.481   .     S
C358   I375    2.126   .     S
C358   N383    1.379   .     A
C358   C362    1.405   .     A
C359   C363    1.406   .     A
C359   I376    2.133   .     S
C359   N384    1.386   .     A
C360   I377    2.126   .     S
C360   N383    1.379   .     A
C360   C364    1.405   .     A
C361   I378    2.133   .     S
C361   N384    1.386   .     A
C362   H371    1.079   .     S
C363   H372    1.079   .     S
C364   H373    1.079   .     S
Cu365  Cu366   2.698   .     S
Cu365  O385    1.972   .     S
Cu365  O389    1.926   .     S
Cu365  N384    2.027   .     S
Cu365  O387    1.972   .     S
Cu365  O391    1.926   .     S
Cu366  O386    1.972   .     S
Cu366  O390    1.926   .     S
Cu366  N383    2.027   .     S
Cu366  O388    1.972   .     S
Cu366  O392    1.926   .     S
C393   C410    1.481   .     S
C393   O444    1.307   .     A
C393   O441    1.304   .     A
C394   C398    1.401   .     A
C394   C417    1.406   .     A
C394   H430    1.079   .     S
C395   O445    1.293   .     A
C395   O448    1.292   .     A
C395   C399    1.404   .     S
C396   C400    1.404   .     S
C396   O447    1.293   .     A
C396   O446    1.292   .     A
C397   C420    1.405   .     A
C397   C418    1.405   .     A
C398   C419    1.401   .     A
C398   C285    1.520   1_565 S
C400   C623    1.188   .     S
C401   C406    1.384   .     A
C401   C412    1.399   .     A
C401   H423    1.080   .     S
C402   C407    1.396   .     A
C402   C413    1.400   .     A
C402   H424    1.082   .     S
C403   C408    1.384   .     A
C403   H425    1.080   .     S
C403   C413    1.399   .     A
C404   O442    1.307   .     A
C404   C411    1.481   .     S
C404   O443    1.304   .     A
C405   C409    1.396   .     A
C405   H426    1.082   .     S
C405   C412    1.400   .     A
C406   C410    1.418   .     A
C406   I435    2.132   .     S
C407   C411    1.422   .     A
C407   I436    2.133   .     S
C408   I437    2.132   .     S
C408   C411    1.418   .     A
C409   C410    1.422   .     A
C409   I438    2.133   .     S
C413   C356    1.481   1_655 S
C414   I431    2.126   .     S
C414   N439    1.379   .     A
C414   C418    1.405   .     A
C415   C419    1.406   .     A
C415   I432    2.133   .     S
C415   N440    1.386   .     A
C416   I433    2.126   .     S
C416   N439    1.379   .     A
C416   C420    1.405   .     A
C417   I434    2.133   .     S
C417   N440    1.386   .     A
C418   H427    1.079   .     S
C419   H428    1.079   .     S
C420   H429    1.079   .     S
Cu421  Cu422   2.698   .     S
Cu421  O441    1.972   .     S
Cu421  O445    1.926   .     S
Cu421  N440    2.027   .     S
Cu421  O443    1.972   .     S
Cu421  O447    1.926   .     S
Cu422  O442    1.972   .     S
Cu422  O446    1.926   .     S
Cu422  N439    2.027   .     S
Cu422  O444    1.972   .     S
Cu422  O448    1.926   .     S
C449   C466    1.481   .     S
C449   O500    1.307   .     A
C449   O497    1.304   .     A
C450   C454    1.401   .     A
C450   C473    1.406   .     A
C450   H486    1.079   .     S
C451   O501    1.293   .     A
C451   O504    1.292   .     A
C451   C455    1.404   .     S
C452   C456    1.404   .     S
C452   O503    1.293   .     A
C452   O502    1.292   .     A
C453   C476    1.405   .     A
C453   C474    1.405   .     A
C453   C566    1.520   1_545 S
C454   C475    1.401   .     A
C454   C565    1.520   .     S
C456   C7      1.188   1_556 S
C457   C462    1.384   .     A
C457   C468    1.399   .     A
C457   H479    1.080   .     S
C458   C463    1.396   .     A
C458   C469    1.400   .     A
C458   H480    1.082   .     S
C459   C464    1.384   .     A
C459   H481    1.080   .     S
C459   C469    1.399   .     A
C460   O498    1.307   .     A
C460   C467    1.481   .     S
C460   O499    1.304   .     A
C461   C465    1.396   .     A
C461   H482    1.082   .     S
C461   C468    1.400   .     A
C462   C466    1.418   .     A
C462   I491    2.132   .     S
C463   C467    1.422   .     A
C463   I492    2.133   .     S
C464   I493    2.132   .     S
C464   C467    1.418   .     A
C465   C466    1.422   .     A
C465   I494    2.133   .     S
C468   C525    1.481   1_455 S
C469   C524    1.481   .     S
C470   I487    2.126   .     S
C470   N495    1.379   .     A
C470   C474    1.405   .     A
C471   C475    1.406   .     A
C471   I488    2.133   .     S
C471   N496    1.386   .     A
C472   I489    2.126   .     S
C472   N495    1.379   .     A
C472   C476    1.405   .     A
C473   I490    2.133   .     S
C473   N496    1.386   .     A
C474   H483    1.079   .     S
C475   H484    1.079   .     S
C476   H485    1.079   .     S
Cu477  Cu478   2.698   .     S
Cu477  O497    1.972   .     S
Cu477  O501    1.926   .     S
Cu477  N496    2.027   .     S
Cu477  O499    1.972   .     S
Cu477  O503    1.926   .     S
Cu478  O498    1.972   .     S
Cu478  O502    1.926   .     S
Cu478  N495    2.027   .     S
Cu478  O500    1.972   .     S
Cu478  O504    1.926   .     S
C505   C522    1.481   .     S
C505   O556    1.307   .     A
C505   O553    1.304   .     A
C506   C510    1.401   .     A
C506   C529    1.406   .     A
C506   H542    1.079   .     S
C507   O557    1.293   .     A
C507   O560    1.292   .     A
C507   C511    1.404   .     S
C508   C512    1.404   .     S
C508   O559    1.293   .     A
C508   O558    1.292   .     A
C509   C532    1.405   .     A
C509   C530    1.405   .     A
C509   C622    1.520   1_545 S
C510   C531    1.401   .     A
C510   C621    1.520   .     S
C512   C63     1.188   1_556 S
C513   C518    1.384   .     A
C513   C524    1.399   .     A
C513   H535    1.080   .     S
C514   C519    1.396   .     A
C514   C525    1.400   .     A
C514   H536    1.082   .     S
C515   C520    1.384   .     A
C515   H537    1.080   .     S
C515   C525    1.399   .     A
C516   O554    1.307   .     A
C516   C523    1.481   .     S
C516   O555    1.304   .     A
C517   C521    1.396   .     A
C517   H538    1.082   .     S
C517   C524    1.400   .     A
C518   C522    1.418   .     A
C518   I547    2.132   .     S
C519   C523    1.422   .     A
C519   I548    2.133   .     S
C520   I549    2.132   .     S
C520   C523    1.418   .     A
C521   C522    1.422   .     A
C521   I550    2.133   .     S
C525   C468    1.481   1_655 S
C526   I543    2.126   .     S
C526   N551    1.379   .     A
C526   C530    1.405   .     A
C527   C531    1.406   .     A
C527   I544    2.133   .     S
C527   N552    1.386   .     A
C528   I545    2.126   .     S
C528   N551    1.379   .     A
C528   C532    1.405   .     A
C529   I546    2.133   .     S
C529   N552    1.386   .     A
C530   H539    1.079   .     S
C531   H540    1.079   .     S
C532   H541    1.079   .     S
Cu533  Cu534   2.698   .     S
Cu533  O553    1.972   .     S
Cu533  O557    1.926   .     S
Cu533  N552    2.027   .     S
Cu533  O555    1.972   .     S
Cu533  O559    1.926   .     S
Cu534  O554    1.972   .     S
Cu534  O558    1.926   .     S
Cu534  N551    2.027   .     S
Cu534  O556    1.972   .     S
Cu534  O560    1.926   .     S
C561   C578    1.481   .     S
C561   O612    1.307   .     A
C561   O609    1.304   .     A
C562   C566    1.401   .     A
C562   C585    1.406   .     A
C562   H598    1.079   .     S
C563   O613    1.293   .     A
C563   O616    1.292   .     A
C563   C567    1.404   .     S
C564   C568    1.404   .     S
C564   O615    1.293   .     A
C564   O614    1.292   .     A
C565   C588    1.405   .     A
C565   C586    1.405   .     A
C566   C587    1.401   .     A
C566   C453    1.520   1_565 S
C568   C119    1.188   1_556 S
C569   C574    1.384   .     A
C569   C580    1.399   .     A
C569   H591    1.080   .     S
C570   C575    1.396   .     A
C570   C581    1.400   .     A
C570   H592    1.082   .     S
C571   C576    1.384   .     A
C571   H593    1.080   .     S
C571   C581    1.399   .     A
C572   O610    1.307   .     A
C572   C579    1.481   .     S
C572   O611    1.304   .     A
C573   C577    1.396   .     A
C573   H594    1.082   .     S
C573   C580    1.400   .     A
C574   C578    1.418   .     A
C574   I603    2.132   .     S
C575   C579    1.422   .     A
C575   I604    2.133   .     S
C576   I605    2.132   .     S
C576   C579    1.418   .     A
C577   C578    1.422   .     A
C577   I606    2.133   .     S
C580   C637    1.481   1_455 S
C581   C636    1.481   .     S
C582   I599    2.126   .     S
C582   N607    1.379   .     A
C582   C586    1.405   .     A
C583   C587    1.406   .     A
C583   I600    2.133   .     S
C583   N608    1.386   .     A
C584   I601    2.126   .     S
C584   N607    1.379   .     A
C584   C588    1.405   .     A
C585   I602    2.133   .     S
C585   N608    1.386   .     A
C586   H595    1.079   .     S
C587   H596    1.079   .     S
C588   H597    1.079   .     S
Cu589  Cu590   2.698   .     S
Cu589  O609    1.972   .     S
Cu589  O613    1.926   .     S
Cu589  N608    2.027   .     S
Cu589  O611    1.972   .     S
Cu589  O615    1.926   .     S
Cu590  O610    1.972   .     S
Cu590  O614    1.926   .     S
Cu590  N607    2.027   .     S
Cu590  O612    1.972   .     S
Cu590  O616    1.926   .     S
C617   C634    1.481   .     S
C617   O668    1.307   .     A
C617   O665    1.304   .     A
C618   C622    1.401   .     A
C618   C641    1.406   .     A
C618   H654    1.079   .     S
C619   O669    1.293   .     A
C619   O672    1.292   .     A
C619   C623    1.404   .     S
C620   C624    1.404   .     S
C620   O671    1.293   .     A
C620   O670    1.292   .     A
C621   C644    1.405   .     A
C621   C642    1.405   .     A
C622   C643    1.401   .     A
C622   C509    1.520   1_565 S
C624   C175    1.188   1_556 S
C625   C630    1.384   .     A
C625   C636    1.399   .     A
C625   H647    1.080   .     S
C626   C631    1.396   .     A
C626   C637    1.400   .     A
C626   H648    1.082   .     S
C627   C632    1.384   .     A
C627   H649    1.080   .     S
C627   C637    1.399   .     A
C628   O666    1.307   .     A
C628   C635    1.481   .     S
C628   O667    1.304   .     A
C629   C633    1.396   .     A
C629   H650    1.082   .     S
C629   C636    1.400   .     A
C630   C634    1.418   .     A
C630   I659    2.132   .     S
C631   C635    1.422   .     A
C631   I660    2.133   .     S
C632   I661    2.132   .     S
C632   C635    1.418   .     A
C633   C634    1.422   .     A
C633   I662    2.133   .     S
C637   C580    1.481   1_655 S
C638   I655    2.126   .     S
C638   N663    1.379   .     A
C638   C642    1.405   .     A
C639   C643    1.406   .     A
C639   I656    2.133   .     S
C639   N664    1.386   .     A
C640   I657    2.126   .     S
C640   N663    1.379   .     A
C640   C644    1.405   .     A
C641   I658    2.133   .     S
C641   N664    1.386   .     A
C642   H651    1.079   .     S
C643   H652    1.079   .     S
C644   H653    1.079   .     S
Cu645  Cu646   2.698   .     S
Cu645  O665    1.972   .     S
Cu645  O669    1.926   .     S
Cu645  N664    2.027   .     S
Cu645  O667    1.972   .     S
Cu645  O671    1.926   .     S
Cu646  O666    1.972   .     S
Cu646  O670    1.926   .     S
Cu646  N663    2.027   .     S
Cu646  O668    1.972   .     S
Cu646  O672    1.926   .     S
