data_str_m2_o1_o1_pcu_sym.54
_audit_creation_date              2020-01-03
_audit_creation_method            'Materials Studio'
_symmetry_space_group_name_H-M    'P1'
_symmetry_Int_Tables_number       1
_symmetry_cell_setting            triclinic
loop_
_symmetry_equiv_pos_as_xyz
  x,y,z
_cell_length_a                    32.0659
_cell_length_b                    29.7267
_cell_length_c                    28.7898
_cell_angle_alpha                 91.1604
_cell_angle_beta                  89.5722
_cell_angle_gamma                 90.1222
loop_
_atom_site_label
_atom_site_type_symbol
_atom_site_fract_x
_atom_site_fract_y
_atom_site_fract_z
_atom_site_U_iso_or_equiv
_atom_site_adp_type
_atom_site_occupancy
Br1    Br    0.39415   0.17263   0.06531   0.00000  Uiso   1.00
Br2    Br    0.35585   0.07737   0.26803   0.00000  Uiso   1.00
Br3    Br    0.35963   0.06946   0.06680   0.00000  Uiso   1.00
Br4    Br    0.14038   0.43052   0.26654   0.00000  Uiso   1.00
Br5    Br    0.36588   0.44305   0.26006   0.00000  Uiso   1.00
Br6    Br    0.13416   0.05701   0.07324   0.00000  Uiso   1.00
Br7    Br    0.16032   0.09672   0.27084   0.00000  Uiso   1.00
Br8    Br    0.33962   0.40320   0.06249   0.00000  Uiso   1.00
Br9    Br    0.10585   0.32737   0.26802   0.00000  Uiso   1.00
Br10   Br    0.10962   0.31948   0.06679   0.00000  Uiso   1.00
Br11   Br    0.39037   0.18053   0.26654   0.00000  Uiso   1.00
Br12   Br    0.11584   0.19299   0.26010   0.00000  Uiso   1.00
Br13   Br    0.38412   0.30695   0.07327   0.00000  Uiso   1.00
Br14   Br    0.41038   0.34680   0.27084   0.00000  Uiso   1.00
Br15   Br    0.08968   0.15328   0.06249   0.00000  Uiso   1.00
Br16   Br    0.14414   0.42264   0.06531   0.00000  Uiso   1.00
C17    C     0.06097   0.19233   0.16616   0.00000  Uiso   1.00
C18    C     0.00458   0.28931   0.30963   0.00000  Uiso   1.00
C19    C     0.00456   0.28935   0.02515   0.00000  Uiso   1.00
C20    C     0.49544   0.21065   0.30818   0.00000  Uiso   1.00
C21    C     0.24542   0.46069   0.02370   0.00000  Uiso   1.00
C22    C     0.25459   0.03931   0.30963   0.00000  Uiso   1.00
C23    C     0.25457   0.03935   0.02515   0.00000  Uiso   1.00
C24    C     0.24544   0.46065   0.30818   0.00000  Uiso   1.00
C25    C     0.38817   0.14269   0.12410   0.00000  Uiso   1.00
C26    C     0.11184   0.35730   0.20923   0.00000  Uiso   1.00
C27    C     0.11356   0.35403   0.12448   0.00000  Uiso   1.00
C28    C     0.43903   0.30767   0.16717   0.00000  Uiso   1.00
C29    C     0.38643   0.14598   0.20886   0.00000  Uiso   1.00
C30    C     0.11730   0.15155   0.20689   0.00000  Uiso   1.00
C31    C     0.38268   0.34842   0.12646   0.00000  Uiso   1.00
C32    C     0.39372   0.36448   0.20920   0.00000  Uiso   1.00
C33    C     0.10631   0.13555   0.12413   0.00000  Uiso   1.00
C34    C     0.13816   0.39270   0.12411   0.00000  Uiso   1.00
C35    C     0.36184   0.10730   0.20923   0.00000  Uiso   1.00
C36    C     0.36357   0.10402   0.12448   0.00000  Uiso   1.00
C37    C     0.13644   0.39598   0.20886   0.00000  Uiso   1.00
C38    C     0.36732   0.40158   0.20687   0.00000  Uiso   1.00
C39    C     0.43843   0.19308   0.16657   0.00000  Uiso   1.00
C40    C     0.13270   0.09844   0.12645   0.00000  Uiso   1.00
C41    C     0.14369   0.11445   0.20921   0.00000  Uiso   1.00
C42    C     0.35628   0.38552   0.12413   0.00000  Uiso   1.00
C43    C     0.09713   0.33845   0.16693   0.00000  Uiso   1.00
C44    C     0.40287   0.16155   0.16640   0.00000  Uiso   1.00
C45    C     0.40396   0.33960   0.16812   0.00000  Uiso   1.00
C46    C     0.09604   0.16040   0.16522   0.00000  Uiso   1.00
C47    C     0.34713   0.08845   0.16694   0.00000  Uiso   1.00
C48    C     0.15287   0.41155   0.16640   0.00000  Uiso   1.00
C49    C     0.15396   0.08960   0.16812   0.00000  Uiso   1.00
C50    C     0.06157   0.30692   0.16677   0.00000  Uiso   1.00
C51    C     0.34604   0.41040   0.16521   0.00000  Uiso   1.00
C52    C     0.31097   0.44233   0.16616   0.00000  Uiso   1.00
C53    C     0.18903   0.05767   0.16717   0.00000  Uiso   1.00
C54    C     0.18843   0.44308   0.16657   0.00000  Uiso   1.00
C55    C     0.31157   0.05692   0.16677   0.00000  Uiso   1.00
C56    C     0.49542   0.21069   0.02370   0.00000  Uiso   1.00
Cu57   Cu    0.00000   0.25000   0.21355   0.00000  Uiso   1.00
Cu58   Cu    0.00000   0.25000   0.11978   0.00000  Uiso   1.00
Cu59   Cu    0.25000  -0.00000   0.21355   0.00000  Uiso   1.00
Cu60   Cu    0.25000  -0.00000   0.11978   0.00000  Uiso   1.00
H61    H     0.00032   0.17148   0.07604   0.00000  Uiso   1.00
H62    H     0.49970   0.32852   0.25729   0.00000  Uiso   1.00
H63    H     0.49903   0.32944   0.07864   0.00000  Uiso   1.00
H64    H     0.00097   0.17055   0.25470   0.00000  Uiso   1.00
H65    H     0.25030   0.42148   0.07605   0.00000  Uiso   1.00
H66    H     0.24968   0.07852   0.25729   0.00000  Uiso   1.00
H67    H     0.24902   0.07945   0.07863   0.00000  Uiso   1.00
H68    H     0.25097   0.42056   0.25470   0.00000  Uiso   1.00
N69    N     0.00000   0.25000   0.28402   0.00000  Uiso   1.00
N70    N     0.00000   0.25000   0.04931   0.00000  Uiso   1.00
N71    N     0.25000  -0.00000   0.28402   0.00000  Uiso   1.00
N72    N     0.25000  -0.00000   0.04931   0.00000  Uiso   1.00
O73    O     0.04509   0.20491   0.20625   0.00000  Uiso   1.00
O74    O     0.20492   0.04509   0.12709   0.00000  Uiso   1.00
O75    O     0.20492   0.04509   0.20625   0.00000  Uiso   1.00
O76    O     0.29509   0.45491   0.12709   0.00000  Uiso   1.00
O77    O     0.20492   0.45491   0.12709   0.00000  Uiso   1.00
O78    O     0.29509   0.04509   0.20625   0.00000  Uiso   1.00
O79    O     0.29509   0.04509   0.12709   0.00000  Uiso   1.00
O80    O     0.20492   0.45491   0.20625   0.00000  Uiso   1.00
O81    O     0.49096   0.16936   0.04386   0.00000  Uiso   1.00
O82    O     0.00903   0.33064   0.28947   0.00000  Uiso   1.00
O83    O     0.00928   0.33081   0.04671   0.00000  Uiso   1.00
O84    O     0.45492   0.29509   0.12709   0.00000  Uiso   1.00
O85    O     0.49070   0.16919   0.28663   0.00000  Uiso   1.00
O86    O     0.24097   0.41936   0.04386   0.00000  Uiso   1.00
O87    O     0.25904   0.08064   0.28947   0.00000  Uiso   1.00
O88    O     0.25932   0.08080   0.04671   0.00000  Uiso   1.00
O89    O     0.24071   0.41919   0.28663   0.00000  Uiso   1.00
O90    O     0.45492   0.29509   0.20625   0.00000  Uiso   1.00
O91    O     0.04509   0.20491   0.12709   0.00000  Uiso   1.00
O92    O     0.45492   0.20491   0.12709   0.00000  Uiso   1.00
O93    O     0.04509   0.29509   0.20625   0.00000  Uiso   1.00
O94    O     0.04509   0.29509   0.12709   0.00000  Uiso   1.00
O95    O     0.45492   0.20491   0.20625   0.00000  Uiso   1.00
O96    O     0.29509   0.45491   0.20625   0.00000  Uiso   1.00
Br97   Br    0.89415   0.17263   0.06531   0.00000  Uiso   1.00
Br98   Br    0.85585   0.07737   0.26803   0.00000  Uiso   1.00
Br99   Br    0.85963   0.06946   0.06680   0.00000  Uiso   1.00
Br100  Br    0.64038   0.43052   0.26654   0.00000  Uiso   1.00
Br101  Br    0.86588   0.44305   0.26006   0.00000  Uiso   1.00
Br102  Br    0.63416   0.05701   0.07324   0.00000  Uiso   1.00
Br103  Br    0.66032   0.09672   0.27084   0.00000  Uiso   1.00
Br104  Br    0.83962   0.40320   0.06249   0.00000  Uiso   1.00
Br105  Br    0.60585   0.32737   0.26802   0.00000  Uiso   1.00
Br106  Br    0.60962   0.31948   0.06679   0.00000  Uiso   1.00
Br107  Br    0.89037   0.18053   0.26654   0.00000  Uiso   1.00
Br108  Br    0.61584   0.19299   0.26010   0.00000  Uiso   1.00
Br109  Br    0.88412   0.30695   0.07327   0.00000  Uiso   1.00
Br110  Br    0.91038   0.34680   0.27084   0.00000  Uiso   1.00
Br111  Br    0.58968   0.15328   0.06249   0.00000  Uiso   1.00
Br112  Br    0.64414   0.42264   0.06531   0.00000  Uiso   1.00
C113   C     0.56097   0.19233   0.16616   0.00000  Uiso   1.00
C114   C     0.50458   0.28931   0.30963   0.00000  Uiso   1.00
C115   C     0.50456   0.28935   0.02515   0.00000  Uiso   1.00
C116   C     0.99544   0.21065   0.30818   0.00000  Uiso   1.00
C117   C     0.74542   0.46069   0.02370   0.00000  Uiso   1.00
C118   C     0.75459   0.03931   0.30963   0.00000  Uiso   1.00
C119   C     0.75457   0.03935   0.02515   0.00000  Uiso   1.00
C120   C     0.74544   0.46065   0.30818   0.00000  Uiso   1.00
C121   C     0.88817   0.14269   0.12410   0.00000  Uiso   1.00
C122   C     0.61184   0.35730   0.20923   0.00000  Uiso   1.00
C123   C     0.61356   0.35403   0.12448   0.00000  Uiso   1.00
C124   C     0.93903   0.30767   0.16717   0.00000  Uiso   1.00
C125   C     0.88643   0.14598   0.20886   0.00000  Uiso   1.00
C126   C     0.61730   0.15155   0.20689   0.00000  Uiso   1.00
C127   C     0.88268   0.34842   0.12646   0.00000  Uiso   1.00
C128   C     0.89372   0.36448   0.20920   0.00000  Uiso   1.00
C129   C     0.60631   0.13555   0.12413   0.00000  Uiso   1.00
C130   C     0.63816   0.39270   0.12411   0.00000  Uiso   1.00
C131   C     0.86184   0.10730   0.20923   0.00000  Uiso   1.00
C132   C     0.86357   0.10402   0.12448   0.00000  Uiso   1.00
C133   C     0.63644   0.39598   0.20886   0.00000  Uiso   1.00
C134   C     0.86732   0.40158   0.20687   0.00000  Uiso   1.00
C135   C     0.93843   0.19308   0.16657   0.00000  Uiso   1.00
C136   C     0.63270   0.09844   0.12645   0.00000  Uiso   1.00
C137   C     0.64369   0.11445   0.20921   0.00000  Uiso   1.00
C138   C     0.85628   0.38552   0.12413   0.00000  Uiso   1.00
C139   C     0.59713   0.33845   0.16693   0.00000  Uiso   1.00
C140   C     0.90287   0.16155   0.16640   0.00000  Uiso   1.00
C141   C     0.90396   0.33960   0.16812   0.00000  Uiso   1.00
C142   C     0.59604   0.16040   0.16522   0.00000  Uiso   1.00
C143   C     0.84713   0.08845   0.16694   0.00000  Uiso   1.00
C144   C     0.65287   0.41155   0.16640   0.00000  Uiso   1.00
C145   C     0.65396   0.08960   0.16812   0.00000  Uiso   1.00
C146   C     0.56157   0.30692   0.16677   0.00000  Uiso   1.00
C147   C     0.84604   0.41040   0.16521   0.00000  Uiso   1.00
C148   C     0.81097   0.44233   0.16616   0.00000  Uiso   1.00
C149   C     0.68903   0.05767   0.16717   0.00000  Uiso   1.00
C150   C     0.68843   0.44308   0.16657   0.00000  Uiso   1.00
C151   C     0.81157   0.05692   0.16677   0.00000  Uiso   1.00
C152   C     0.99542   0.21069   0.02370   0.00000  Uiso   1.00
Cu153  Cu    0.50000   0.25000   0.21355   0.00000  Uiso   1.00
Cu154  Cu    0.50000   0.25000   0.11978   0.00000  Uiso   1.00
Cu155  Cu    0.75000  -0.00000   0.21355   0.00000  Uiso   1.00
Cu156  Cu    0.75000  -0.00000   0.11978   0.00000  Uiso   1.00
H157   H     0.50032   0.17148   0.07604   0.00000  Uiso   1.00
H158   H     0.99970   0.32852   0.25729   0.00000  Uiso   1.00
H159   H     0.99903   0.32944   0.07864   0.00000  Uiso   1.00
H160   H     0.50097   0.17055   0.25470   0.00000  Uiso   1.00
H161   H     0.75030   0.42148   0.07605   0.00000  Uiso   1.00
H162   H     0.74968   0.07852   0.25729   0.00000  Uiso   1.00
H163   H     0.74902   0.07945   0.07863   0.00000  Uiso   1.00
H164   H     0.75097   0.42056   0.25470   0.00000  Uiso   1.00
N165   N     0.50000   0.25000   0.28402   0.00000  Uiso   1.00
N166   N     0.50000   0.25000   0.04931   0.00000  Uiso   1.00
N167   N     0.75000  -0.00000   0.28402   0.00000  Uiso   1.00
N168   N     0.75000  -0.00000   0.04931   0.00000  Uiso   1.00
O169   O     0.54509   0.20491   0.20625   0.00000  Uiso   1.00
O170   O     0.70492   0.04509   0.12709   0.00000  Uiso   1.00
O171   O     0.70492   0.04509   0.20625   0.00000  Uiso   1.00
O172   O     0.79509   0.45491   0.12709   0.00000  Uiso   1.00
O173   O     0.70492   0.45491   0.12709   0.00000  Uiso   1.00
O174   O     0.79509   0.04509   0.20625   0.00000  Uiso   1.00
O175   O     0.79509   0.04509   0.12709   0.00000  Uiso   1.00
O176   O     0.70492   0.45491   0.20625   0.00000  Uiso   1.00
O177   O     0.99096   0.16936   0.04386   0.00000  Uiso   1.00
O178   O     0.50903   0.33064   0.28947   0.00000  Uiso   1.00
O179   O     0.50928   0.33081   0.04671   0.00000  Uiso   1.00
O180   O     0.95492   0.29509   0.12709   0.00000  Uiso   1.00
O181   O     0.99070   0.16919   0.28663   0.00000  Uiso   1.00
O182   O     0.74097   0.41936   0.04386   0.00000  Uiso   1.00
O183   O     0.75904   0.08064   0.28947   0.00000  Uiso   1.00
O184   O     0.75932   0.08080   0.04671   0.00000  Uiso   1.00
O185   O     0.74071   0.41919   0.28663   0.00000  Uiso   1.00
O186   O     0.95492   0.29509   0.20625   0.00000  Uiso   1.00
O187   O     0.54509   0.20491   0.12709   0.00000  Uiso   1.00
O188   O     0.95492   0.20491   0.12709   0.00000  Uiso   1.00
O189   O     0.54509   0.29509   0.20625   0.00000  Uiso   1.00
O190   O     0.54509   0.29509   0.12709   0.00000  Uiso   1.00
O191   O     0.95492   0.20491   0.20625   0.00000  Uiso   1.00
O192   O     0.79509   0.45491   0.20625   0.00000  Uiso   1.00
Br193  Br    0.39415   0.67263   0.06531   0.00000  Uiso   1.00
Br194  Br    0.35585   0.57737   0.26803   0.00000  Uiso   1.00
Br195  Br    0.35963   0.56946   0.06680   0.00000  Uiso   1.00
Br196  Br    0.14038   0.93052   0.26654   0.00000  Uiso   1.00
Br197  Br    0.36588   0.94305   0.26006   0.00000  Uiso   1.00
Br198  Br    0.13416   0.55701   0.07324   0.00000  Uiso   1.00
Br199  Br    0.16032   0.59672   0.27084   0.00000  Uiso   1.00
Br200  Br    0.33962   0.90320   0.06249   0.00000  Uiso   1.00
Br201  Br    0.10585   0.82737   0.26802   0.00000  Uiso   1.00
Br202  Br    0.10962   0.81948   0.06679   0.00000  Uiso   1.00
Br203  Br    0.39037   0.68053   0.26654   0.00000  Uiso   1.00
Br204  Br    0.11584   0.69299   0.26010   0.00000  Uiso   1.00
Br205  Br    0.38412   0.80695   0.07327   0.00000  Uiso   1.00
Br206  Br    0.41038   0.84680   0.27084   0.00000  Uiso   1.00
Br207  Br    0.08968   0.65328   0.06249   0.00000  Uiso   1.00
Br208  Br    0.14414   0.92264   0.06531   0.00000  Uiso   1.00
C209   C     0.06097   0.69233   0.16616   0.00000  Uiso   1.00
C210   C     0.00458   0.78931   0.30963   0.00000  Uiso   1.00
C211   C     0.00456   0.78935   0.02515   0.00000  Uiso   1.00
C212   C     0.49544   0.71065   0.30818   0.00000  Uiso   1.00
C213   C     0.24542   0.96069   0.02370   0.00000  Uiso   1.00
C214   C     0.25459   0.53931   0.30963   0.00000  Uiso   1.00
C215   C     0.25457   0.53935   0.02515   0.00000  Uiso   1.00
C216   C     0.24544   0.96065   0.30818   0.00000  Uiso   1.00
C217   C     0.38817   0.64269   0.12410   0.00000  Uiso   1.00
C218   C     0.11184   0.85730   0.20923   0.00000  Uiso   1.00
C219   C     0.11356   0.85403   0.12448   0.00000  Uiso   1.00
C220   C     0.43903   0.80767   0.16717   0.00000  Uiso   1.00
C221   C     0.38643   0.64598   0.20886   0.00000  Uiso   1.00
C222   C     0.11730   0.65155   0.20689   0.00000  Uiso   1.00
C223   C     0.38268   0.84842   0.12646   0.00000  Uiso   1.00
C224   C     0.39372   0.86448   0.20920   0.00000  Uiso   1.00
C225   C     0.10631   0.63555   0.12413   0.00000  Uiso   1.00
C226   C     0.13816   0.89270   0.12411   0.00000  Uiso   1.00
C227   C     0.36184   0.60730   0.20923   0.00000  Uiso   1.00
C228   C     0.36357   0.60402   0.12448   0.00000  Uiso   1.00
C229   C     0.13644   0.89598   0.20886   0.00000  Uiso   1.00
C230   C     0.36732   0.90158   0.20687   0.00000  Uiso   1.00
C231   C     0.43843   0.69308   0.16657   0.00000  Uiso   1.00
C232   C     0.13270   0.59844   0.12645   0.00000  Uiso   1.00
C233   C     0.14369   0.61445   0.20921   0.00000  Uiso   1.00
C234   C     0.35628   0.88552   0.12413   0.00000  Uiso   1.00
C235   C     0.09713   0.83845   0.16693   0.00000  Uiso   1.00
C236   C     0.40287   0.66155   0.16640   0.00000  Uiso   1.00
C237   C     0.40396   0.83960   0.16812   0.00000  Uiso   1.00
C238   C     0.09604   0.66040   0.16522   0.00000  Uiso   1.00
C239   C     0.34713   0.58845   0.16694   0.00000  Uiso   1.00
C240   C     0.15287   0.91155   0.16640   0.00000  Uiso   1.00
C241   C     0.15396   0.58960   0.16812   0.00000  Uiso   1.00
C242   C     0.06157   0.80692   0.16677   0.00000  Uiso   1.00
C243   C     0.34604   0.91040   0.16521   0.00000  Uiso   1.00
C244   C     0.31097   0.94233   0.16616   0.00000  Uiso   1.00
C245   C     0.18903   0.55767   0.16717   0.00000  Uiso   1.00
C246   C     0.18843   0.94308   0.16657   0.00000  Uiso   1.00
C247   C     0.31157   0.55692   0.16677   0.00000  Uiso   1.00
C248   C     0.49542   0.71069   0.02370   0.00000  Uiso   1.00
Cu249  Cu    0.00000   0.75000   0.21355   0.00000  Uiso   1.00
Cu250  Cu    0.00000   0.75000   0.11978   0.00000  Uiso   1.00
Cu251  Cu    0.25000   0.50000   0.21355   0.00000  Uiso   1.00
Cu252  Cu    0.25000   0.50000   0.11978   0.00000  Uiso   1.00
H253   H     0.00032   0.67148   0.07604   0.00000  Uiso   1.00
H254   H     0.49970   0.82852   0.25729   0.00000  Uiso   1.00
H255   H     0.49903   0.82944   0.07864   0.00000  Uiso   1.00
H256   H     0.00097   0.67055   0.25470   0.00000  Uiso   1.00
H257   H     0.25030   0.92148   0.07605   0.00000  Uiso   1.00
H258   H     0.24968   0.57852   0.25729   0.00000  Uiso   1.00
H259   H     0.24902   0.57945   0.07863   0.00000  Uiso   1.00
H260   H     0.25097   0.92056   0.25470   0.00000  Uiso   1.00
N261   N     0.00000   0.75000   0.28402   0.00000  Uiso   1.00
N262   N     0.00000   0.75000   0.04931   0.00000  Uiso   1.00
N263   N     0.25000   0.50000   0.28402   0.00000  Uiso   1.00
N264   N     0.25000   0.50000   0.04931   0.00000  Uiso   1.00
O265   O     0.04509   0.70491   0.20625   0.00000  Uiso   1.00
O266   O     0.20492   0.54509   0.12709   0.00000  Uiso   1.00
O267   O     0.20492   0.54509   0.20625   0.00000  Uiso   1.00
O268   O     0.29509   0.95491   0.12709   0.00000  Uiso   1.00
O269   O     0.20492   0.95491   0.12709   0.00000  Uiso   1.00
O270   O     0.29509   0.54509   0.20625   0.00000  Uiso   1.00
O271   O     0.29509   0.54509   0.12709   0.00000  Uiso   1.00
O272   O     0.20492   0.95491   0.20625   0.00000  Uiso   1.00
O273   O     0.49096   0.66936   0.04386   0.00000  Uiso   1.00
O274   O     0.00903   0.83064   0.28947   0.00000  Uiso   1.00
O275   O     0.00928   0.83081   0.04671   0.00000  Uiso   1.00
O276   O     0.45492   0.79509   0.12709   0.00000  Uiso   1.00
O277   O     0.49070   0.66919   0.28663   0.00000  Uiso   1.00
O278   O     0.24097   0.91936   0.04386   0.00000  Uiso   1.00
O279   O     0.25904   0.58064   0.28947   0.00000  Uiso   1.00
O280   O     0.25932   0.58080   0.04671   0.00000  Uiso   1.00
O281   O     0.24071   0.91919   0.28663   0.00000  Uiso   1.00
O282   O     0.45492   0.79509   0.20625   0.00000  Uiso   1.00
O283   O     0.04509   0.70491   0.12709   0.00000  Uiso   1.00
O284   O     0.45492   0.70491   0.12709   0.00000  Uiso   1.00
O285   O     0.04509   0.79509   0.20625   0.00000  Uiso   1.00
O286   O     0.04509   0.79509   0.12709   0.00000  Uiso   1.00
O287   O     0.45492   0.70491   0.20625   0.00000  Uiso   1.00
O288   O     0.29509   0.95491   0.20625   0.00000  Uiso   1.00
Br289  Br    0.89415   0.67263   0.06531   0.00000  Uiso   1.00
Br290  Br    0.85585   0.57737   0.26803   0.00000  Uiso   1.00
Br291  Br    0.85963   0.56946   0.06680   0.00000  Uiso   1.00
Br292  Br    0.64038   0.93052   0.26654   0.00000  Uiso   1.00
Br293  Br    0.86588   0.94305   0.26006   0.00000  Uiso   1.00
Br294  Br    0.63416   0.55701   0.07324   0.00000  Uiso   1.00
Br295  Br    0.66032   0.59672   0.27084   0.00000  Uiso   1.00
Br296  Br    0.83962   0.90320   0.06249   0.00000  Uiso   1.00
Br297  Br    0.60585   0.82737   0.26802   0.00000  Uiso   1.00
Br298  Br    0.60962   0.81948   0.06679   0.00000  Uiso   1.00
Br299  Br    0.89037   0.68053   0.26654   0.00000  Uiso   1.00
Br300  Br    0.61584   0.69299   0.26010   0.00000  Uiso   1.00
Br301  Br    0.88412   0.80695   0.07327   0.00000  Uiso   1.00
Br302  Br    0.91038   0.84680   0.27084   0.00000  Uiso   1.00
Br303  Br    0.58968   0.65328   0.06249   0.00000  Uiso   1.00
Br304  Br    0.64414   0.92264   0.06531   0.00000  Uiso   1.00
C305   C     0.56097   0.69233   0.16616   0.00000  Uiso   1.00
C306   C     0.50458   0.78931   0.30963   0.00000  Uiso   1.00
C307   C     0.50456   0.78935   0.02515   0.00000  Uiso   1.00
C308   C     0.99544   0.71065   0.30818   0.00000  Uiso   1.00
C309   C     0.74542   0.96069   0.02370   0.00000  Uiso   1.00
C310   C     0.75459   0.53931   0.30963   0.00000  Uiso   1.00
C311   C     0.75457   0.53935   0.02515   0.00000  Uiso   1.00
C312   C     0.74544   0.96065   0.30818   0.00000  Uiso   1.00
C313   C     0.88817   0.64269   0.12410   0.00000  Uiso   1.00
C314   C     0.61184   0.85730   0.20923   0.00000  Uiso   1.00
C315   C     0.61356   0.85403   0.12448   0.00000  Uiso   1.00
C316   C     0.93903   0.80767   0.16717   0.00000  Uiso   1.00
C317   C     0.88643   0.64598   0.20886   0.00000  Uiso   1.00
C318   C     0.61730   0.65155   0.20689   0.00000  Uiso   1.00
C319   C     0.88268   0.84842   0.12646   0.00000  Uiso   1.00
C320   C     0.89372   0.86448   0.20920   0.00000  Uiso   1.00
C321   C     0.60631   0.63555   0.12413   0.00000  Uiso   1.00
C322   C     0.63816   0.89270   0.12411   0.00000  Uiso   1.00
C323   C     0.86184   0.60730   0.20923   0.00000  Uiso   1.00
C324   C     0.86357   0.60402   0.12448   0.00000  Uiso   1.00
C325   C     0.63644   0.89598   0.20886   0.00000  Uiso   1.00
C326   C     0.86732   0.90158   0.20687   0.00000  Uiso   1.00
C327   C     0.93843   0.69308   0.16657   0.00000  Uiso   1.00
C328   C     0.63270   0.59844   0.12645   0.00000  Uiso   1.00
C329   C     0.64369   0.61445   0.20921   0.00000  Uiso   1.00
C330   C     0.85628   0.88552   0.12413   0.00000  Uiso   1.00
C331   C     0.59713   0.83845   0.16693   0.00000  Uiso   1.00
C332   C     0.90287   0.66155   0.16640   0.00000  Uiso   1.00
C333   C     0.90396   0.83960   0.16812   0.00000  Uiso   1.00
C334   C     0.59604   0.66040   0.16522   0.00000  Uiso   1.00
C335   C     0.84713   0.58845   0.16694   0.00000  Uiso   1.00
C336   C     0.65287   0.91155   0.16640   0.00000  Uiso   1.00
C337   C     0.65396   0.58960   0.16812   0.00000  Uiso   1.00
C338   C     0.56157   0.80692   0.16677   0.00000  Uiso   1.00
C339   C     0.84604   0.91040   0.16521   0.00000  Uiso   1.00
C340   C     0.81097   0.94233   0.16616   0.00000  Uiso   1.00
C341   C     0.68903   0.55767   0.16717   0.00000  Uiso   1.00
C342   C     0.68843   0.94308   0.16657   0.00000  Uiso   1.00
C343   C     0.81157   0.55692   0.16677   0.00000  Uiso   1.00
C344   C     0.99542   0.71069   0.02370   0.00000  Uiso   1.00
Cu345  Cu    0.50000   0.75000   0.21355   0.00000  Uiso   1.00
Cu346  Cu    0.50000   0.75000   0.11978   0.00000  Uiso   1.00
Cu347  Cu    0.75000   0.50000   0.21355   0.00000  Uiso   1.00
Cu348  Cu    0.75000   0.50000   0.11978   0.00000  Uiso   1.00
H349   H     0.50032   0.67148   0.07604   0.00000  Uiso   1.00
H350   H     0.99970   0.82852   0.25729   0.00000  Uiso   1.00
H351   H     0.99903   0.82944   0.07864   0.00000  Uiso   1.00
H352   H     0.50097   0.67055   0.25470   0.00000  Uiso   1.00
H353   H     0.75030   0.92148   0.07605   0.00000  Uiso   1.00
H354   H     0.74968   0.57852   0.25729   0.00000  Uiso   1.00
H355   H     0.74902   0.57945   0.07863   0.00000  Uiso   1.00
H356   H     0.75097   0.92056   0.25470   0.00000  Uiso   1.00
N357   N     0.50000   0.75000   0.28402   0.00000  Uiso   1.00
N358   N     0.50000   0.75000   0.04931   0.00000  Uiso   1.00
N359   N     0.75000   0.50000   0.28402   0.00000  Uiso   1.00
N360   N     0.75000   0.50000   0.04931   0.00000  Uiso   1.00
O361   O     0.54509   0.70491   0.20625   0.00000  Uiso   1.00
O362   O     0.70492   0.54509   0.12709   0.00000  Uiso   1.00
O363   O     0.70492   0.54509   0.20625   0.00000  Uiso   1.00
O364   O     0.79509   0.95491   0.12709   0.00000  Uiso   1.00
O365   O     0.70492   0.95491   0.12709   0.00000  Uiso   1.00
O366   O     0.79509   0.54509   0.20625   0.00000  Uiso   1.00
O367   O     0.79509   0.54509   0.12709   0.00000  Uiso   1.00
O368   O     0.70492   0.95491   0.20625   0.00000  Uiso   1.00
O369   O     0.99096   0.66936   0.04386   0.00000  Uiso   1.00
O370   O     0.50903   0.83064   0.28947   0.00000  Uiso   1.00
O371   O     0.50928   0.83081   0.04671   0.00000  Uiso   1.00
O372   O     0.95492   0.79509   0.12709   0.00000  Uiso   1.00
O373   O     0.99070   0.66919   0.28663   0.00000  Uiso   1.00
O374   O     0.74097   0.91936   0.04386   0.00000  Uiso   1.00
O375   O     0.75904   0.58064   0.28947   0.00000  Uiso   1.00
O376   O     0.75932   0.58080   0.04671   0.00000  Uiso   1.00
O377   O     0.74071   0.91919   0.28663   0.00000  Uiso   1.00
O378   O     0.95492   0.79509   0.20625   0.00000  Uiso   1.00
O379   O     0.54509   0.70491   0.12709   0.00000  Uiso   1.00
O380   O     0.95492   0.70491   0.12709   0.00000  Uiso   1.00
O381   O     0.54509   0.79509   0.20625   0.00000  Uiso   1.00
O382   O     0.54509   0.79509   0.12709   0.00000  Uiso   1.00
O383   O     0.95492   0.70491   0.20625   0.00000  Uiso   1.00
O384   O     0.79509   0.95491   0.20625   0.00000  Uiso   1.00
Br385  Br    0.39415   0.17263   0.39864   0.00000  Uiso   1.00
Br386  Br    0.35585   0.07737   0.60136   0.00000  Uiso   1.00
Br387  Br    0.35963   0.06946   0.40013   0.00000  Uiso   1.00
Br388  Br    0.14038   0.43052   0.59988   0.00000  Uiso   1.00
Br389  Br    0.36588   0.44305   0.59339   0.00000  Uiso   1.00
Br390  Br    0.13416   0.05701   0.40657   0.00000  Uiso   1.00
Br391  Br    0.16032   0.09672   0.60418   0.00000  Uiso   1.00
Br392  Br    0.33962   0.40320   0.39583   0.00000  Uiso   1.00
Br393  Br    0.10585   0.32737   0.60135   0.00000  Uiso   1.00
Br394  Br    0.10962   0.31948   0.40012   0.00000  Uiso   1.00
Br395  Br    0.39037   0.18053   0.59987   0.00000  Uiso   1.00
Br396  Br    0.11584   0.19299   0.59343   0.00000  Uiso   1.00
Br397  Br    0.38412   0.30695   0.40661   0.00000  Uiso   1.00
Br398  Br    0.41038   0.34680   0.60418   0.00000  Uiso   1.00
Br399  Br    0.08968   0.15328   0.39582   0.00000  Uiso   1.00
Br400  Br    0.14414   0.42264   0.39865   0.00000  Uiso   1.00
C401   C     0.06097   0.19233   0.49950   0.00000  Uiso   1.00
C402   C     0.00458   0.28931   0.64297   0.00000  Uiso   1.00
C403   C     0.00456   0.28935   0.35849   0.00000  Uiso   1.00
C404   C     0.49544   0.21065   0.64151   0.00000  Uiso   1.00
C405   C     0.24542   0.46069   0.35703   0.00000  Uiso   1.00
C406   C     0.25459   0.03931   0.64297   0.00000  Uiso   1.00
C407   C     0.25457   0.03935   0.35849   0.00000  Uiso   1.00
C408   C     0.24544   0.46065   0.64151   0.00000  Uiso   1.00
C409   C     0.38817   0.14269   0.45744   0.00000  Uiso   1.00
C410   C     0.11184   0.35730   0.54256   0.00000  Uiso   1.00
C411   C     0.11356   0.35403   0.45781   0.00000  Uiso   1.00
C412   C     0.43903   0.30767   0.50050   0.00000  Uiso   1.00
C413   C     0.38643   0.14598   0.54219   0.00000  Uiso   1.00
C414   C     0.11730   0.15155   0.54022   0.00000  Uiso   1.00
C415   C     0.38268   0.34842   0.45979   0.00000  Uiso   1.00
C416   C     0.39372   0.36448   0.54253   0.00000  Uiso   1.00
C417   C     0.10631   0.13555   0.45746   0.00000  Uiso   1.00
C418   C     0.13816   0.39270   0.45744   0.00000  Uiso   1.00
C419   C     0.36184   0.10730   0.54256   0.00000  Uiso   1.00
C420   C     0.36357   0.10402   0.45781   0.00000  Uiso   1.00
C421   C     0.13644   0.39598   0.54219   0.00000  Uiso   1.00
C422   C     0.36732   0.40158   0.54021   0.00000  Uiso   1.00
C423   C     0.43843   0.19308   0.49990   0.00000  Uiso   1.00
C424   C     0.13270   0.09844   0.45978   0.00000  Uiso   1.00
C425   C     0.14369   0.11445   0.54254   0.00000  Uiso   1.00
C426   C     0.35628   0.38552   0.45747   0.00000  Uiso   1.00
C427   C     0.09713   0.33845   0.50027   0.00000  Uiso   1.00
C428   C     0.40287   0.16155   0.49973   0.00000  Uiso   1.00
C429   C     0.40396   0.33960   0.50145   0.00000  Uiso   1.00
C430   C     0.09604   0.16040   0.49855   0.00000  Uiso   1.00
C431   C     0.34713   0.08845   0.50027   0.00000  Uiso   1.00
C432   C     0.15287   0.41155   0.49973   0.00000  Uiso   1.00
C433   C     0.15396   0.08960   0.50145   0.00000  Uiso   1.00
C434   C     0.06157   0.30692   0.50010   0.00000  Uiso   1.00
C435   C     0.34604   0.41040   0.49855   0.00000  Uiso   1.00
C436   C     0.31097   0.44233   0.49950   0.00000  Uiso   1.00
C437   C     0.18903   0.05767   0.50050   0.00000  Uiso   1.00
C438   C     0.18843   0.44308   0.49990   0.00000  Uiso   1.00
C439   C     0.31157   0.05692   0.50010   0.00000  Uiso   1.00
C440   C     0.49542   0.21069   0.35703   0.00000  Uiso   1.00
Cu441  Cu    0.00000   0.25000   0.54689   0.00000  Uiso   1.00
Cu442  Cu    0.00000   0.25000   0.45311   0.00000  Uiso   1.00
Cu443  Cu    0.25000  -0.00000   0.54689   0.00000  Uiso   1.00
Cu444  Cu    0.25000  -0.00000   0.45311   0.00000  Uiso   1.00
H445   H     0.00032   0.17148   0.40938   0.00000  Uiso   1.00
H446   H     0.49970   0.32852   0.59062   0.00000  Uiso   1.00
H447   H     0.49903   0.32944   0.41197   0.00000  Uiso   1.00
H448   H     0.00097   0.17055   0.58804   0.00000  Uiso   1.00
H449   H     0.25030   0.42148   0.40938   0.00000  Uiso   1.00
H450   H     0.24968   0.07852   0.59062   0.00000  Uiso   1.00
H451   H     0.24902   0.07945   0.41196   0.00000  Uiso   1.00
H452   H     0.25097   0.42056   0.58803   0.00000  Uiso   1.00
N453   N     0.00000   0.25000   0.61736   0.00000  Uiso   1.00
N454   N     0.00000   0.25000   0.38264   0.00000  Uiso   1.00
N455   N     0.25000  -0.00000   0.61736   0.00000  Uiso   1.00
N456   N     0.25000  -0.00000   0.38264   0.00000  Uiso   1.00
O457   O     0.04509   0.20491   0.53958   0.00000  Uiso   1.00
O458   O     0.20492   0.04509   0.46042   0.00000  Uiso   1.00
O459   O     0.20492   0.04509   0.53958   0.00000  Uiso   1.00
O460   O     0.29509   0.45491   0.46042   0.00000  Uiso   1.00
O461   O     0.20492   0.45491   0.46042   0.00000  Uiso   1.00
O462   O     0.29509   0.04509   0.53958   0.00000  Uiso   1.00
O463   O     0.29509   0.04509   0.46042   0.00000  Uiso   1.00
O464   O     0.20492   0.45491   0.53958   0.00000  Uiso   1.00
O465   O     0.49096   0.16936   0.37720   0.00000  Uiso   1.00
O466   O     0.00903   0.33064   0.62281   0.00000  Uiso   1.00
O467   O     0.00928   0.33081   0.38004   0.00000  Uiso   1.00
O468   O     0.45492   0.29509   0.46042   0.00000  Uiso   1.00
O469   O     0.49070   0.16919   0.61996   0.00000  Uiso   1.00
O470   O     0.24097   0.41936   0.37720   0.00000  Uiso   1.00
O471   O     0.25904   0.08064   0.62280   0.00000  Uiso   1.00
O472   O     0.25932   0.08080   0.38004   0.00000  Uiso   1.00
O473   O     0.24071   0.41919   0.61996   0.00000  Uiso   1.00
O474   O     0.45492   0.29509   0.53958   0.00000  Uiso   1.00
O475   O     0.04509   0.20491   0.46042   0.00000  Uiso   1.00
O476   O     0.45492   0.20491   0.46042   0.00000  Uiso   1.00
O477   O     0.04509   0.29509   0.53958   0.00000  Uiso   1.00
O478   O     0.04509   0.29509   0.46042   0.00000  Uiso   1.00
O479   O     0.45492   0.20491   0.53958   0.00000  Uiso   1.00
O480   O     0.29509   0.45491   0.53958   0.00000  Uiso   1.00
Br481  Br    0.89415   0.17263   0.39864   0.00000  Uiso   1.00
Br482  Br    0.85585   0.07737   0.60136   0.00000  Uiso   1.00
Br483  Br    0.85963   0.06946   0.40013   0.00000  Uiso   1.00
Br484  Br    0.64038   0.43052   0.59988   0.00000  Uiso   1.00
Br485  Br    0.86588   0.44305   0.59339   0.00000  Uiso   1.00
Br486  Br    0.63416   0.05701   0.40657   0.00000  Uiso   1.00
Br487  Br    0.66032   0.09672   0.60418   0.00000  Uiso   1.00
Br488  Br    0.83962   0.40320   0.39583   0.00000  Uiso   1.00
Br489  Br    0.60585   0.32737   0.60135   0.00000  Uiso   1.00
Br490  Br    0.60962   0.31948   0.40012   0.00000  Uiso   1.00
Br491  Br    0.89037   0.18053   0.59987   0.00000  Uiso   1.00
Br492  Br    0.61584   0.19299   0.59343   0.00000  Uiso   1.00
Br493  Br    0.88412   0.30695   0.40661   0.00000  Uiso   1.00
Br494  Br    0.91038   0.34680   0.60418   0.00000  Uiso   1.00
Br495  Br    0.58968   0.15328   0.39582   0.00000  Uiso   1.00
Br496  Br    0.64414   0.42264   0.39865   0.00000  Uiso   1.00
C497   C     0.56097   0.19233   0.49950   0.00000  Uiso   1.00
C498   C     0.50458   0.28931   0.64297   0.00000  Uiso   1.00
C499   C     0.50456   0.28935   0.35849   0.00000  Uiso   1.00
C500   C     0.99544   0.21065   0.64151   0.00000  Uiso   1.00
C501   C     0.74542   0.46069   0.35703   0.00000  Uiso   1.00
C502   C     0.75459   0.03931   0.64297   0.00000  Uiso   1.00
C503   C     0.75457   0.03935   0.35849   0.00000  Uiso   1.00
C504   C     0.74544   0.46065   0.64151   0.00000  Uiso   1.00
C505   C     0.88817   0.14269   0.45744   0.00000  Uiso   1.00
C506   C     0.61184   0.35730   0.54256   0.00000  Uiso   1.00
C507   C     0.61356   0.35403   0.45781   0.00000  Uiso   1.00
C508   C     0.93903   0.30767   0.50050   0.00000  Uiso   1.00
C509   C     0.88643   0.14598   0.54219   0.00000  Uiso   1.00
C510   C     0.61730   0.15155   0.54022   0.00000  Uiso   1.00
C511   C     0.88268   0.34842   0.45979   0.00000  Uiso   1.00
C512   C     0.89372   0.36448   0.54253   0.00000  Uiso   1.00
C513   C     0.60631   0.13555   0.45746   0.00000  Uiso   1.00
C514   C     0.63816   0.39270   0.45744   0.00000  Uiso   1.00
C515   C     0.86184   0.10730   0.54256   0.00000  Uiso   1.00
C516   C     0.86357   0.10402   0.45781   0.00000  Uiso   1.00
C517   C     0.63644   0.39598   0.54219   0.00000  Uiso   1.00
C518   C     0.86732   0.40158   0.54021   0.00000  Uiso   1.00
C519   C     0.93843   0.19308   0.49990   0.00000  Uiso   1.00
C520   C     0.63270   0.09844   0.45978   0.00000  Uiso   1.00
C521   C     0.64369   0.11445   0.54254   0.00000  Uiso   1.00
C522   C     0.85628   0.38552   0.45747   0.00000  Uiso   1.00
C523   C     0.59713   0.33845   0.50027   0.00000  Uiso   1.00
C524   C     0.90287   0.16155   0.49973   0.00000  Uiso   1.00
C525   C     0.90396   0.33960   0.50145   0.00000  Uiso   1.00
C526   C     0.59604   0.16040   0.49855   0.00000  Uiso   1.00
C527   C     0.84713   0.08845   0.50027   0.00000  Uiso   1.00
C528   C     0.65287   0.41155   0.49973   0.00000  Uiso   1.00
C529   C     0.65396   0.08960   0.50145   0.00000  Uiso   1.00
C530   C     0.56157   0.30692   0.50010   0.00000  Uiso   1.00
C531   C     0.84604   0.41040   0.49855   0.00000  Uiso   1.00
C532   C     0.81097   0.44233   0.49950   0.00000  Uiso   1.00
C533   C     0.68903   0.05767   0.50050   0.00000  Uiso   1.00
C534   C     0.68843   0.44308   0.49990   0.00000  Uiso   1.00
C535   C     0.81157   0.05692   0.50010   0.00000  Uiso   1.00
C536   C     0.99542   0.21069   0.35703   0.00000  Uiso   1.00
Cu537  Cu    0.50000   0.25000   0.54689   0.00000  Uiso   1.00
Cu538  Cu    0.50000   0.25000   0.45311   0.00000  Uiso   1.00
Cu539  Cu    0.75000  -0.00000   0.54689   0.00000  Uiso   1.00
Cu540  Cu    0.75000  -0.00000   0.45311   0.00000  Uiso   1.00
H541   H     0.50032   0.17148   0.40938   0.00000  Uiso   1.00
H542   H     0.99970   0.32852   0.59062   0.00000  Uiso   1.00
H543   H     0.99903   0.32944   0.41197   0.00000  Uiso   1.00
H544   H     0.50097   0.17055   0.58804   0.00000  Uiso   1.00
H545   H     0.75030   0.42148   0.40938   0.00000  Uiso   1.00
H546   H     0.74968   0.07852   0.59062   0.00000  Uiso   1.00
H547   H     0.74902   0.07945   0.41196   0.00000  Uiso   1.00
H548   H     0.75097   0.42056   0.58803   0.00000  Uiso   1.00
N549   N     0.50000   0.25000   0.61736   0.00000  Uiso   1.00
N550   N     0.50000   0.25000   0.38264   0.00000  Uiso   1.00
N551   N     0.75000  -0.00000   0.61736   0.00000  Uiso   1.00
N552   N     0.75000  -0.00000   0.38264   0.00000  Uiso   1.00
O553   O     0.54509   0.20491   0.53958   0.00000  Uiso   1.00
O554   O     0.70492   0.04509   0.46042   0.00000  Uiso   1.00
O555   O     0.70492   0.04509   0.53958   0.00000  Uiso   1.00
O556   O     0.79509   0.45491   0.46042   0.00000  Uiso   1.00
O557   O     0.70492   0.45491   0.46042   0.00000  Uiso   1.00
O558   O     0.79509   0.04509   0.53958   0.00000  Uiso   1.00
O559   O     0.79509   0.04509   0.46042   0.00000  Uiso   1.00
O560   O     0.70492   0.45491   0.53958   0.00000  Uiso   1.00
O561   O     0.99096   0.16936   0.37720   0.00000  Uiso   1.00
O562   O     0.50903   0.33064   0.62281   0.00000  Uiso   1.00
O563   O     0.50928   0.33081   0.38004   0.00000  Uiso   1.00
O564   O     0.95492   0.29509   0.46042   0.00000  Uiso   1.00
O565   O     0.99070   0.16919   0.61996   0.00000  Uiso   1.00
O566   O     0.74097   0.41936   0.37720   0.00000  Uiso   1.00
O567   O     0.75904   0.08064   0.62280   0.00000  Uiso   1.00
O568   O     0.75932   0.08080   0.38004   0.00000  Uiso   1.00
O569   O     0.74071   0.41919   0.61996   0.00000  Uiso   1.00
O570   O     0.95492   0.29509   0.53958   0.00000  Uiso   1.00
O571   O     0.54509   0.20491   0.46042   0.00000  Uiso   1.00
O572   O     0.95492   0.20491   0.46042   0.00000  Uiso   1.00
O573   O     0.54509   0.29509   0.53958   0.00000  Uiso   1.00
O574   O     0.54509   0.29509   0.46042   0.00000  Uiso   1.00
O575   O     0.95492   0.20491   0.53958   0.00000  Uiso   1.00
O576   O     0.79509   0.45491   0.53958   0.00000  Uiso   1.00
Br577  Br    0.39415   0.67263   0.39864   0.00000  Uiso   1.00
Br578  Br    0.35585   0.57737   0.60136   0.00000  Uiso   1.00
Br579  Br    0.35963   0.56946   0.40013   0.00000  Uiso   1.00
Br580  Br    0.14038   0.93052   0.59988   0.00000  Uiso   1.00
Br581  Br    0.36588   0.94305   0.59339   0.00000  Uiso   1.00
Br582  Br    0.13416   0.55701   0.40657   0.00000  Uiso   1.00
Br583  Br    0.16032   0.59672   0.60418   0.00000  Uiso   1.00
Br584  Br    0.33962   0.90320   0.39583   0.00000  Uiso   1.00
Br585  Br    0.10585   0.82737   0.60135   0.00000  Uiso   1.00
Br586  Br    0.10962   0.81948   0.40012   0.00000  Uiso   1.00
Br587  Br    0.39037   0.68053   0.59987   0.00000  Uiso   1.00
Br588  Br    0.11584   0.69299   0.59343   0.00000  Uiso   1.00
Br589  Br    0.38412   0.80695   0.40661   0.00000  Uiso   1.00
Br590  Br    0.41038   0.84680   0.60418   0.00000  Uiso   1.00
Br591  Br    0.08968   0.65328   0.39582   0.00000  Uiso   1.00
Br592  Br    0.14414   0.92264   0.39865   0.00000  Uiso   1.00
C593   C     0.06097   0.69233   0.49950   0.00000  Uiso   1.00
C594   C     0.00458   0.78931   0.64297   0.00000  Uiso   1.00
C595   C     0.00456   0.78935   0.35849   0.00000  Uiso   1.00
C596   C     0.49544   0.71065   0.64151   0.00000  Uiso   1.00
C597   C     0.24542   0.96069   0.35703   0.00000  Uiso   1.00
C598   C     0.25459   0.53931   0.64297   0.00000  Uiso   1.00
C599   C     0.25457   0.53935   0.35849   0.00000  Uiso   1.00
C600   C     0.24544   0.96065   0.64151   0.00000  Uiso   1.00
C601   C     0.38817   0.64269   0.45744   0.00000  Uiso   1.00
C602   C     0.11184   0.85730   0.54256   0.00000  Uiso   1.00
C603   C     0.11356   0.85403   0.45781   0.00000  Uiso   1.00
C604   C     0.43903   0.80767   0.50050   0.00000  Uiso   1.00
C605   C     0.38643   0.64598   0.54219   0.00000  Uiso   1.00
C606   C     0.11730   0.65155   0.54022   0.00000  Uiso   1.00
C607   C     0.38268   0.84842   0.45979   0.00000  Uiso   1.00
C608   C     0.39372   0.86448   0.54253   0.00000  Uiso   1.00
C609   C     0.10631   0.63555   0.45746   0.00000  Uiso   1.00
C610   C     0.13816   0.89270   0.45744   0.00000  Uiso   1.00
C611   C     0.36184   0.60730   0.54256   0.00000  Uiso   1.00
C612   C     0.36357   0.60402   0.45781   0.00000  Uiso   1.00
C613   C     0.13644   0.89598   0.54219   0.00000  Uiso   1.00
C614   C     0.36732   0.90158   0.54021   0.00000  Uiso   1.00
C615   C     0.43843   0.69308   0.49990   0.00000  Uiso   1.00
C616   C     0.13270   0.59844   0.45978   0.00000  Uiso   1.00
C617   C     0.14369   0.61445   0.54254   0.00000  Uiso   1.00
C618   C     0.35628   0.88552   0.45747   0.00000  Uiso   1.00
C619   C     0.09713   0.83845   0.50027   0.00000  Uiso   1.00
C620   C     0.40287   0.66155   0.49973   0.00000  Uiso   1.00
C621   C     0.40396   0.83960   0.50145   0.00000  Uiso   1.00
C622   C     0.09604   0.66040   0.49855   0.00000  Uiso   1.00
C623   C     0.34713   0.58845   0.50027   0.00000  Uiso   1.00
C624   C     0.15287   0.91155   0.49973   0.00000  Uiso   1.00
C625   C     0.15396   0.58960   0.50145   0.00000  Uiso   1.00
C626   C     0.06157   0.80692   0.50010   0.00000  Uiso   1.00
C627   C     0.34604   0.91040   0.49855   0.00000  Uiso   1.00
C628   C     0.31097   0.94233   0.49950   0.00000  Uiso   1.00
C629   C     0.18903   0.55767   0.50050   0.00000  Uiso   1.00
C630   C     0.18843   0.94308   0.49990   0.00000  Uiso   1.00
C631   C     0.31157   0.55692   0.50010   0.00000  Uiso   1.00
C632   C     0.49542   0.71069   0.35703   0.00000  Uiso   1.00
Cu633  Cu    0.00000   0.75000   0.54689   0.00000  Uiso   1.00
Cu634  Cu    0.00000   0.75000   0.45311   0.00000  Uiso   1.00
Cu635  Cu    0.25000   0.50000   0.54689   0.00000  Uiso   1.00
Cu636  Cu    0.25000   0.50000   0.45311   0.00000  Uiso   1.00
H637   H     0.00032   0.67148   0.40938   0.00000  Uiso   1.00
H638   H     0.49970   0.82852   0.59062   0.00000  Uiso   1.00
H639   H     0.49903   0.82944   0.41197   0.00000  Uiso   1.00
H640   H     0.00097   0.67055   0.58804   0.00000  Uiso   1.00
H641   H     0.25030   0.92148   0.40938   0.00000  Uiso   1.00
H642   H     0.24968   0.57852   0.59062   0.00000  Uiso   1.00
H643   H     0.24902   0.57945   0.41196   0.00000  Uiso   1.00
H644   H     0.25097   0.92056   0.58803   0.00000  Uiso   1.00
N645   N     0.00000   0.75000   0.61736   0.00000  Uiso   1.00
N646   N     0.00000   0.75000   0.38264   0.00000  Uiso   1.00
N647   N     0.25000   0.50000   0.61736   0.00000  Uiso   1.00
N648   N     0.25000   0.50000   0.38264   0.00000  Uiso   1.00
O649   O     0.04509   0.70491   0.53958   0.00000  Uiso   1.00
O650   O     0.20492   0.54509   0.46042   0.00000  Uiso   1.00
O651   O     0.20492   0.54509   0.53958   0.00000  Uiso   1.00
O652   O     0.29509   0.95491   0.46042   0.00000  Uiso   1.00
O653   O     0.20492   0.95491   0.46042   0.00000  Uiso   1.00
O654   O     0.29509   0.54509   0.53958   0.00000  Uiso   1.00
O655   O     0.29509   0.54509   0.46042   0.00000  Uiso   1.00
O656   O     0.20492   0.95491   0.53958   0.00000  Uiso   1.00
O657   O     0.49096   0.66936   0.37720   0.00000  Uiso   1.00
O658   O     0.00903   0.83064   0.62281   0.00000  Uiso   1.00
O659   O     0.00928   0.83081   0.38004   0.00000  Uiso   1.00
O660   O     0.45492   0.79509   0.46042   0.00000  Uiso   1.00
O661   O     0.49070   0.66919   0.61996   0.00000  Uiso   1.00
O662   O     0.24097   0.91936   0.37720   0.00000  Uiso   1.00
O663   O     0.25904   0.58064   0.62280   0.00000  Uiso   1.00
O664   O     0.25932   0.58080   0.38004   0.00000  Uiso   1.00
O665   O     0.24071   0.91919   0.61996   0.00000  Uiso   1.00
O666   O     0.45492   0.79509   0.53958   0.00000  Uiso   1.00
O667   O     0.04509   0.70491   0.46042   0.00000  Uiso   1.00
O668   O     0.45492   0.70491   0.46042   0.00000  Uiso   1.00
O669   O     0.04509   0.79509   0.53958   0.00000  Uiso   1.00
O670   O     0.04509   0.79509   0.46042   0.00000  Uiso   1.00
O671   O     0.45492   0.70491   0.53958   0.00000  Uiso   1.00
O672   O     0.29509   0.95491   0.53958   0.00000  Uiso   1.00
Br673  Br    0.89415   0.67263   0.39864   0.00000  Uiso   1.00
Br674  Br    0.85585   0.57737   0.60136   0.00000  Uiso   1.00
Br675  Br    0.85963   0.56946   0.40013   0.00000  Uiso   1.00
Br676  Br    0.64038   0.93052   0.59988   0.00000  Uiso   1.00
Br677  Br    0.86588   0.94305   0.59339   0.00000  Uiso   1.00
Br678  Br    0.63416   0.55701   0.40657   0.00000  Uiso   1.00
Br679  Br    0.66032   0.59672   0.60418   0.00000  Uiso   1.00
Br680  Br    0.83962   0.90320   0.39583   0.00000  Uiso   1.00
Br681  Br    0.60585   0.82737   0.60135   0.00000  Uiso   1.00
Br682  Br    0.60962   0.81948   0.40012   0.00000  Uiso   1.00
Br683  Br    0.89037   0.68053   0.59987   0.00000  Uiso   1.00
Br684  Br    0.61584   0.69299   0.59343   0.00000  Uiso   1.00
Br685  Br    0.88412   0.80695   0.40661   0.00000  Uiso   1.00
Br686  Br    0.91038   0.84680   0.60418   0.00000  Uiso   1.00
Br687  Br    0.58968   0.65328   0.39582   0.00000  Uiso   1.00
Br688  Br    0.64414   0.92264   0.39865   0.00000  Uiso   1.00
C689   C     0.56097   0.69233   0.49950   0.00000  Uiso   1.00
C690   C     0.50458   0.78931   0.64297   0.00000  Uiso   1.00
C691   C     0.50456   0.78935   0.35849   0.00000  Uiso   1.00
C692   C     0.99544   0.71065   0.64151   0.00000  Uiso   1.00
C693   C     0.74542   0.96069   0.35703   0.00000  Uiso   1.00
C694   C     0.75459   0.53931   0.64297   0.00000  Uiso   1.00
C695   C     0.75457   0.53935   0.35849   0.00000  Uiso   1.00
C696   C     0.74544   0.96065   0.64151   0.00000  Uiso   1.00
C697   C     0.88817   0.64269   0.45744   0.00000  Uiso   1.00
C698   C     0.61184   0.85730   0.54256   0.00000  Uiso   1.00
C699   C     0.61356   0.85403   0.45781   0.00000  Uiso   1.00
C700   C     0.93903   0.80767   0.50050   0.00000  Uiso   1.00
C701   C     0.88643   0.64598   0.54219   0.00000  Uiso   1.00
C702   C     0.61730   0.65155   0.54022   0.00000  Uiso   1.00
C703   C     0.88268   0.84842   0.45979   0.00000  Uiso   1.00
C704   C     0.89372   0.86448   0.54253   0.00000  Uiso   1.00
C705   C     0.60631   0.63555   0.45746   0.00000  Uiso   1.00
C706   C     0.63816   0.89270   0.45744   0.00000  Uiso   1.00
C707   C     0.86184   0.60730   0.54256   0.00000  Uiso   1.00
C708   C     0.86357   0.60402   0.45781   0.00000  Uiso   1.00
C709   C     0.63644   0.89598   0.54219   0.00000  Uiso   1.00
C710   C     0.86732   0.90158   0.54021   0.00000  Uiso   1.00
C711   C     0.93843   0.69308   0.49990   0.00000  Uiso   1.00
C712   C     0.63270   0.59844   0.45978   0.00000  Uiso   1.00
C713   C     0.64369   0.61445   0.54254   0.00000  Uiso   1.00
C714   C     0.85628   0.88552   0.45747   0.00000  Uiso   1.00
C715   C     0.59713   0.83845   0.50027   0.00000  Uiso   1.00
C716   C     0.90287   0.66155   0.49973   0.00000  Uiso   1.00
C717   C     0.90396   0.83960   0.50145   0.00000  Uiso   1.00
C718   C     0.59604   0.66040   0.49855   0.00000  Uiso   1.00
C719   C     0.84713   0.58845   0.50027   0.00000  Uiso   1.00
C720   C     0.65287   0.91155   0.49973   0.00000  Uiso   1.00
C721   C     0.65396   0.58960   0.50145   0.00000  Uiso   1.00
C722   C     0.56157   0.80692   0.50010   0.00000  Uiso   1.00
C723   C     0.84604   0.91040   0.49855   0.00000  Uiso   1.00
C724   C     0.81097   0.94233   0.49950   0.00000  Uiso   1.00
C725   C     0.68903   0.55767   0.50050   0.00000  Uiso   1.00
C726   C     0.68843   0.94308   0.49990   0.00000  Uiso   1.00
C727   C     0.81157   0.55692   0.50010   0.00000  Uiso   1.00
C728   C     0.99542   0.71069   0.35703   0.00000  Uiso   1.00
Cu729  Cu    0.50000   0.75000   0.54689   0.00000  Uiso   1.00
Cu730  Cu    0.50000   0.75000   0.45311   0.00000  Uiso   1.00
Cu731  Cu    0.75000   0.50000   0.54689   0.00000  Uiso   1.00
Cu732  Cu    0.75000   0.50000   0.45311   0.00000  Uiso   1.00
H733   H     0.50032   0.67148   0.40938   0.00000  Uiso   1.00
H734   H     0.99970   0.82852   0.59062   0.00000  Uiso   1.00
H735   H     0.99903   0.82944   0.41197   0.00000  Uiso   1.00
H736   H     0.50097   0.67055   0.58804   0.00000  Uiso   1.00
H737   H     0.75030   0.92148   0.40938   0.00000  Uiso   1.00
H738   H     0.74968   0.57852   0.59062   0.00000  Uiso   1.00
H739   H     0.74902   0.57945   0.41196   0.00000  Uiso   1.00
H740   H     0.75097   0.92056   0.58803   0.00000  Uiso   1.00
N741   N     0.50000   0.75000   0.61736   0.00000  Uiso   1.00
N742   N     0.50000   0.75000   0.38264   0.00000  Uiso   1.00
N743   N     0.75000   0.50000   0.61736   0.00000  Uiso   1.00
N744   N     0.75000   0.50000   0.38264   0.00000  Uiso   1.00
O745   O     0.54509   0.70491   0.53958   0.00000  Uiso   1.00
O746   O     0.70492   0.54509   0.46042   0.00000  Uiso   1.00
O747   O     0.70492   0.54509   0.53958   0.00000  Uiso   1.00
O748   O     0.79509   0.95491   0.46042   0.00000  Uiso   1.00
O749   O     0.70492   0.95491   0.46042   0.00000  Uiso   1.00
O750   O     0.79509   0.54509   0.53958   0.00000  Uiso   1.00
O751   O     0.79509   0.54509   0.46042   0.00000  Uiso   1.00
O752   O     0.70492   0.95491   0.53958   0.00000  Uiso   1.00
O753   O     0.99096   0.66936   0.37720   0.00000  Uiso   1.00
O754   O     0.50903   0.83064   0.62281   0.00000  Uiso   1.00
O755   O     0.50928   0.83081   0.38004   0.00000  Uiso   1.00
O756   O     0.95492   0.79509   0.46042   0.00000  Uiso   1.00
O757   O     0.99070   0.66919   0.61996   0.00000  Uiso   1.00
O758   O     0.74097   0.91936   0.37720   0.00000  Uiso   1.00
O759   O     0.75904   0.58064   0.62280   0.00000  Uiso   1.00
O760   O     0.75932   0.58080   0.38004   0.00000  Uiso   1.00
O761   O     0.74071   0.91919   0.61996   0.00000  Uiso   1.00
O762   O     0.95492   0.79509   0.53958   0.00000  Uiso   1.00
O763   O     0.54509   0.70491   0.46042   0.00000  Uiso   1.00
O764   O     0.95492   0.70491   0.46042   0.00000  Uiso   1.00
O765   O     0.54509   0.79509   0.53958   0.00000  Uiso   1.00
O766   O     0.54509   0.79509   0.46042   0.00000  Uiso   1.00
O767   O     0.95492   0.70491   0.53958   0.00000  Uiso   1.00
O768   O     0.79509   0.95491   0.53958   0.00000  Uiso   1.00
Br769  Br    0.39415   0.17263   0.73197   0.00000  Uiso   1.00
Br770  Br    0.35585   0.07737   0.93469   0.00000  Uiso   1.00
Br771  Br    0.35963   0.06946   0.73346   0.00000  Uiso   1.00
Br772  Br    0.14038   0.43052   0.93321   0.00000  Uiso   1.00
Br773  Br    0.36588   0.44305   0.92673   0.00000  Uiso   1.00
Br774  Br    0.13416   0.05701   0.73990   0.00000  Uiso   1.00
Br775  Br    0.16032   0.09672   0.93751   0.00000  Uiso   1.00
Br776  Br    0.33962   0.40320   0.72916   0.00000  Uiso   1.00
Br777  Br    0.10585   0.32737   0.93469   0.00000  Uiso   1.00
Br778  Br    0.10962   0.31948   0.73346   0.00000  Uiso   1.00
Br779  Br    0.39037   0.18053   0.93321   0.00000  Uiso   1.00
Br780  Br    0.11584   0.19299   0.92676   0.00000  Uiso   1.00
Br781  Br    0.38412   0.30695   0.73994   0.00000  Uiso   1.00
Br782  Br    0.41038   0.34680   0.93751   0.00000  Uiso   1.00
Br783  Br    0.08968   0.15328   0.72916   0.00000  Uiso   1.00
Br784  Br    0.14414   0.42264   0.73198   0.00000  Uiso   1.00
C785   C     0.06097   0.19233   0.83283   0.00000  Uiso   1.00
C786   C     0.00458   0.28931   0.97630   0.00000  Uiso   1.00
C787   C     0.00456   0.28935   0.69182   0.00000  Uiso   1.00
C788   C     0.49544   0.21065   0.97485   0.00000  Uiso   1.00
C789   C     0.24542   0.46069   0.69037   0.00000  Uiso   1.00
C790   C     0.25459   0.03931   0.97630   0.00000  Uiso   1.00
C791   C     0.25457   0.03935   0.69182   0.00000  Uiso   1.00
C792   C     0.24544   0.46065   0.97485   0.00000  Uiso   1.00
C793   C     0.38817   0.14269   0.79077   0.00000  Uiso   1.00
C794   C     0.11184   0.35730   0.87589   0.00000  Uiso   1.00
C795   C     0.11356   0.35403   0.79114   0.00000  Uiso   1.00
C796   C     0.43903   0.30767   0.83384   0.00000  Uiso   1.00
C797   C     0.38643   0.14598   0.87552   0.00000  Uiso   1.00
C798   C     0.11730   0.15155   0.87355   0.00000  Uiso   1.00
C799   C     0.38268   0.34842   0.79313   0.00000  Uiso   1.00
C800   C     0.39372   0.36448   0.87587   0.00000  Uiso   1.00
C801   C     0.10631   0.13555   0.79079   0.00000  Uiso   1.00
C802   C     0.13816   0.39270   0.79077   0.00000  Uiso   1.00
C803   C     0.36184   0.10730   0.87590   0.00000  Uiso   1.00
C804   C     0.36357   0.10402   0.79114   0.00000  Uiso   1.00
C805   C     0.13644   0.39598   0.87552   0.00000  Uiso   1.00
C806   C     0.36732   0.40158   0.87354   0.00000  Uiso   1.00
C807   C     0.43843   0.19308   0.83323   0.00000  Uiso   1.00
C808   C     0.13270   0.09844   0.79311   0.00000  Uiso   1.00
C809   C     0.14369   0.11445   0.87587   0.00000  Uiso   1.00
C810   C     0.35628   0.38552   0.79080   0.00000  Uiso   1.00
C811   C     0.09713   0.33845   0.83360   0.00000  Uiso   1.00
C812   C     0.40287   0.16155   0.83306   0.00000  Uiso   1.00
C813   C     0.40396   0.33960   0.83479   0.00000  Uiso   1.00
C814   C     0.09604   0.16040   0.83188   0.00000  Uiso   1.00
C815   C     0.34713   0.08845   0.83360   0.00000  Uiso   1.00
C816   C     0.15287   0.41155   0.83307   0.00000  Uiso   1.00
C817   C     0.15396   0.08960   0.83478   0.00000  Uiso   1.00
C818   C     0.06157   0.30692   0.83343   0.00000  Uiso   1.00
C819   C     0.34604   0.41040   0.83188   0.00000  Uiso   1.00
C820   C     0.31097   0.44233   0.83283   0.00000  Uiso   1.00
C821   C     0.18903   0.05767   0.83384   0.00000  Uiso   1.00
C822   C     0.18843   0.44308   0.83323   0.00000  Uiso   1.00
C823   C     0.31157   0.05692   0.83343   0.00000  Uiso   1.00
C824   C     0.49542   0.21069   0.69037   0.00000  Uiso   1.00
Cu825  Cu    0.00000   0.25000   0.88022   0.00000  Uiso   1.00
Cu826  Cu    0.00000   0.25000   0.78645   0.00000  Uiso   1.00
Cu827  Cu    0.25000  -0.00000   0.88022   0.00000  Uiso   1.00
Cu828  Cu    0.25000  -0.00000   0.78645   0.00000  Uiso   1.00
H829   H     0.00032   0.17148   0.74271   0.00000  Uiso   1.00
H830   H     0.49970   0.32852   0.92395   0.00000  Uiso   1.00
H831   H     0.49903   0.32944   0.74530   0.00000  Uiso   1.00
H832   H     0.00097   0.17055   0.92137   0.00000  Uiso   1.00
H833   H     0.25030   0.42148   0.74271   0.00000  Uiso   1.00
H834   H     0.24968   0.07852   0.92396   0.00000  Uiso   1.00
H835   H     0.24902   0.07945   0.74529   0.00000  Uiso   1.00
H836   H     0.25097   0.42056   0.92137   0.00000  Uiso   1.00
N837   N     0.00000   0.25000   0.95069   0.00000  Uiso   1.00
N838   N     0.00000   0.25000   0.71598   0.00000  Uiso   1.00
N839   N     0.25000  -0.00000   0.95069   0.00000  Uiso   1.00
N840   N     0.25000  -0.00000   0.71598   0.00000  Uiso   1.00
O841   O     0.04509   0.20491   0.87291   0.00000  Uiso   1.00
O842   O     0.20492   0.04509   0.79375   0.00000  Uiso   1.00
O843   O     0.20492   0.04509   0.87291   0.00000  Uiso   1.00
O844   O     0.29509   0.45491   0.79375   0.00000  Uiso   1.00
O845   O     0.20492   0.45491   0.79375   0.00000  Uiso   1.00
O846   O     0.29509   0.04509   0.87291   0.00000  Uiso   1.00
O847   O     0.29509   0.04509   0.79375   0.00000  Uiso   1.00
O848   O     0.20492   0.45491   0.87291   0.00000  Uiso   1.00
O849   O     0.49096   0.16936   0.71053   0.00000  Uiso   1.00
O850   O     0.00903   0.33064   0.95614   0.00000  Uiso   1.00
O851   O     0.00928   0.33081   0.71337   0.00000  Uiso   1.00
O852   O     0.45492   0.29509   0.79375   0.00000  Uiso   1.00
O853   O     0.49070   0.16919   0.95329   0.00000  Uiso   1.00
O854   O     0.24097   0.41936   0.71053   0.00000  Uiso   1.00
O855   O     0.25904   0.08064   0.95614   0.00000  Uiso   1.00
O856   O     0.25932   0.08080   0.71338   0.00000  Uiso   1.00
O857   O     0.24071   0.41919   0.95329   0.00000  Uiso   1.00
O858   O     0.45492   0.29509   0.87291   0.00000  Uiso   1.00
O859   O     0.04509   0.20491   0.79375   0.00000  Uiso   1.00
O860   O     0.45492   0.20491   0.79375   0.00000  Uiso   1.00
O861   O     0.04509   0.29509   0.87291   0.00000  Uiso   1.00
O862   O     0.04509   0.29509   0.79375   0.00000  Uiso   1.00
O863   O     0.45492   0.20491   0.87291   0.00000  Uiso   1.00
O864   O     0.29509   0.45491   0.87291   0.00000  Uiso   1.00
Br865  Br    0.89415   0.17263   0.73197   0.00000  Uiso   1.00
Br866  Br    0.85585   0.07737   0.93469   0.00000  Uiso   1.00
Br867  Br    0.85963   0.06946   0.73346   0.00000  Uiso   1.00
Br868  Br    0.64038   0.43052   0.93321   0.00000  Uiso   1.00
Br869  Br    0.86588   0.44305   0.92673   0.00000  Uiso   1.00
Br870  Br    0.63416   0.05701   0.73990   0.00000  Uiso   1.00
Br871  Br    0.66032   0.09672   0.93751   0.00000  Uiso   1.00
Br872  Br    0.83962   0.40320   0.72916   0.00000  Uiso   1.00
Br873  Br    0.60585   0.32737   0.93469   0.00000  Uiso   1.00
Br874  Br    0.60962   0.31948   0.73346   0.00000  Uiso   1.00
Br875  Br    0.89037   0.18053   0.93321   0.00000  Uiso   1.00
Br876  Br    0.61584   0.19299   0.92676   0.00000  Uiso   1.00
Br877  Br    0.88412   0.30695   0.73994   0.00000  Uiso   1.00
Br878  Br    0.91038   0.34680   0.93751   0.00000  Uiso   1.00
Br879  Br    0.58968   0.15328   0.72916   0.00000  Uiso   1.00
Br880  Br    0.64414   0.42264   0.73198   0.00000  Uiso   1.00
C881   C     0.56097   0.19233   0.83283   0.00000  Uiso   1.00
C882   C     0.50458   0.28931   0.97630   0.00000  Uiso   1.00
C883   C     0.50456   0.28935   0.69182   0.00000  Uiso   1.00
C884   C     0.99544   0.21065   0.97485   0.00000  Uiso   1.00
C885   C     0.74542   0.46069   0.69037   0.00000  Uiso   1.00
C886   C     0.75459   0.03931   0.97630   0.00000  Uiso   1.00
C887   C     0.75457   0.03935   0.69182   0.00000  Uiso   1.00
C888   C     0.74544   0.46065   0.97485   0.00000  Uiso   1.00
C889   C     0.88817   0.14269   0.79077   0.00000  Uiso   1.00
C890   C     0.61184   0.35730   0.87589   0.00000  Uiso   1.00
C891   C     0.61356   0.35403   0.79114   0.00000  Uiso   1.00
C892   C     0.93903   0.30767   0.83384   0.00000  Uiso   1.00
C893   C     0.88643   0.14598   0.87552   0.00000  Uiso   1.00
C894   C     0.61730   0.15155   0.87355   0.00000  Uiso   1.00
C895   C     0.88268   0.34842   0.79313   0.00000  Uiso   1.00
C896   C     0.89372   0.36448   0.87587   0.00000  Uiso   1.00
C897   C     0.60631   0.13555   0.79079   0.00000  Uiso   1.00
C898   C     0.63816   0.39270   0.79077   0.00000  Uiso   1.00
C899   C     0.86184   0.10730   0.87590   0.00000  Uiso   1.00
C900   C     0.86357   0.10402   0.79114   0.00000  Uiso   1.00
C901   C     0.63644   0.39598   0.87552   0.00000  Uiso   1.00
C902   C     0.86732   0.40158   0.87354   0.00000  Uiso   1.00
C903   C     0.93843   0.19308   0.83323   0.00000  Uiso   1.00
C904   C     0.63270   0.09844   0.79311   0.00000  Uiso   1.00
C905   C     0.64369   0.11445   0.87587   0.00000  Uiso   1.00
C906   C     0.85628   0.38552   0.79080   0.00000  Uiso   1.00
C907   C     0.59713   0.33845   0.83360   0.00000  Uiso   1.00
C908   C     0.90287   0.16155   0.83306   0.00000  Uiso   1.00
C909   C     0.90396   0.33960   0.83479   0.00000  Uiso   1.00
C910   C     0.59604   0.16040   0.83188   0.00000  Uiso   1.00
C911   C     0.84713   0.08845   0.83360   0.00000  Uiso   1.00
C912   C     0.65287   0.41155   0.83307   0.00000  Uiso   1.00
C913   C     0.65396   0.08960   0.83478   0.00000  Uiso   1.00
C914   C     0.56157   0.30692   0.83343   0.00000  Uiso   1.00
C915   C     0.84604   0.41040   0.83188   0.00000  Uiso   1.00
C916   C     0.81097   0.44233   0.83283   0.00000  Uiso   1.00
C917   C     0.68903   0.05767   0.83384   0.00000  Uiso   1.00
C918   C     0.68843   0.44308   0.83323   0.00000  Uiso   1.00
C919   C     0.81157   0.05692   0.83343   0.00000  Uiso   1.00
C920   C     0.99542   0.21069   0.69037   0.00000  Uiso   1.00
Cu921  Cu    0.50000   0.25000   0.88022   0.00000  Uiso   1.00
Cu922  Cu    0.50000   0.25000   0.78645   0.00000  Uiso   1.00
Cu923  Cu    0.75000  -0.00000   0.88022   0.00000  Uiso   1.00
Cu924  Cu    0.75000  -0.00000   0.78645   0.00000  Uiso   1.00
H925   H     0.50032   0.17148   0.74271   0.00000  Uiso   1.00
H926   H     0.99970   0.32852   0.92395   0.00000  Uiso   1.00
H927   H     0.99903   0.32944   0.74530   0.00000  Uiso   1.00
H928   H     0.50097   0.17055   0.92137   0.00000  Uiso   1.00
H929   H     0.75030   0.42148   0.74271   0.00000  Uiso   1.00
H930   H     0.74968   0.07852   0.92396   0.00000  Uiso   1.00
H931   H     0.74902   0.07945   0.74529   0.00000  Uiso   1.00
H932   H     0.75097   0.42056   0.92137   0.00000  Uiso   1.00
N933   N     0.50000   0.25000   0.95069   0.00000  Uiso   1.00
N934   N     0.50000   0.25000   0.71598   0.00000  Uiso   1.00
N935   N     0.75000  -0.00000   0.95069   0.00000  Uiso   1.00
N936   N     0.75000  -0.00000   0.71598   0.00000  Uiso   1.00
O937   O     0.54509   0.20491   0.87291   0.00000  Uiso   1.00
O938   O     0.70492   0.04509   0.79375   0.00000  Uiso   1.00
O939   O     0.70492   0.04509   0.87291   0.00000  Uiso   1.00
O940   O     0.79509   0.45491   0.79375   0.00000  Uiso   1.00
O941   O     0.70492   0.45491   0.79375   0.00000  Uiso   1.00
O942   O     0.79509   0.04509   0.87291   0.00000  Uiso   1.00
O943   O     0.79509   0.04509   0.79375   0.00000  Uiso   1.00
O944   O     0.70492   0.45491   0.87291   0.00000  Uiso   1.00
O945   O     0.99096   0.16936   0.71053   0.00000  Uiso   1.00
O946   O     0.50903   0.33064   0.95614   0.00000  Uiso   1.00
O947   O     0.50928   0.33081   0.71337   0.00000  Uiso   1.00
O948   O     0.95492   0.29509   0.79375   0.00000  Uiso   1.00
O949   O     0.99070   0.16919   0.95329   0.00000  Uiso   1.00
O950   O     0.74097   0.41936   0.71053   0.00000  Uiso   1.00
O951   O     0.75904   0.08064   0.95614   0.00000  Uiso   1.00
O952   O     0.75932   0.08080   0.71338   0.00000  Uiso   1.00
O953   O     0.74071   0.41919   0.95329   0.00000  Uiso   1.00
O954   O     0.95492   0.29509   0.87291   0.00000  Uiso   1.00
O955   O     0.54509   0.20491   0.79375   0.00000  Uiso   1.00
O956   O     0.95492   0.20491   0.79375   0.00000  Uiso   1.00
O957   O     0.54509   0.29509   0.87291   0.00000  Uiso   1.00
O958   O     0.54509   0.29509   0.79375   0.00000  Uiso   1.00
O959   O     0.95492   0.20491   0.87291   0.00000  Uiso   1.00
O960   O     0.79509   0.45491   0.87291   0.00000  Uiso   1.00
Br961  Br    0.39415   0.67263   0.73197   0.00000  Uiso   1.00
Br962  Br    0.35585   0.57737   0.93469   0.00000  Uiso   1.00
Br963  Br    0.35963   0.56946   0.73346   0.00000  Uiso   1.00
Br964  Br    0.14038   0.93052   0.93321   0.00000  Uiso   1.00
Br965  Br    0.36588   0.94305   0.92673   0.00000  Uiso   1.00
Br966  Br    0.13416   0.55701   0.73990   0.00000  Uiso   1.00
Br967  Br    0.16032   0.59672   0.93751   0.00000  Uiso   1.00
Br968  Br    0.33962   0.90320   0.72916   0.00000  Uiso   1.00
Br969  Br    0.10585   0.82737   0.93469   0.00000  Uiso   1.00
Br970  Br    0.10962   0.81948   0.73346   0.00000  Uiso   1.00
Br971  Br    0.39037   0.68053   0.93321   0.00000  Uiso   1.00
Br972  Br    0.11584   0.69299   0.92676   0.00000  Uiso   1.00
Br973  Br    0.38412   0.80695   0.73994   0.00000  Uiso   1.00
Br974  Br    0.41038   0.84680   0.93751   0.00000  Uiso   1.00
Br975  Br    0.08968   0.65328   0.72916   0.00000  Uiso   1.00
Br976  Br    0.14414   0.92264   0.73198   0.00000  Uiso   1.00
C977   C     0.06097   0.69233   0.83283   0.00000  Uiso   1.00
C978   C     0.00458   0.78931   0.97630   0.00000  Uiso   1.00
C979   C     0.00456   0.78935   0.69182   0.00000  Uiso   1.00
C980   C     0.49544   0.71065   0.97485   0.00000  Uiso   1.00
C981   C     0.24542   0.96069   0.69037   0.00000  Uiso   1.00
C982   C     0.25459   0.53931   0.97630   0.00000  Uiso   1.00
C983   C     0.25457   0.53935   0.69182   0.00000  Uiso   1.00
C984   C     0.24544   0.96065   0.97485   0.00000  Uiso   1.00
C985   C     0.38817   0.64269   0.79077   0.00000  Uiso   1.00
C986   C     0.11184   0.85730   0.87589   0.00000  Uiso   1.00
C987   C     0.11356   0.85403   0.79114   0.00000  Uiso   1.00
C988   C     0.43903   0.80767   0.83384   0.00000  Uiso   1.00
C989   C     0.38643   0.64598   0.87552   0.00000  Uiso   1.00
C990   C     0.11730   0.65155   0.87355   0.00000  Uiso   1.00
C991   C     0.38268   0.84842   0.79313   0.00000  Uiso   1.00
C992   C     0.39372   0.86448   0.87587   0.00000  Uiso   1.00
C993   C     0.10631   0.63555   0.79079   0.00000  Uiso   1.00
C994   C     0.13816   0.89270   0.79077   0.00000  Uiso   1.00
C995   C     0.36184   0.60730   0.87590   0.00000  Uiso   1.00
C996   C     0.36357   0.60402   0.79114   0.00000  Uiso   1.00
C997   C     0.13644   0.89598   0.87552   0.00000  Uiso   1.00
C998   C     0.36732   0.90158   0.87354   0.00000  Uiso   1.00
C999   C     0.43843   0.69308   0.83323   0.00000  Uiso   1.00
C1000  C     0.13270   0.59844   0.79311   0.00000  Uiso   1.00
C1001  C     0.14369   0.61445   0.87587   0.00000  Uiso   1.00
C1002  C     0.35628   0.88552   0.79080   0.00000  Uiso   1.00
C1003  C     0.09713   0.83845   0.83360   0.00000  Uiso   1.00
C1004  C     0.40287   0.66155   0.83306   0.00000  Uiso   1.00
C1005  C     0.40396   0.83960   0.83479   0.00000  Uiso   1.00
C1006  C     0.09604   0.66040   0.83188   0.00000  Uiso   1.00
C1007  C     0.34713   0.58845   0.83360   0.00000  Uiso   1.00
C1008  C     0.15287   0.91155   0.83307   0.00000  Uiso   1.00
C1009  C     0.15396   0.58960   0.83478   0.00000  Uiso   1.00
C1010  C     0.06157   0.80692   0.83343   0.00000  Uiso   1.00
C1011  C     0.34604   0.91040   0.83188   0.00000  Uiso   1.00
C1012  C     0.31097   0.94233   0.83283   0.00000  Uiso   1.00
C1013  C     0.18903   0.55767   0.83384   0.00000  Uiso   1.00
C1014  C     0.18843   0.94308   0.83323   0.00000  Uiso   1.00
C1015  C     0.31157   0.55692   0.83343   0.00000  Uiso   1.00
C1016  C     0.49542   0.71069   0.69037   0.00000  Uiso   1.00
Cu1017 Cu    0.00000   0.75000   0.88022   0.00000  Uiso   1.00
Cu1018 Cu    0.00000   0.75000   0.78645   0.00000  Uiso   1.00
Cu1019 Cu    0.25000   0.50000   0.88022   0.00000  Uiso   1.00
Cu1020 Cu    0.25000   0.50000   0.78645   0.00000  Uiso   1.00
H1021  H     0.00032   0.67148   0.74271   0.00000  Uiso   1.00
H1022  H     0.49970   0.82852   0.92395   0.00000  Uiso   1.00
H1023  H     0.49903   0.82944   0.74530   0.00000  Uiso   1.00
H1024  H     0.00097   0.67055   0.92137   0.00000  Uiso   1.00
H1025  H     0.25030   0.92148   0.74271   0.00000  Uiso   1.00
H1026  H     0.24968   0.57852   0.92396   0.00000  Uiso   1.00
H1027  H     0.24902   0.57945   0.74529   0.00000  Uiso   1.00
H1028  H     0.25097   0.92056   0.92137   0.00000  Uiso   1.00
N1029  N     0.00000   0.75000   0.95069   0.00000  Uiso   1.00
N1030  N     0.00000   0.75000   0.71598   0.00000  Uiso   1.00
N1031  N     0.25000   0.50000   0.95069   0.00000  Uiso   1.00
N1032  N     0.25000   0.50000   0.71598   0.00000  Uiso   1.00
O1033  O     0.04509   0.70491   0.87291   0.00000  Uiso   1.00
O1034  O     0.20492   0.54509   0.79375   0.00000  Uiso   1.00
O1035  O     0.20492   0.54509   0.87291   0.00000  Uiso   1.00
O1036  O     0.29509   0.95491   0.79375   0.00000  Uiso   1.00
O1037  O     0.20492   0.95491   0.79375   0.00000  Uiso   1.00
O1038  O     0.29509   0.54509   0.87291   0.00000  Uiso   1.00
O1039  O     0.29509   0.54509   0.79375   0.00000  Uiso   1.00
O1040  O     0.20492   0.95491   0.87291   0.00000  Uiso   1.00
O1041  O     0.49096   0.66936   0.71053   0.00000  Uiso   1.00
O1042  O     0.00903   0.83064   0.95614   0.00000  Uiso   1.00
O1043  O     0.00928   0.83081   0.71337   0.00000  Uiso   1.00
O1044  O     0.45492   0.79509   0.79375   0.00000  Uiso   1.00
O1045  O     0.49070   0.66919   0.95329   0.00000  Uiso   1.00
O1046  O     0.24097   0.91936   0.71053   0.00000  Uiso   1.00
O1047  O     0.25904   0.58064   0.95614   0.00000  Uiso   1.00
O1048  O     0.25932   0.58080   0.71338   0.00000  Uiso   1.00
O1049  O     0.24071   0.91919   0.95329   0.00000  Uiso   1.00
O1050  O     0.45492   0.79509   0.87291   0.00000  Uiso   1.00
O1051  O     0.04509   0.70491   0.79375   0.00000  Uiso   1.00
O1052  O     0.45492   0.70491   0.79375   0.00000  Uiso   1.00
O1053  O     0.04509   0.79509   0.87291   0.00000  Uiso   1.00
O1054  O     0.04509   0.79509   0.79375   0.00000  Uiso   1.00
O1055  O     0.45492   0.70491   0.87291   0.00000  Uiso   1.00
O1056  O     0.29509   0.95491   0.87291   0.00000  Uiso   1.00
Br1057 Br    0.89415   0.67263   0.73197   0.00000  Uiso   1.00
Br1058 Br    0.85585   0.57737   0.93469   0.00000  Uiso   1.00
Br1059 Br    0.85963   0.56946   0.73346   0.00000  Uiso   1.00
Br1060 Br    0.64038   0.93052   0.93321   0.00000  Uiso   1.00
Br1061 Br    0.86588   0.94305   0.92673   0.00000  Uiso   1.00
Br1062 Br    0.63416   0.55701   0.73990   0.00000  Uiso   1.00
Br1063 Br    0.66032   0.59672   0.93751   0.00000  Uiso   1.00
Br1064 Br    0.83962   0.90320   0.72916   0.00000  Uiso   1.00
Br1065 Br    0.60585   0.82737   0.93469   0.00000  Uiso   1.00
Br1066 Br    0.60962   0.81948   0.73346   0.00000  Uiso   1.00
Br1067 Br    0.89037   0.68053   0.93321   0.00000  Uiso   1.00
Br1068 Br    0.61584   0.69299   0.92676   0.00000  Uiso   1.00
Br1069 Br    0.88412   0.80695   0.73994   0.00000  Uiso   1.00
Br1070 Br    0.91038   0.84680   0.93751   0.00000  Uiso   1.00
Br1071 Br    0.58968   0.65328   0.72916   0.00000  Uiso   1.00
Br1072 Br    0.64414   0.92264   0.73198   0.00000  Uiso   1.00
C1073  C     0.56097   0.69233   0.83283   0.00000  Uiso   1.00
C1074  C     0.50458   0.78931   0.97630   0.00000  Uiso   1.00
C1075  C     0.50456   0.78935   0.69182   0.00000  Uiso   1.00
C1076  C     0.99544   0.71065   0.97485   0.00000  Uiso   1.00
C1077  C     0.74542   0.96069   0.69037   0.00000  Uiso   1.00
C1078  C     0.75459   0.53931   0.97630   0.00000  Uiso   1.00
C1079  C     0.75457   0.53935   0.69182   0.00000  Uiso   1.00
C1080  C     0.74544   0.96065   0.97485   0.00000  Uiso   1.00
C1081  C     0.88817   0.64269   0.79077   0.00000  Uiso   1.00
C1082  C     0.61184   0.85730   0.87589   0.00000  Uiso   1.00
C1083  C     0.61356   0.85403   0.79114   0.00000  Uiso   1.00
C1084  C     0.93903   0.80767   0.83384   0.00000  Uiso   1.00
C1085  C     0.88643   0.64598   0.87552   0.00000  Uiso   1.00
C1086  C     0.61730   0.65155   0.87355   0.00000  Uiso   1.00
C1087  C     0.88268   0.84842   0.79313   0.00000  Uiso   1.00
C1088  C     0.89372   0.86448   0.87587   0.00000  Uiso   1.00
C1089  C     0.60631   0.63555   0.79079   0.00000  Uiso   1.00
C1090  C     0.63816   0.89270   0.79077   0.00000  Uiso   1.00
C1091  C     0.86184   0.60730   0.87590   0.00000  Uiso   1.00
C1092  C     0.86357   0.60402   0.79114   0.00000  Uiso   1.00
C1093  C     0.63644   0.89598   0.87552   0.00000  Uiso   1.00
C1094  C     0.86732   0.90158   0.87354   0.00000  Uiso   1.00
C1095  C     0.93843   0.69308   0.83323   0.00000  Uiso   1.00
C1096  C     0.63270   0.59844   0.79311   0.00000  Uiso   1.00
C1097  C     0.64369   0.61445   0.87587   0.00000  Uiso   1.00
C1098  C     0.85628   0.88552   0.79080   0.00000  Uiso   1.00
C1099  C     0.59713   0.83845   0.83360   0.00000  Uiso   1.00
C1100  C     0.90287   0.66155   0.83306   0.00000  Uiso   1.00
C1101  C     0.90396   0.83960   0.83479   0.00000  Uiso   1.00
C1102  C     0.59604   0.66040   0.83188   0.00000  Uiso   1.00
C1103  C     0.84713   0.58845   0.83360   0.00000  Uiso   1.00
C1104  C     0.65287   0.91155   0.83307   0.00000  Uiso   1.00
C1105  C     0.65396   0.58960   0.83478   0.00000  Uiso   1.00
C1106  C     0.56157   0.80692   0.83343   0.00000  Uiso   1.00
C1107  C     0.84604   0.91040   0.83188   0.00000  Uiso   1.00
C1108  C     0.81097   0.94233   0.83283   0.00000  Uiso   1.00
C1109  C     0.68903   0.55767   0.83384   0.00000  Uiso   1.00
C1110  C     0.68843   0.94308   0.83323   0.00000  Uiso   1.00
C1111  C     0.81157   0.55692   0.83343   0.00000  Uiso   1.00
C1112  C     0.99542   0.71069   0.69037   0.00000  Uiso   1.00
Cu1113 Cu    0.50000   0.75000   0.88022   0.00000  Uiso   1.00
Cu1114 Cu    0.50000   0.75000   0.78645   0.00000  Uiso   1.00
Cu1115 Cu    0.75000   0.50000   0.88022   0.00000  Uiso   1.00
Cu1116 Cu    0.75000   0.50000   0.78645   0.00000  Uiso   1.00
H1117  H     0.50032   0.67148   0.74271   0.00000  Uiso   1.00
H1118  H     0.99970   0.82852   0.92395   0.00000  Uiso   1.00
H1119  H     0.99903   0.82944   0.74530   0.00000  Uiso   1.00
H1120  H     0.50097   0.67055   0.92137   0.00000  Uiso   1.00
H1121  H     0.75030   0.92148   0.74271   0.00000  Uiso   1.00
H1122  H     0.74968   0.57852   0.92396   0.00000  Uiso   1.00
H1123  H     0.74902   0.57945   0.74529   0.00000  Uiso   1.00
H1124  H     0.75097   0.92056   0.92137   0.00000  Uiso   1.00
N1125  N     0.50000   0.75000   0.95069   0.00000  Uiso   1.00
N1126  N     0.50000   0.75000   0.71598   0.00000  Uiso   1.00
N1127  N     0.75000   0.50000   0.95069   0.00000  Uiso   1.00
N1128  N     0.75000   0.50000   0.71598   0.00000  Uiso   1.00
O1129  O     0.54509   0.70491   0.87291   0.00000  Uiso   1.00
O1130  O     0.70492   0.54509   0.79375   0.00000  Uiso   1.00
O1131  O     0.70492   0.54509   0.87291   0.00000  Uiso   1.00
O1132  O     0.79509   0.95491   0.79375   0.00000  Uiso   1.00
O1133  O     0.70492   0.95491   0.79375   0.00000  Uiso   1.00
O1134  O     0.79509   0.54509   0.87291   0.00000  Uiso   1.00
O1135  O     0.79509   0.54509   0.79375   0.00000  Uiso   1.00
O1136  O     0.70492   0.95491   0.87291   0.00000  Uiso   1.00
O1137  O     0.99096   0.66936   0.71053   0.00000  Uiso   1.00
O1138  O     0.50903   0.83064   0.95614   0.00000  Uiso   1.00
O1139  O     0.50928   0.83081   0.71337   0.00000  Uiso   1.00
O1140  O     0.95492   0.79509   0.79375   0.00000  Uiso   1.00
O1141  O     0.99070   0.66919   0.95329   0.00000  Uiso   1.00
O1142  O     0.74097   0.91936   0.71053   0.00000  Uiso   1.00
O1143  O     0.75904   0.58064   0.95614   0.00000  Uiso   1.00
O1144  O     0.75932   0.58080   0.71338   0.00000  Uiso   1.00
O1145  O     0.74071   0.91919   0.95329   0.00000  Uiso   1.00
O1146  O     0.95492   0.79509   0.87291   0.00000  Uiso   1.00
O1147  O     0.54509   0.70491   0.79375   0.00000  Uiso   1.00
O1148  O     0.95492   0.70491   0.79375   0.00000  Uiso   1.00
O1149  O     0.54509   0.79509   0.87291   0.00000  Uiso   1.00
O1150  O     0.54509   0.79509   0.79375   0.00000  Uiso   1.00
O1151  O     0.95492   0.70491   0.87291   0.00000  Uiso   1.00
O1152  O     0.79509   0.95491   0.87291   0.00000  Uiso   1.00
loop_
_geom_bond_atom_site_label_1
_geom_bond_atom_site_label_2
_geom_bond_distance
_geom_bond_site_symmetry_2
_ccdc_geom_bond_type
Br1    C25     1.936   .     S
Br2    C35     1.936   .     S
Br3    C36     1.940   .     S
Br4    C37     1.940   .     S
Br5    C38     1.947   .     S
Br6    C40     1.947   .     S
Br7    C41     1.940   .     S
Br8    C42     1.940   .     S
Br9    C26     1.936   .     S
Br10   C27     1.940   .     S
Br11   C29     1.940   .     S
Br12   C30     1.946   .     S
Br13   C31     1.947   .     S
Br14   C32     1.940   .     S
Br15   C33     1.940   .     S
Br16   C34     1.936   .     S
C17    O73     1.306   .     A
C17    O91     1.301   .     A
C17    C46     1.473   .     S
C18    O82     1.376   .     S
C18    C403    1.406   .     S
C18    N69     1.377   .     S
C19    O83     1.377   .     S
C19    C786    1.406   1_554 S
C19    N70     1.380   .     S
C20    O85     1.377   .     S
C20    N165    1.380   .     A
C20    C440    1.406   .     S
C21    O86     1.376   .     S
C21    C792    1.406   1_554 S
C21    N264    1.377   .     S
C22    O87     1.376   .     S
C22    C407    1.406   .     S
C22    N71     1.377   .     S
C23    O88     1.377   .     S
C23    N72     1.380   .     A
C23    C790    1.406   1_554 S
C24    O89     1.377   .     S
C24    N263    1.380   .     A
C24    C405    1.406   .     S
C25    C44     1.414   .     A
C25    C36     1.393   .     A
C26    C43     1.414   .     A
C26    C37     1.393   .     A
C27    C34     1.393   .     A
C27    C43     1.414   .     A
C28    O84     1.306   .     A
C28    C45     1.473   .     S
C28    O90     1.300   .     A
C29    C44     1.414   .     A
C29    C35     1.393   .     A
C30    C41     1.395   .     A
C30    C46     1.414   .     A
C31    C42     1.395   .     A
C31    C45     1.414   .     A
C32    C45     1.419   .     A
C32    C38     1.395   .     A
C33    C46     1.419   .     A
C33    C40     1.395   .     A
C34    C48     1.414   .     A
C35    C47     1.414   .     A
C36    C47     1.414   .     A
C37    C48     1.414   .     A
C38    C51     1.414   .     A
C39    O92     1.304   .     A
C39    O95     1.304   .     A
C39    C44     1.474   .     S
C40    C49     1.414   .     A
C41    C49     1.419   .     A
C42    C51     1.419   .     A
C43    C50     1.474   .     S
C47    C55     1.474   .     S
C48    C54     1.474   .     S
C49    C53     1.473   .     S
C50    O93     1.304   .     A
C50    O94     1.304   .     A
C51    C52     1.473   .     S
C52    O76     1.300   .     A
C52    O96     1.306   .     A
C53    O74     1.306   .     A
C53    O75     1.301   .     A
C54    O77     1.304   .     A
C54    O80     1.304   .     A
C55    O78     1.304   .     A
C55    O79     1.304   .     A
C56    O81     1.376   .     S
C56    N166    1.377   .     A
C56    C788    1.406   1_554 S
Cu57   O73     1.981   .     S
Cu57   O93     1.982   .     S
Cu57   Cu58    2.700   .     S
Cu57   N69     2.029   .     S
Cu57   O186    1.989   1_455 S
Cu57   O191    1.979   1_455 S
Cu58   N70     2.029   .     S
Cu58   O180    1.981   1_455 S
Cu58   O188    1.982   1_455 S
Cu58   O91     1.989   .     S
Cu58   O94     1.979   .     S
Cu59   Cu60    2.700   .     S
Cu59   O288    1.981   1_545 S
Cu59   O272    1.979   1_545 S
Cu59   N71     2.029   .     S
Cu59   O75     1.989   .     S
Cu59   O78     1.982   .     S
Cu60   O269    1.982   1_545 S
Cu60   O268    1.989   1_545 S
Cu60   N72     2.029   .     S
Cu60   O74     1.981   .     S
Cu60   O79     1.979   .     S
H61    O177    0.977   1_455 S
H62    O178    0.977   .     S
H63    O179    0.976   .     S
H64    O181    0.976   1_455 S
H65    O86     0.977   .     S
H66    O87     0.977   .     S
H67    O88     0.976   .     S
H68    O89     0.976   .     S
N69    C116    1.380   1_455 A
N70    C152    1.377   1_455 A
N71    C216    1.380   1_545 A
N72    C213    1.377   1_545 S
O76    Cu252   1.989   .     S
O77    Cu252   1.982   .     S
O80    Cu251   1.979   .     S
O81    H157    0.977   .     S
O82    H158    0.977   1_455 S
O83    H159    0.976   1_455 S
O84    Cu154   1.981   .     S
O85    H160    0.976   .     S
O90    Cu153   1.989   .     S
O92    Cu154   1.982   .     S
O95    Cu153   1.979   .     S
O96    Cu251   1.981   .     S
Br97   C121    1.936   .     S
Br98   C131    1.936   .     S
Br99   C132    1.940   .     S
Br100  C133    1.940   .     S
Br101  C134    1.947   .     S
Br102  C136    1.947   .     S
Br103  C137    1.940   .     S
Br104  C138    1.940   .     S
Br105  C122    1.936   .     S
Br106  C123    1.940   .     S
Br107  C125    1.940   .     S
Br108  C126    1.946   .     S
Br109  C127    1.947   .     S
Br110  C128    1.940   .     S
Br111  C129    1.940   .     S
Br112  C130    1.936   .     S
C113   O169    1.306   .     A
C113   O187    1.301   .     A
C113   C142    1.473   .     S
C114   O178    1.376   .     S
C114   C499    1.406   .     S
C114   N165    1.377   .     S
C115   O179    1.377   .     S
C115   C882    1.406   1_554 S
C115   N166    1.380   .     S
C116   O181    1.377   .     S
C116   N69     1.380   1_655 A
C116   C536    1.406   .     S
C117   O182    1.376   .     S
C117   C888    1.406   1_554 S
C117   N360    1.377   .     S
C118   O183    1.376   .     S
C118   C503    1.406   .     S
C118   N167    1.377   .     S
C119   O184    1.377   .     S
C119   N168    1.380   .     A
C119   C886    1.406   1_554 S
C120   O185    1.377   .     S
C120   N359    1.380   .     A
C120   C501    1.406   .     S
C121   C140    1.414   .     A
C121   C132    1.393   .     A
C122   C139    1.414   .     A
C122   C133    1.393   .     A
C123   C130    1.393   .     A
C123   C139    1.414   .     A
C124   O180    1.306   .     A
C124   C141    1.473   .     S
C124   O186    1.300   .     A
C125   C140    1.414   .     A
C125   C131    1.393   .     A
C126   C137    1.395   .     A
C126   C142    1.414   .     A
C127   C138    1.395   .     A
C127   C141    1.414   .     A
C128   C141    1.419   .     A
C128   C134    1.395   .     A
C129   C142    1.419   .     A
C129   C136    1.395   .     A
C130   C144    1.414   .     A
C131   C143    1.414   .     A
C132   C143    1.414   .     A
C133   C144    1.414   .     A
C134   C147    1.414   .     A
C135   O188    1.304   .     A
C135   O191    1.304   .     A
C135   C140    1.474   .     S
C136   C145    1.414   .     A
C137   C145    1.419   .     A
C138   C147    1.419   .     A
C139   C146    1.474   .     S
C143   C151    1.474   .     S
C144   C150    1.474   .     S
C145   C149    1.473   .     S
C146   O189    1.304   .     A
C146   O190    1.304   .     A
C147   C148    1.473   .     S
C148   O172    1.300   .     A
C148   O192    1.306   .     A
C149   O170    1.306   .     A
C149   O171    1.301   .     A
C150   O173    1.304   .     A
C150   O176    1.304   .     A
C151   O174    1.304   .     A
C151   O175    1.304   .     A
C152   O177    1.376   .     S
C152   N70     1.377   1_655 A
C152   C884    1.406   1_554 S
Cu153  O169    1.981   .     S
Cu153  O189    1.982   .     S
Cu153  Cu154   2.700   .     S
Cu153  N165    2.029   .     S
Cu154  N166    2.029   .     S
Cu154  O187    1.989   .     S
Cu154  O190    1.979   .     S
Cu155  Cu156   2.700   .     S
Cu155  O384    1.981   1_545 S
Cu155  O368    1.979   1_545 S
Cu155  N167    2.029   .     S
Cu155  O171    1.989   .     S
Cu155  O174    1.982   .     S
Cu156  O365    1.982   1_545 S
Cu156  O364    1.989   1_545 S
Cu156  N168    2.029   .     S
Cu156  O170    1.981   .     S
Cu156  O175    1.979   .     S
H158   O82     0.977   1_655 S
H159   O83     0.976   1_655 S
H161   O182    0.977   .     S
H162   O183    0.977   .     S
H163   O184    0.976   .     S
H164   O185    0.976   .     S
N167   C312    1.380   1_545 A
N168   C309    1.377   1_545 S
O172   Cu348   1.989   .     S
O173   Cu348   1.982   .     S
O176   Cu347   1.979   .     S
O177   H61     0.977   1_655 S
O180   Cu58    1.981   1_655 S
O181   H64     0.976   1_655 S
O186   Cu57    1.989   1_655 S
O188   Cu58    1.982   1_655 S
O191   Cu57    1.979   1_655 S
O192   Cu347   1.981   .     S
Br193  C217    1.936   .     S
Br194  C227    1.936   .     S
Br195  C228    1.940   .     S
Br196  C229    1.940   .     S
Br197  C230    1.947   .     S
Br198  C232    1.947   .     S
Br199  C233    1.940   .     S
Br200  C234    1.940   .     S
Br201  C218    1.936   .     S
Br202  C219    1.940   .     S
Br203  C221    1.940   .     S
Br204  C222    1.946   .     S
Br205  C223    1.947   .     S
Br206  C224    1.940   .     S
Br207  C225    1.940   .     S
Br208  C226    1.936   .     S
C209   O265    1.306   .     A
C209   O283    1.301   .     A
C209   C238    1.473   .     S
C210   O274    1.376   .     S
C210   C595    1.406   .     S
C210   N261    1.377   .     S
C211   O275    1.377   .     S
C211   C978    1.406   1_554 S
C211   N262    1.380   .     S
C212   O277    1.377   .     S
C212   N357    1.380   .     A
C212   C632    1.406   .     S
C213   O278    1.376   .     S
C213   C984    1.406   1_554 S
C213   N72     1.377   1_565 S
C214   O279    1.376   .     S
C214   C599    1.406   .     S
C214   N263    1.377   .     S
C215   O280    1.377   .     S
C215   N264    1.380   .     A
C215   C982    1.406   1_554 S
C216   O281    1.377   .     S
C216   N71     1.380   1_565 A
C216   C597    1.406   .     S
C217   C236    1.414   .     A
C217   C228    1.393   .     A
C218   C235    1.414   .     A
C218   C229    1.393   .     A
C219   C226    1.393   .     A
C219   C235    1.414   .     A
C220   O276    1.306   .     A
C220   C237    1.473   .     S
C220   O282    1.300   .     A
C221   C236    1.414   .     A
C221   C227    1.393   .     A
C222   C233    1.395   .     A
C222   C238    1.414   .     A
C223   C234    1.395   .     A
C223   C237    1.414   .     A
C224   C237    1.419   .     A
C224   C230    1.395   .     A
C225   C238    1.419   .     A
C225   C232    1.395   .     A
C226   C240    1.414   .     A
C227   C239    1.414   .     A
C228   C239    1.414   .     A
C229   C240    1.414   .     A
C230   C243    1.414   .     A
C231   O284    1.304   .     A
C231   O287    1.304   .     A
C231   C236    1.474   .     S
C232   C241    1.414   .     A
C233   C241    1.419   .     A
C234   C243    1.419   .     A
C235   C242    1.474   .     S
C239   C247    1.474   .     S
C240   C246    1.474   .     S
C241   C245    1.473   .     S
C242   O285    1.304   .     A
C242   O286    1.304   .     A
C243   C244    1.473   .     S
C244   O268    1.300   .     A
C244   O288    1.306   .     A
C245   O266    1.306   .     A
C245   O267    1.301   .     A
C246   O269    1.304   .     A
C246   O272    1.304   .     A
C247   O270    1.304   .     A
C247   O271    1.304   .     A
C248   O273    1.376   .     S
C248   N358    1.377   .     A
C248   C980    1.406   1_554 S
Cu249  O265    1.981   .     S
Cu249  O285    1.982   .     S
Cu249  Cu250   2.700   .     S
Cu249  N261    2.029   .     S
Cu249  O378    1.989   1_455 S
Cu249  O383    1.979   1_455 S
Cu250  N262    2.029   .     S
Cu250  O372    1.981   1_455 S
Cu250  O380    1.982   1_455 S
Cu250  O283    1.989   .     S
Cu250  O286    1.979   .     S
Cu251  Cu252   2.700   .     S
Cu251  N263    2.029   .     S
Cu251  O267    1.989   .     S
Cu251  O270    1.982   .     S
Cu252  N264    2.029   .     S
Cu252  O266    1.981   .     S
Cu252  O271    1.979   .     S
H253   O369    0.977   1_455 S
H254   O370    0.977   .     S
H255   O371    0.976   .     S
H256   O373    0.976   1_455 S
H257   O278    0.977   .     S
H258   O279    0.977   .     S
H259   O280    0.976   .     S
H260   O281    0.976   .     S
N261   C308    1.380   1_455 A
N262   C344    1.377   1_455 A
O268   Cu60    1.989   1_565 S
O269   Cu60    1.982   1_565 S
O272   Cu59    1.979   1_565 S
O273   H349    0.977   .     S
O274   H350    0.977   1_455 S
O275   H351    0.976   1_455 S
O276   Cu346   1.981   .     S
O277   H352    0.976   .     S
O282   Cu345   1.989   .     S
O284   Cu346   1.982   .     S
O287   Cu345   1.979   .     S
O288   Cu59    1.981   1_565 S
Br289  C313    1.936   .     S
Br290  C323    1.936   .     S
Br291  C324    1.940   .     S
Br292  C325    1.940   .     S
Br293  C326    1.947   .     S
Br294  C328    1.947   .     S
Br295  C329    1.940   .     S
Br296  C330    1.940   .     S
Br297  C314    1.936   .     S
Br298  C315    1.940   .     S
Br299  C317    1.940   .     S
Br300  C318    1.946   .     S
Br301  C319    1.947   .     S
Br302  C320    1.940   .     S
Br303  C321    1.940   .     S
Br304  C322    1.936   .     S
C305   O361    1.306   .     A
C305   O379    1.301   .     A
C305   C334    1.473   .     S
C306   O370    1.376   .     S
C306   C691    1.406   .     S
C306   N357    1.377   .     S
C307   O371    1.377   .     S
C307   C1074   1.406   1_554 S
C307   N358    1.380   .     S
C308   O373    1.377   .     S
C308   N261    1.380   1_655 A
C308   C728    1.406   .     S
C309   O374    1.376   .     S
C309   C1080   1.406   1_554 S
C309   N168    1.377   1_565 S
C310   O375    1.376   .     S
C310   C695    1.406   .     S
C310   N359    1.377   .     S
C311   O376    1.377   .     S
C311   N360    1.380   .     A
C311   C1078   1.406   1_554 S
C312   O377    1.377   .     S
C312   N167    1.380   1_565 A
C312   C693    1.406   .     S
C313   C332    1.414   .     A
C313   C324    1.393   .     A
C314   C331    1.414   .     A
C314   C325    1.393   .     A
C315   C322    1.393   .     A
C315   C331    1.414   .     A
C316   O372    1.306   .     A
C316   C333    1.473   .     S
C316   O378    1.300   .     A
C317   C332    1.414   .     A
C317   C323    1.393   .     A
C318   C329    1.395   .     A
C318   C334    1.414   .     A
C319   C330    1.395   .     A
C319   C333    1.414   .     A
C320   C333    1.419   .     A
C320   C326    1.395   .     A
C321   C334    1.419   .     A
C321   C328    1.395   .     A
C322   C336    1.414   .     A
C323   C335    1.414   .     A
C324   C335    1.414   .     A
C325   C336    1.414   .     A
C326   C339    1.414   .     A
C327   O380    1.304   .     A
C327   O383    1.304   .     A
C327   C332    1.474   .     S
C328   C337    1.414   .     A
C329   C337    1.419   .     A
C330   C339    1.419   .     A
C331   C338    1.474   .     S
C335   C343    1.474   .     S
C336   C342    1.474   .     S
C337   C341    1.473   .     S
C338   O381    1.304   .     A
C338   O382    1.304   .     A
C339   C340    1.473   .     S
C340   O364    1.300   .     A
C340   O384    1.306   .     A
C341   O362    1.306   .     A
C341   O363    1.301   .     A
C342   O365    1.304   .     A
C342   O368    1.304   .     A
C343   O366    1.304   .     A
C343   O367    1.304   .     A
C344   O369    1.376   .     S
C344   N262    1.377   1_655 A
C344   C1076   1.406   1_554 S
Cu345  O361    1.981   .     S
Cu345  O381    1.982   .     S
Cu345  Cu346   2.700   .     S
Cu345  N357    2.029   .     S
Cu346  N358    2.029   .     S
Cu346  O379    1.989   .     S
Cu346  O382    1.979   .     S
Cu347  Cu348   2.700   .     S
Cu347  N359    2.029   .     S
Cu347  O363    1.989   .     S
Cu347  O366    1.982   .     S
Cu348  N360    2.029   .     S
Cu348  O362    1.981   .     S
Cu348  O367    1.979   .     S
H350   O274    0.977   1_655 S
H351   O275    0.976   1_655 S
H353   O374    0.977   .     S
H354   O375    0.977   .     S
H355   O376    0.976   .     S
H356   O377    0.976   .     S
O364   Cu156   1.989   1_565 S
O365   Cu156   1.982   1_565 S
O368   Cu155   1.979   1_565 S
O369   H253    0.977   1_655 S
O372   Cu250   1.981   1_655 S
O373   H256    0.976   1_655 S
O378   Cu249   1.989   1_655 S
O380   Cu250   1.982   1_655 S
O383   Cu249   1.979   1_655 S
O384   Cu155   1.981   1_565 S
Br385  C409    1.936   .     S
Br386  C419    1.936   .     S
Br387  C420    1.940   .     S
Br388  C421    1.940   .     S
Br389  C422    1.947   .     S
Br390  C424    1.947   .     S
Br391  C425    1.940   .     S
Br392  C426    1.940   .     S
Br393  C410    1.936   .     S
Br394  C411    1.940   .     S
Br395  C413    1.940   .     S
Br396  C414    1.946   .     S
Br397  C415    1.947   .     S
Br398  C416    1.940   .     S
Br399  C417    1.940   .     S
Br400  C418    1.936   .     S
C401   O457    1.306   .     A
C401   O475    1.301   .     A
C401   C430    1.473   .     S
C402   O466    1.376   .     S
C402   C787    1.406   .     S
C402   N453    1.377   .     S
C403   O467    1.377   .     S
C403   N454    1.380   .     S
C404   O469    1.377   .     S
C404   N549    1.380   .     A
C404   C824    1.406   .     S
C405   O470    1.376   .     S
C405   N648    1.377   .     S
C406   O471    1.376   .     S
C406   C791    1.406   .     S
C406   N455    1.377   .     S
C407   O472    1.377   .     S
C407   N456    1.380   .     A
C408   O473    1.377   .     S
C408   N647    1.380   .     A
C408   C789    1.406   .     S
C409   C428    1.414   .     A
C409   C420    1.393   .     A
C410   C427    1.414   .     A
C410   C421    1.393   .     A
C411   C418    1.393   .     A
C411   C427    1.414   .     A
C412   O468    1.306   .     A
C412   C429    1.473   .     S
C412   O474    1.300   .     A
C413   C428    1.414   .     A
C413   C419    1.393   .     A
C414   C425    1.395   .     A
C414   C430    1.414   .     A
C415   C426    1.395   .     A
C415   C429    1.414   .     A
C416   C429    1.419   .     A
C416   C422    1.395   .     A
C417   C430    1.419   .     A
C417   C424    1.395   .     A
C418   C432    1.414   .     A
C419   C431    1.414   .     A
C420   C431    1.414   .     A
C421   C432    1.414   .     A
C422   C435    1.414   .     A
C423   O476    1.304   .     A
C423   O479    1.304   .     A
C423   C428    1.474   .     S
C424   C433    1.414   .     A
C425   C433    1.419   .     A
C426   C435    1.419   .     A
C427   C434    1.474   .     S
C431   C439    1.474   .     S
C432   C438    1.474   .     S
C433   C437    1.473   .     S
C434   O477    1.304   .     A
C434   O478    1.304   .     A
C435   C436    1.473   .     S
C436   O460    1.300   .     A
C436   O480    1.306   .     A
C437   O458    1.306   .     A
C437   O459    1.301   .     A
C438   O461    1.304   .     A
C438   O464    1.304   .     A
C439   O462    1.304   .     A
C439   O463    1.304   .     A
C440   O465    1.376   .     S
C440   N550    1.377   .     A
Cu441  O457    1.981   .     S
Cu441  O477    1.982   .     S
Cu441  Cu442   2.700   .     S
Cu441  N453    2.029   .     S
Cu441  O570    1.989   1_455 S
Cu441  O575    1.979   1_455 S
Cu442  N454    2.029   .     S
Cu442  O564    1.981   1_455 S
Cu442  O572    1.982   1_455 S
Cu442  O475    1.989   .     S
Cu442  O478    1.979   .     S
Cu443  Cu444   2.700   .     S
Cu443  O672    1.981   1_545 S
Cu443  O656    1.979   1_545 S
Cu443  N455    2.029   .     S
Cu443  O459    1.989   .     S
Cu443  O462    1.982   .     S
Cu444  O653    1.982   1_545 S
Cu444  O652    1.989   1_545 S
Cu444  N456    2.029   .     S
Cu444  O458    1.981   .     S
Cu444  O463    1.979   .     S
H445   O561    0.977   1_455 S
H446   O562    0.977   .     S
H447   O563    0.976   .     S
H448   O565    0.976   1_455 S
H449   O470    0.977   .     S
H450   O471    0.977   .     S
H451   O472    0.976   .     S
H452   O473    0.976   .     S
N453   C500    1.380   1_455 A
N454   C536    1.377   1_455 A
N455   C600    1.380   1_545 A
N456   C597    1.377   1_545 S
O460   Cu636   1.989   .     S
O461   Cu636   1.982   .     S
O464   Cu635   1.979   .     S
O465   H541    0.977   .     S
O466   H542    0.977   1_455 S
O467   H543    0.976   1_455 S
O468   Cu538   1.981   .     S
O469   H544    0.976   .     S
O474   Cu537   1.989   .     S
O476   Cu538   1.982   .     S
O479   Cu537   1.979   .     S
O480   Cu635   1.981   .     S
Br481  C505    1.936   .     S
Br482  C515    1.936   .     S
Br483  C516    1.940   .     S
Br484  C517    1.940   .     S
Br485  C518    1.947   .     S
Br486  C520    1.947   .     S
Br487  C521    1.940   .     S
Br488  C522    1.940   .     S
Br489  C506    1.936   .     S
Br490  C507    1.940   .     S
Br491  C509    1.940   .     S
Br492  C510    1.946   .     S
Br493  C511    1.947   .     S
Br494  C512    1.940   .     S
Br495  C513    1.940   .     S
Br496  C514    1.936   .     S
C497   O553    1.306   .     A
C497   O571    1.301   .     A
C497   C526    1.473   .     S
C498   O562    1.376   .     S
C498   C883    1.406   .     S
C498   N549    1.377   .     S
C499   O563    1.377   .     S
C499   N550    1.380   .     S
C500   O565    1.377   .     S
C500   N453    1.380   1_655 A
C500   C920    1.406   .     S
C501   O566    1.376   .     S
C501   N744    1.377   .     S
C502   O567    1.376   .     S
C502   C887    1.406   .     S
C502   N551    1.377   .     S
C503   O568    1.377   .     S
C503   N552    1.380   .     A
C504   O569    1.377   .     S
C504   N743    1.380   .     A
C504   C885    1.406   .     S
C505   C524    1.414   .     A
C505   C516    1.393   .     A
C506   C523    1.414   .     A
C506   C517    1.393   .     A
C507   C514    1.393   .     A
C507   C523    1.414   .     A
C508   O564    1.306   .     A
C508   C525    1.473   .     S
C508   O570    1.300   .     A
C509   C524    1.414   .     A
C509   C515    1.393   .     A
C510   C521    1.395   .     A
C510   C526    1.414   .     A
C511   C522    1.395   .     A
C511   C525    1.414   .     A
C512   C525    1.419   .     A
C512   C518    1.395   .     A
C513   C526    1.419   .     A
C513   C520    1.395   .     A
C514   C528    1.414   .     A
C515   C527    1.414   .     A
C516   C527    1.414   .     A
C517   C528    1.414   .     A
C518   C531    1.414   .     A
C519   O572    1.304   .     A
C519   O575    1.304   .     A
C519   C524    1.474   .     S
C520   C529    1.414   .     A
C521   C529    1.419   .     A
C522   C531    1.419   .     A
C523   C530    1.474   .     S
C527   C535    1.474   .     S
C528   C534    1.474   .     S
C529   C533    1.473   .     S
C530   O573    1.304   .     A
C530   O574    1.304   .     A
C531   C532    1.473   .     S
C532   O556    1.300   .     A
C532   O576    1.306   .     A
C533   O554    1.306   .     A
C533   O555    1.301   .     A
C534   O557    1.304   .     A
C534   O560    1.304   .     A
C535   O558    1.304   .     A
C535   O559    1.304   .     A
C536   O561    1.376   .     S
C536   N454    1.377   1_655 A
Cu537  O553    1.981   .     S
Cu537  O573    1.982   .     S
Cu537  Cu538   2.700   .     S
Cu537  N549    2.029   .     S
Cu538  N550    2.029   .     S
Cu538  O571    1.989   .     S
Cu538  O574    1.979   .     S
Cu539  Cu540   2.700   .     S
Cu539  O768    1.981   1_545 S
Cu539  O752    1.979   1_545 S
Cu539  N551    2.029   .     S
Cu539  O555    1.989   .     S
Cu539  O558    1.982   .     S
Cu540  O749    1.982   1_545 S
Cu540  O748    1.989   1_545 S
Cu540  N552    2.029   .     S
Cu540  O554    1.981   .     S
Cu540  O559    1.979   .     S
H542   O466    0.977   1_655 S
H543   O467    0.976   1_655 S
H545   O566    0.977   .     S
H546   O567    0.977   .     S
H547   O568    0.976   .     S
H548   O569    0.976   .     S
N551   C696    1.380   1_545 A
N552   C693    1.377   1_545 S
O556   Cu732   1.989   .     S
O557   Cu732   1.982   .     S
O560   Cu731   1.979   .     S
O561   H445    0.977   1_655 S
O564   Cu442   1.981   1_655 S
O565   H448    0.976   1_655 S
O570   Cu441   1.989   1_655 S
O572   Cu442   1.982   1_655 S
O575   Cu441   1.979   1_655 S
O576   Cu731   1.981   .     S
Br577  C601    1.936   .     S
Br578  C611    1.936   .     S
Br579  C612    1.940   .     S
Br580  C613    1.940   .     S
Br581  C614    1.947   .     S
Br582  C616    1.947   .     S
Br583  C617    1.940   .     S
Br584  C618    1.940   .     S
Br585  C602    1.936   .     S
Br586  C603    1.940   .     S
Br587  C605    1.940   .     S
Br588  C606    1.946   .     S
Br589  C607    1.947   .     S
Br590  C608    1.940   .     S
Br591  C609    1.940   .     S
Br592  C610    1.936   .     S
C593   O649    1.306   .     A
C593   O667    1.301   .     A
C593   C622    1.473   .     S
C594   O658    1.376   .     S
C594   C979    1.406   .     S
C594   N645    1.377   .     S
C595   O659    1.377   .     S
C595   N646    1.380   .     S
C596   O661    1.377   .     S
C596   N741    1.380   .     A
C596   C1016   1.406   .     S
C597   O662    1.376   .     S
C597   N456    1.377   1_565 S
C598   O663    1.376   .     S
C598   C983    1.406   .     S
C598   N647    1.377   .     S
C599   O664    1.377   .     S
C599   N648    1.380   .     A
C600   O665    1.377   .     S
C600   N455    1.380   1_565 A
C600   C981    1.406   .     S
C601   C620    1.414   .     A
C601   C612    1.393   .     A
C602   C619    1.414   .     A
C602   C613    1.393   .     A
C603   C610    1.393   .     A
C603   C619    1.414   .     A
C604   O660    1.306   .     A
C604   C621    1.473   .     S
C604   O666    1.300   .     A
C605   C620    1.414   .     A
C605   C611    1.393   .     A
C606   C617    1.395   .     A
C606   C622    1.414   .     A
C607   C618    1.395   .     A
C607   C621    1.414   .     A
C608   C621    1.419   .     A
C608   C614    1.395   .     A
C609   C622    1.419   .     A
C609   C616    1.395   .     A
C610   C624    1.414   .     A
C611   C623    1.414   .     A
C612   C623    1.414   .     A
C613   C624    1.414   .     A
C614   C627    1.414   .     A
C615   O668    1.304   .     A
C615   O671    1.304   .     A
C615   C620    1.474   .     S
C616   C625    1.414   .     A
C617   C625    1.419   .     A
C618   C627    1.419   .     A
C619   C626    1.474   .     S
C623   C631    1.474   .     S
C624   C630    1.474   .     S
C625   C629    1.473   .     S
C626   O669    1.304   .     A
C626   O670    1.304   .     A
C627   C628    1.473   .     S
C628   O652    1.300   .     A
C628   O672    1.306   .     A
C629   O650    1.306   .     A
C629   O651    1.301   .     A
C630   O653    1.304   .     A
C630   O656    1.304   .     A
C631   O654    1.304   .     A
C631   O655    1.304   .     A
C632   O657    1.376   .     S
C632   N742    1.377   .     A
Cu633  O649    1.981   .     S
Cu633  O669    1.982   .     S
Cu633  Cu634   2.700   .     S
Cu633  N645    2.029   .     S
Cu633  O762    1.989   1_455 S
Cu633  O767    1.979   1_455 S
Cu634  N646    2.029   .     S
Cu634  O756    1.981   1_455 S
Cu634  O764    1.982   1_455 S
Cu634  O667    1.989   .     S
Cu634  O670    1.979   .     S
Cu635  Cu636   2.700   .     S
Cu635  N647    2.029   .     S
Cu635  O651    1.989   .     S
Cu635  O654    1.982   .     S
Cu636  N648    2.029   .     S
Cu636  O650    1.981   .     S
Cu636  O655    1.979   .     S
H637   O753    0.977   1_455 S
H638   O754    0.977   .     S
H639   O755    0.976   .     S
H640   O757    0.976   1_455 S
H641   O662    0.977   .     S
H642   O663    0.977   .     S
H643   O664    0.976   .     S
H644   O665    0.976   .     S
N645   C692    1.380   1_455 A
N646   C728    1.377   1_455 A
O652   Cu444   1.989   1_565 S
O653   Cu444   1.982   1_565 S
O656   Cu443   1.979   1_565 S
O657   H733    0.977   .     S
O658   H734    0.977   1_455 S
O659   H735    0.976   1_455 S
O660   Cu730   1.981   .     S
O661   H736    0.976   .     S
O666   Cu729   1.989   .     S
O668   Cu730   1.982   .     S
O671   Cu729   1.979   .     S
O672   Cu443   1.981   1_565 S
Br673  C697    1.936   .     S
Br674  C707    1.936   .     S
Br675  C708    1.940   .     S
Br676  C709    1.940   .     S
Br677  C710    1.947   .     S
Br678  C712    1.947   .     S
Br679  C713    1.940   .     S
Br680  C714    1.940   .     S
Br681  C698    1.936   .     S
Br682  C699    1.940   .     S
Br683  C701    1.940   .     S
Br684  C702    1.946   .     S
Br685  C703    1.947   .     S
Br686  C704    1.940   .     S
Br687  C705    1.940   .     S
Br688  C706    1.936   .     S
C689   O745    1.306   .     A
C689   O763    1.301   .     A
C689   C718    1.473   .     S
C690   O754    1.376   .     S
C690   C1075   1.406   .     S
C690   N741    1.377   .     S
C691   O755    1.377   .     S
C691   N742    1.380   .     S
C692   O757    1.377   .     S
C692   N645    1.380   1_655 A
C692   C1112   1.406   .     S
C693   O758    1.376   .     S
C693   N552    1.377   1_565 S
C694   O759    1.376   .     S
C694   C1079   1.406   .     S
C694   N743    1.377   .     S
C695   O760    1.377   .     S
C695   N744    1.380   .     A
C696   O761    1.377   .     S
C696   N551    1.380   1_565 A
C696   C1077   1.406   .     S
C697   C716    1.414   .     A
C697   C708    1.393   .     A
C698   C715    1.414   .     A
C698   C709    1.393   .     A
C699   C706    1.393   .     A
C699   C715    1.414   .     A
C700   O756    1.306   .     A
C700   C717    1.473   .     S
C700   O762    1.300   .     A
C701   C716    1.414   .     A
C701   C707    1.393   .     A
C702   C713    1.395   .     A
C702   C718    1.414   .     A
C703   C714    1.395   .     A
C703   C717    1.414   .     A
C704   C717    1.419   .     A
C704   C710    1.395   .     A
C705   C718    1.419   .     A
C705   C712    1.395   .     A
C706   C720    1.414   .     A
C707   C719    1.414   .     A
C708   C719    1.414   .     A
C709   C720    1.414   .     A
C710   C723    1.414   .     A
C711   O764    1.304   .     A
C711   O767    1.304   .     A
C711   C716    1.474   .     S
C712   C721    1.414   .     A
C713   C721    1.419   .     A
C714   C723    1.419   .     A
C715   C722    1.474   .     S
C719   C727    1.474   .     S
C720   C726    1.474   .     S
C721   C725    1.473   .     S
C722   O765    1.304   .     A
C722   O766    1.304   .     A
C723   C724    1.473   .     S
C724   O748    1.300   .     A
C724   O768    1.306   .     A
C725   O746    1.306   .     A
C725   O747    1.301   .     A
C726   O749    1.304   .     A
C726   O752    1.304   .     A
C727   O750    1.304   .     A
C727   O751    1.304   .     A
C728   O753    1.376   .     S
C728   N646    1.377   1_655 A
Cu729  O745    1.981   .     S
Cu729  O765    1.982   .     S
Cu729  Cu730   2.700   .     S
Cu729  N741    2.029   .     S
Cu730  N742    2.029   .     S
Cu730  O763    1.989   .     S
Cu730  O766    1.979   .     S
Cu731  Cu732   2.700   .     S
Cu731  N743    2.029   .     S
Cu731  O747    1.989   .     S
Cu731  O750    1.982   .     S
Cu732  N744    2.029   .     S
Cu732  O746    1.981   .     S
Cu732  O751    1.979   .     S
H734   O658    0.977   1_655 S
H735   O659    0.976   1_655 S
H737   O758    0.977   .     S
H738   O759    0.977   .     S
H739   O760    0.976   .     S
H740   O761    0.976   .     S
O748   Cu540   1.989   1_565 S
O749   Cu540   1.982   1_565 S
O752   Cu539   1.979   1_565 S
O753   H637    0.977   1_655 S
O756   Cu634   1.981   1_655 S
O757   H640    0.976   1_655 S
O762   Cu633   1.989   1_655 S
O764   Cu634   1.982   1_655 S
O767   Cu633   1.979   1_655 S
O768   Cu539   1.981   1_565 S
Br769  C793    1.936   .     S
Br770  C803    1.936   .     S
Br771  C804    1.940   .     S
Br772  C805    1.940   .     S
Br773  C806    1.947   .     S
Br774  C808    1.947   .     S
Br775  C809    1.940   .     S
Br776  C810    1.940   .     S
Br777  C794    1.936   .     S
Br778  C795    1.940   .     S
Br779  C797    1.940   .     S
Br780  C798    1.946   .     S
Br781  C799    1.947   .     S
Br782  C800    1.940   .     S
Br783  C801    1.940   .     S
Br784  C802    1.936   .     S
C785   O841    1.306   .     A
C785   O859    1.301   .     A
C785   C814    1.473   .     S
C786   O850    1.376   .     S
C786   C19     1.406   1_556 S
C786   N837    1.377   .     S
C787   O851    1.377   .     S
C787   N838    1.380   .     S
C788   O853    1.377   .     S
C788   N933    1.380   .     A
C788   C56     1.406   1_556 S
C789   O854    1.376   .     S
C789   N1032   1.377   .     S
C790   O855    1.376   .     S
C790   C23     1.406   1_556 S
C790   N839    1.377   .     S
C791   O856    1.377   .     S
C791   N840    1.380   .     A
C792   O857    1.377   .     S
C792   N1031   1.380   .     A
C792   C21     1.406   1_556 S
C793   C812    1.414   .     A
C793   C804    1.393   .     A
C794   C811    1.414   .     A
C794   C805    1.393   .     A
C795   C802    1.393   .     A
C795   C811    1.414   .     A
C796   O852    1.306   .     A
C796   C813    1.473   .     S
C796   O858    1.300   .     A
C797   C812    1.414   .     A
C797   C803    1.393   .     A
C798   C809    1.395   .     A
C798   C814    1.414   .     A
C799   C810    1.395   .     A
C799   C813    1.414   .     A
C800   C813    1.419   .     A
C800   C806    1.395   .     A
C801   C814    1.419   .     A
C801   C808    1.395   .     A
C802   C816    1.414   .     A
C803   C815    1.414   .     A
C804   C815    1.414   .     A
C805   C816    1.414   .     A
C806   C819    1.414   .     A
C807   O860    1.304   .     A
C807   O863    1.304   .     A
C807   C812    1.474   .     S
C808   C817    1.414   .     A
C809   C817    1.419   .     A
C810   C819    1.419   .     A
C811   C818    1.474   .     S
C815   C823    1.474   .     S
C816   C822    1.474   .     S
C817   C821    1.473   .     S
C818   O861    1.304   .     A
C818   O862    1.304   .     A
C819   C820    1.473   .     S
C820   O844    1.300   .     A
C820   O864    1.306   .     A
C821   O842    1.306   .     A
C821   O843    1.301   .     A
C822   O845    1.304   .     A
C822   O848    1.304   .     A
C823   O846    1.304   .     A
C823   O847    1.304   .     A
C824   O849    1.376   .     S
C824   N934    1.377   .     A
Cu825  O841    1.981   .     S
Cu825  O861    1.982   .     S
Cu825  Cu826   2.700   .     S
Cu825  N837    2.029   .     S
Cu825  O954    1.989   1_455 S
Cu825  O959    1.979   1_455 S
Cu826  N838    2.029   .     S
Cu826  O948    1.981   1_455 S
Cu826  O956    1.982   1_455 S
Cu826  O859    1.989   .     S
Cu826  O862    1.979   .     S
Cu827  Cu828   2.700   .     S
Cu827  O1056   1.981   1_545 S
Cu827  O1040   1.979   1_545 S
Cu827  N839    2.029   .     S
Cu827  O843    1.989   .     S
Cu827  O846    1.982   .     S
Cu828  O1037   1.982   1_545 S
Cu828  O1036   1.989   1_545 S
Cu828  N840    2.029   .     S
Cu828  O842    1.981   .     S
Cu828  O847    1.979   .     S
H829   O945    0.977   1_455 S
H830   O946    0.977   .     S
H831   O947    0.976   .     S
H832   O949    0.976   1_455 S
H833   O854    0.977   .     S
H834   O855    0.977   .     S
H835   O856    0.976   .     S
H836   O857    0.976   .     S
N837   C884    1.380   1_455 A
N838   C920    1.377   1_455 A
N839   C984    1.380   1_545 A
N840   C981    1.377   1_545 S
O844   Cu1020  1.989   .     S
O845   Cu1020  1.982   .     S
O848   Cu1019  1.979   .     S
O849   H925    0.977   .     S
O850   H926    0.977   1_455 S
O851   H927    0.976   1_455 S
O852   Cu922   1.981   .     S
O853   H928    0.976   .     S
O858   Cu921   1.989   .     S
O860   Cu922   1.982   .     S
O863   Cu921   1.979   .     S
O864   Cu1019  1.981   .     S
Br865  C889    1.936   .     S
Br866  C899    1.936   .     S
Br867  C900    1.940   .     S
Br868  C901    1.940   .     S
Br869  C902    1.947   .     S
Br870  C904    1.947   .     S
Br871  C905    1.940   .     S
Br872  C906    1.940   .     S
Br873  C890    1.936   .     S
Br874  C891    1.940   .     S
Br875  C893    1.940   .     S
Br876  C894    1.946   .     S
Br877  C895    1.947   .     S
Br878  C896    1.940   .     S
Br879  C897    1.940   .     S
Br880  C898    1.936   .     S
C881   O937    1.306   .     A
C881   O955    1.301   .     A
C881   C910    1.473   .     S
C882   O946    1.376   .     S
C882   C115    1.406   1_556 S
C882   N933    1.377   .     S
C883   O947    1.377   .     S
C883   N934    1.380   .     S
C884   O949    1.377   .     S
C884   N837    1.380   1_655 A
C884   C152    1.406   1_556 S
C885   O950    1.376   .     S
C885   N1128   1.377   .     S
C886   O951    1.376   .     S
C886   C119    1.406   1_556 S
C886   N935    1.377   .     S
C887   O952    1.377   .     S
C887   N936    1.380   .     A
C888   O953    1.377   .     S
C888   N1127   1.380   .     A
C888   C117    1.406   1_556 S
C889   C908    1.414   .     A
C889   C900    1.393   .     A
C890   C907    1.414   .     A
C890   C901    1.393   .     A
C891   C898    1.393   .     A
C891   C907    1.414   .     A
C892   O948    1.306   .     A
C892   C909    1.473   .     S
C892   O954    1.300   .     A
C893   C908    1.414   .     A
C893   C899    1.393   .     A
C894   C905    1.395   .     A
C894   C910    1.414   .     A
C895   C906    1.395   .     A
C895   C909    1.414   .     A
C896   C909    1.419   .     A
C896   C902    1.395   .     A
C897   C910    1.419   .     A
C897   C904    1.395   .     A
C898   C912    1.414   .     A
C899   C911    1.414   .     A
C900   C911    1.414   .     A
C901   C912    1.414   .     A
C902   C915    1.414   .     A
C903   O956    1.304   .     A
C903   O959    1.304   .     A
C903   C908    1.474   .     S
C904   C913    1.414   .     A
C905   C913    1.419   .     A
C906   C915    1.419   .     A
C907   C914    1.474   .     S
C911   C919    1.474   .     S
C912   C918    1.474   .     S
C913   C917    1.473   .     S
C914   O957    1.304   .     A
C914   O958    1.304   .     A
C915   C916    1.473   .     S
C916   O940    1.300   .     A
C916   O960    1.306   .     A
C917   O938    1.306   .     A
C917   O939    1.301   .     A
C918   O941    1.304   .     A
C918   O944    1.304   .     A
C919   O942    1.304   .     A
C919   O943    1.304   .     A
C920   O945    1.376   .     S
C920   N838    1.377   1_655 A
Cu921  O937    1.981   .     S
Cu921  O957    1.982   .     S
Cu921  Cu922   2.700   .     S
Cu921  N933    2.029   .     S
Cu922  N934    2.029   .     S
Cu922  O955    1.989   .     S
Cu922  O958    1.979   .     S
Cu923  Cu924   2.700   .     S
Cu923  O1152   1.981   1_545 S
Cu923  O1136   1.979   1_545 S
Cu923  N935    2.029   .     S
Cu923  O939    1.989   .     S
Cu923  O942    1.982   .     S
Cu924  O1133   1.982   1_545 S
Cu924  O1132   1.989   1_545 S
Cu924  N936    2.029   .     S
Cu924  O938    1.981   .     S
Cu924  O943    1.979   .     S
H926   O850    0.977   1_655 S
H927   O851    0.976   1_655 S
H929   O950    0.977   .     S
H930   O951    0.977   .     S
H931   O952    0.976   .     S
H932   O953    0.976   .     S
N935   C1080   1.380   1_545 A
N936   C1077   1.377   1_545 S
O940   Cu1116  1.989   .     S
O941   Cu1116  1.982   .     S
O944   Cu1115  1.979   .     S
O945   H829    0.977   1_655 S
O948   Cu826   1.981   1_655 S
O949   H832    0.976   1_655 S
O954   Cu825   1.989   1_655 S
O956   Cu826   1.982   1_655 S
O959   Cu825   1.979   1_655 S
O960   Cu1115  1.981   .     S
Br961  C985    1.936   .     S
Br962  C995    1.936   .     S
Br963  C996    1.940   .     S
Br964  C997    1.940   .     S
Br965  C998    1.947   .     S
Br966  C1000   1.947   .     S
Br967  C1001   1.940   .     S
Br968  C1002   1.940   .     S
Br969  C986    1.936   .     S
Br970  C987    1.940   .     S
Br971  C989    1.940   .     S
Br972  C990    1.946   .     S
Br973  C991    1.947   .     S
Br974  C992    1.940   .     S
Br975  C993    1.940   .     S
Br976  C994    1.936   .     S
C977   O1033   1.306   .     A
C977   O1051   1.301   .     A
C977   C1006   1.473   .     S
C978   O1042   1.376   .     S
C978   C211    1.406   1_556 S
C978   N1029   1.377   .     S
C979   O1043   1.377   .     S
C979   N1030   1.380   .     S
C980   O1045   1.377   .     S
C980   N1125   1.380   .     A
C980   C248    1.406   1_556 S
C981   O1046   1.376   .     S
C981   N840    1.377   1_565 S
C982   O1047   1.376   .     S
C982   C215    1.406   1_556 S
C982   N1031   1.377   .     S
C983   O1048   1.377   .     S
C983   N1032   1.380   .     A
C984   O1049   1.377   .     S
C984   N839    1.380   1_565 A
C984   C213    1.406   1_556 S
C985   C1004   1.414   .     A
C985   C996    1.393   .     A
C986   C1003   1.414   .     A
C986   C997    1.393   .     A
C987   C994    1.393   .     A
C987   C1003   1.414   .     A
C988   O1044   1.306   .     A
C988   C1005   1.473   .     S
C988   O1050   1.300   .     A
C989   C1004   1.414   .     A
C989   C995    1.393   .     A
C990   C1001   1.395   .     A
C990   C1006   1.414   .     A
C991   C1002   1.395   .     A
C991   C1005   1.414   .     A
C992   C1005   1.419   .     A
C992   C998    1.395   .     A
C993   C1006   1.419   .     A
C993   C1000   1.395   .     A
C994   C1008   1.414   .     A
C995   C1007   1.414   .     A
C996   C1007   1.414   .     A
C997   C1008   1.414   .     A
C998   C1011   1.414   .     A
C999   O1052   1.304   .     A
C999   O1055   1.304   .     A
C999   C1004   1.474   .     S
C1000  C1009   1.414   .     A
C1001  C1009   1.419   .     A
C1002  C1011   1.419   .     A
C1003  C1010   1.474   .     S
C1007  C1015   1.474   .     S
C1008  C1014   1.474   .     S
C1009  C1013   1.473   .     S
C1010  O1053   1.304   .     A
C1010  O1054   1.304   .     A
C1011  C1012   1.473   .     S
C1012  O1036   1.300   .     A
C1012  O1056   1.306   .     A
C1013  O1034   1.306   .     A
C1013  O1035   1.301   .     A
C1014  O1037   1.304   .     A
C1014  O1040   1.304   .     A
C1015  O1038   1.304   .     A
C1015  O1039   1.304   .     A
C1016  O1041   1.376   .     S
C1016  N1126   1.377   .     A
Cu1017 O1033   1.981   .     S
Cu1017 O1053   1.982   .     S
Cu1017 Cu1018  2.700   .     S
Cu1017 N1029   2.029   .     S
Cu1017 O1146   1.989   1_455 S
Cu1017 O1151   1.979   1_455 S
Cu1018 N1030   2.029   .     S
Cu1018 O1140   1.981   1_455 S
Cu1018 O1148   1.982   1_455 S
Cu1018 O1051   1.989   .     S
Cu1018 O1054   1.979   .     S
Cu1019 Cu1020  2.700   .     S
Cu1019 N1031   2.029   .     S
Cu1019 O1035   1.989   .     S
Cu1019 O1038   1.982   .     S
Cu1020 N1032   2.029   .     S
Cu1020 O1034   1.981   .     S
Cu1020 O1039   1.979   .     S
H1021  O1137   0.977   1_455 S
H1022  O1138   0.977   .     S
H1023  O1139   0.976   .     S
H1024  O1141   0.976   1_455 S
H1025  O1046   0.977   .     S
H1026  O1047   0.977   .     S
H1027  O1048   0.976   .     S
H1028  O1049   0.976   .     S
N1029  C1076   1.380   1_455 A
N1030  C1112   1.377   1_455 A
O1036  Cu828   1.989   1_565 S
O1037  Cu828   1.982   1_565 S
O1040  Cu827   1.979   1_565 S
O1041  H1117   0.977   .     S
O1042  H1118   0.977   1_455 S
O1043  H1119   0.976   1_455 S
O1044  Cu1114  1.981   .     S
O1045  H1120   0.976   .     S
O1050  Cu1113  1.989   .     S
O1052  Cu1114  1.982   .     S
O1055  Cu1113  1.979   .     S
O1056  Cu827   1.981   1_565 S
Br1057 C1081   1.936   .     S
Br1058 C1091   1.936   .     S
Br1059 C1092   1.940   .     S
Br1060 C1093   1.940   .     S
Br1061 C1094   1.947   .     S
Br1062 C1096   1.947   .     S
Br1063 C1097   1.940   .     S
Br1064 C1098   1.940   .     S
Br1065 C1082   1.936   .     S
Br1066 C1083   1.940   .     S
Br1067 C1085   1.940   .     S
Br1068 C1086   1.946   .     S
Br1069 C1087   1.947   .     S
Br1070 C1088   1.940   .     S
Br1071 C1089   1.940   .     S
Br1072 C1090   1.936   .     S
C1073  O1129   1.306   .     A
C1073  O1147   1.301   .     A
C1073  C1102   1.473   .     S
C1074  O1138   1.376   .     S
C1074  C307    1.406   1_556 S
C1074  N1125   1.377   .     S
C1075  O1139   1.377   .     S
C1075  N1126   1.380   .     S
C1076  O1141   1.377   .     S
C1076  N1029   1.380   1_655 A
C1076  C344    1.406   1_556 S
C1077  O1142   1.376   .     S
C1077  N936    1.377   1_565 S
C1078  O1143   1.376   .     S
C1078  C311    1.406   1_556 S
C1078  N1127   1.377   .     S
C1079  O1144   1.377   .     S
C1079  N1128   1.380   .     A
C1080  O1145   1.377   .     S
C1080  N935    1.380   1_565 A
C1080  C309    1.406   1_556 S
C1081  C1100   1.414   .     A
C1081  C1092   1.393   .     A
C1082  C1099   1.414   .     A
C1082  C1093   1.393   .     A
C1083  C1090   1.393   .     A
C1083  C1099   1.414   .     A
C1084  O1140   1.306   .     A
C1084  C1101   1.473   .     S
C1084  O1146   1.300   .     A
C1085  C1100   1.414   .     A
C1085  C1091   1.393   .     A
C1086  C1097   1.395   .     A
C1086  C1102   1.414   .     A
C1087  C1098   1.395   .     A
C1087  C1101   1.414   .     A
C1088  C1101   1.419   .     A
C1088  C1094   1.395   .     A
C1089  C1102   1.419   .     A
C1089  C1096   1.395   .     A
C1090  C1104   1.414   .     A
C1091  C1103   1.414   .     A
C1092  C1103   1.414   .     A
C1093  C1104   1.414   .     A
C1094  C1107   1.414   .     A
C1095  O1148   1.304   .     A
C1095  O1151   1.304   .     A
C1095  C1100   1.474   .     S
C1096  C1105   1.414   .     A
C1097  C1105   1.419   .     A
C1098  C1107   1.419   .     A
C1099  C1106   1.474   .     S
C1103  C1111   1.474   .     S
C1104  C1110   1.474   .     S
C1105  C1109   1.473   .     S
C1106  O1149   1.304   .     A
C1106  O1150   1.304   .     A
C1107  C1108   1.473   .     S
C1108  O1132   1.300   .     A
C1108  O1152   1.306   .     A
C1109  O1130   1.306   .     A
C1109  O1131   1.301   .     A
C1110  O1133   1.304   .     A
C1110  O1136   1.304   .     A
C1111  O1134   1.304   .     A
C1111  O1135   1.304   .     A
C1112  O1137   1.376   .     S
C1112  N1030   1.377   1_655 A
Cu1113 O1129   1.981   .     S
Cu1113 O1149   1.982   .     S
Cu1113 Cu1114  2.700   .     S
Cu1113 N1125   2.029   .     S
Cu1114 N1126   2.029   .     S
Cu1114 O1147   1.989   .     S
Cu1114 O1150   1.979   .     S
Cu1115 Cu1116  2.700   .     S
Cu1115 N1127   2.029   .     S
Cu1115 O1131   1.989   .     S
Cu1115 O1134   1.982   .     S
Cu1116 N1128   2.029   .     S
Cu1116 O1130   1.981   .     S
Cu1116 O1135   1.979   .     S
H1118  O1042   0.977   1_655 S
H1119  O1043   0.976   1_655 S
H1121  O1142   0.977   .     S
H1122  O1143   0.977   .     S
H1123  O1144   0.976   .     S
H1124  O1145   0.976   .     S
O1132  Cu924   1.989   1_565 S
O1133  Cu924   1.982   1_565 S
O1136  Cu923   1.979   1_565 S
O1137  H1021   0.977   1_655 S
O1140  Cu1018  1.981   1_655 S
O1141  H1024   0.976   1_655 S
O1146  Cu1017  1.989   1_655 S
O1148  Cu1018  1.982   1_655 S
O1151  Cu1017  1.979   1_655 S
O1152  Cu923   1.981   1_565 S
