data_str_m2_o1_o16_pcu_sym.217
_audit_creation_date              2020-01-03
_audit_creation_method            'Materials Studio'
_symmetry_space_group_name_H-M    'P1'
_symmetry_Int_Tables_number       1
_symmetry_cell_setting            triclinic
loop_
_symmetry_equiv_pos_as_xyz
  x,y,z
_cell_length_a                    28.5707
_cell_length_b                    32.5349
_cell_length_c                    26.9658
_cell_angle_alpha                 90.7523
_cell_angle_beta                  73.0422
_cell_angle_gamma                 90.1370
loop_
_atom_site_label
_atom_site_type_symbol
_atom_site_fract_x
_atom_site_fract_y
_atom_site_fract_z
_atom_site_U_iso_or_equiv
_atom_site_adp_type
_atom_site_occupancy
C1     C     0.16647   0.24591   0.25080   0.00000  Uiso   1.00
C2     C     0.14831   0.14817   0.48709   0.00000  Uiso   1.00
C3     C     0.16353   0.14688   0.43210   0.00000  Uiso   1.00
C4     C     0.18418   0.15436   0.01371   0.00000  Uiso   1.00
C5     C     0.23410   0.15730   0.48483   0.00000  Uiso   1.00
C6     C     0.24865   0.14824   0.43212   0.00000  Uiso   1.00
C7     C     0.21390   0.14107   0.40663   0.00000  Uiso   1.00
C8     C     0.17214   0.15883   0.06780   0.00000  Uiso   1.00
C9     C     0.25754   0.17038   0.06281   0.00000  Uiso   1.00
C10    C     0.12773   0.15088   0.40492   0.00000  Uiso   1.00
C11    C     0.20711   0.31163   0.25702   0.00000  Uiso   1.00
C12    C     0.14118   0.16163   0.34932   0.00000  Uiso   1.00
C13    C     0.20640   0.02067   0.26152   0.00000  Uiso   1.00
C14    C     0.16427   0.04265   0.25914   0.00000  Uiso   1.00
C15    C     0.12094   0.02088   0.26094   0.00000  Uiso   1.00
C16    C     0.12229   0.31159   0.25708   0.00000  Uiso   1.00
C17    C     0.16552   0.29038   0.25406   0.00000  Uiso   1.00
C18    C     0.29972   0.19421   0.28074   0.00000  Uiso   1.00
C19    C     0.01689   0.19417   0.27982   0.00000  Uiso   1.00
C20    C     0.03348   0.13892   0.21952   0.00000  Uiso   1.00
C21    C     0.31630   0.13892   0.22060   0.00000  Uiso   1.00
C22    C     0.16573   0.08740   0.25343   0.00000  Uiso   1.00
C23    C     0.19286   0.16678   0.14993   0.00000  Uiso   1.00
C24    C     0.26945   0.16774   0.00908   0.00000  Uiso   1.00
C25    C     0.20828   0.16526   0.09285   0.00000  Uiso   1.00
C26    C     0.07826   0.14519   0.43200   0.00000  Uiso   1.00
C27    C     0.06425   0.13891   0.48518   0.00000  Uiso   1.00
C28    C     0.09809   0.14275   0.01287   0.00000  Uiso   1.00
Cu29   Cu    0.11978   0.16666   0.25000   0.00000  Uiso   1.00
Cu30   Cu    0.21355   0.16667   0.25000   0.00000  Uiso   1.00
H31    H     0.08931   0.29531   0.25653   0.00000  Uiso   1.00
H32    H     0.03081   0.21601   0.30247   0.00000  Uiso   1.00
H33    H     0.30208   0.11666   0.19878   0.00000  Uiso   1.00
H34    H     0.28711   0.14619   0.41056   0.00000  Uiso   1.00
H35    H     0.30669   0.17320   0.48597   0.00000  Uiso   1.00
H36    H     0.13471   0.15737   0.09141   0.00000  Uiso   1.00
H37    H     0.05041   0.14520   0.41202   0.00000  Uiso   1.00
H38    H     0.08384   0.14025   0.05417   0.00000  Uiso   1.00
H39    H     0.02670   0.13202   0.00571   0.00000  Uiso   1.00
H40    H     0.22773   0.12980   0.36731   0.00000  Uiso   1.00
H41    H     0.24010   0.29537   0.25732   0.00000  Uiso   1.00
N42    N     0.04931   0.16666   0.24998   0.00000  Uiso   1.00
N43    N     0.28402   0.16669   0.24999   0.00000  Uiso   1.00
O44    O     0.12708   0.22678   0.25000   0.00000  Uiso   1.00
O45    O     0.20627   0.22679   0.25000   0.00000  Uiso   1.00
O46    O     0.10775   0.16665   0.32549   0.00000  Uiso   1.00
O47    O     0.18694   0.16666   0.32549   0.00000  Uiso   1.00
O48    O     0.12706   0.10654   0.24999   0.00000  Uiso   1.00
O49    O     0.20625   0.10655   0.24999   0.00000  Uiso   1.00
O50    O     0.14640   0.16667   0.17451   0.00000  Uiso   1.00
O51    O     0.22559   0.16668   0.17451   0.00000  Uiso   1.00
O52    O     0.29455   0.17854   0.08453   0.00000  Uiso   1.00
H53    H     0.29752   0.15379   0.10446   0.00000  Uiso   1.00
O54    O     0.24708   0.03927   0.26910   0.00000  Uiso   1.00
H55    H     0.23525   0.05879   0.29865   0.00000  Uiso   1.00
O56    O     0.07753   0.04125   0.26486   0.00000  Uiso   1.00
C57    C     0.04597   0.03727   0.31583   0.00000  Uiso   1.00
H58    H     0.06582   0.03934   0.34586   0.00000  Uiso   1.00
H59    H     0.02642   0.00735   0.31944   0.00000  Uiso   1.00
C60    C     0.00840   0.07181   0.32696   0.00000  Uiso   1.00
H61    H     0.32242   0.07210   0.29679   0.00000  Uiso   1.00
H62    H     0.31456   0.06735   0.36543   0.00000  Uiso   1.00
H63    H     0.02684   0.10185   0.32722   0.00000  Uiso   1.00
O64    O     0.26516   0.22197   0.31003   0.00000  Uiso   1.00
C65    C     0.27838   0.24119   0.35120   0.00000  Uiso   1.00
H66    H     0.30609   0.26551   0.33593   0.00000  Uiso   1.00
H67    H     0.29249   0.21858   0.37399   0.00000  Uiso   1.00
C68    C     0.23327   0.26151   0.38767   0.00000  Uiso   1.00
H69    H     0.20476   0.23802   0.40362   0.00000  Uiso   1.00
H70    H     0.24307   0.27692   0.42024   0.00000  Uiso   1.00
H71    H     0.21837   0.28477   0.36651   0.00000  Uiso   1.00
O72    O     0.06740   0.10996   0.19191   0.00000  Uiso   1.00
C73    C     0.05689   0.09220   0.14820   0.00000  Uiso   1.00
H74    H     0.09216   0.08811   0.11740   0.00000  Uiso   1.00
H75    H     0.03420   0.11194   0.13093   0.00000  Uiso   1.00
C76    C     0.03454   0.04959   0.16094   0.00000  Uiso   1.00
H77    H     0.00134   0.05096   0.19476   0.00000  Uiso   1.00
H78    H     0.02451   0.03683   0.12703   0.00000  Uiso   1.00
H79    H     0.06148   0.02870   0.17007   0.00000  Uiso   1.00
C80    C     0.49980   0.24591   0.25080   0.00000  Uiso   1.00
C81    C     0.48165   0.14817   0.48709   0.00000  Uiso   1.00
C82    C     0.49686   0.14688   0.43210   0.00000  Uiso   1.00
C83    C     0.51751   0.15436   0.01371   0.00000  Uiso   1.00
C84    C     0.56744   0.15730   0.48483   0.00000  Uiso   1.00
C85    C     0.58198   0.14824   0.43212   0.00000  Uiso   1.00
C86    C     0.54724   0.14107   0.40663   0.00000  Uiso   1.00
C87    C     0.50547   0.15883   0.06780   0.00000  Uiso   1.00
C88    C     0.59087   0.17038   0.06281   0.00000  Uiso   1.00
C89    C     0.46106   0.15088   0.40492   0.00000  Uiso   1.00
C90    C     0.54044   0.31163   0.25702   0.00000  Uiso   1.00
C91    C     0.47451   0.16163   0.34932   0.00000  Uiso   1.00
C92    C     0.53973   0.02067   0.26152   0.00000  Uiso   1.00
C93    C     0.49761   0.04265   0.25914   0.00000  Uiso   1.00
C94    C     0.45427   0.02088   0.26094   0.00000  Uiso   1.00
C95    C     0.45562   0.31159   0.25708   0.00000  Uiso   1.00
C96    C     0.49886   0.29038   0.25406   0.00000  Uiso   1.00
C97    C     0.63306   0.19421   0.28074   0.00000  Uiso   1.00
C98    C     0.35023   0.19417   0.27982   0.00000  Uiso   1.00
C99    C     0.36681   0.13892   0.21952   0.00000  Uiso   1.00
C100   C     0.64963   0.13892   0.22060   0.00000  Uiso   1.00
C101   C     0.49906   0.08740   0.25343   0.00000  Uiso   1.00
C102   C     0.52619   0.16678   0.14993   0.00000  Uiso   1.00
C103   C     0.60278   0.16774   0.00908   0.00000  Uiso   1.00
C104   C     0.54162   0.16526   0.09285   0.00000  Uiso   1.00
C105   C     0.41160   0.14519   0.43200   0.00000  Uiso   1.00
C106   C     0.39758   0.13891   0.48518   0.00000  Uiso   1.00
C107   C     0.43143   0.14275   0.01287   0.00000  Uiso   1.00
Cu108  Cu    0.45311   0.16666   0.25000   0.00000  Uiso   1.00
Cu109  Cu    0.54689   0.16667   0.25000   0.00000  Uiso   1.00
H110   H     0.42265   0.29531   0.25653   0.00000  Uiso   1.00
H111   H     0.36415   0.21601   0.30247   0.00000  Uiso   1.00
H112   H     0.63541   0.11666   0.19878   0.00000  Uiso   1.00
H113   H     0.62044   0.14619   0.41056   0.00000  Uiso   1.00
H114   H     0.64003   0.17320   0.48597   0.00000  Uiso   1.00
H115   H     0.46804   0.15737   0.09141   0.00000  Uiso   1.00
H116   H     0.38374   0.14520   0.41202   0.00000  Uiso   1.00
H117   H     0.41718   0.14025   0.05417   0.00000  Uiso   1.00
H118   H     0.36003   0.13202   0.00571   0.00000  Uiso   1.00
H119   H     0.56106   0.12980   0.36731   0.00000  Uiso   1.00
H120   H     0.57343   0.29537   0.25732   0.00000  Uiso   1.00
N121   N     0.38265   0.16666   0.24998   0.00000  Uiso   1.00
N122   N     0.61735   0.16669   0.24999   0.00000  Uiso   1.00
O123   O     0.46042   0.22678   0.25000   0.00000  Uiso   1.00
O124   O     0.53961   0.22679   0.25000   0.00000  Uiso   1.00
O125   O     0.44108   0.16665   0.32549   0.00000  Uiso   1.00
O126   O     0.52027   0.16666   0.32549   0.00000  Uiso   1.00
O127   O     0.46039   0.10654   0.24999   0.00000  Uiso   1.00
O128   O     0.53958   0.10655   0.24999   0.00000  Uiso   1.00
O129   O     0.47973   0.16667   0.17451   0.00000  Uiso   1.00
O130   O     0.55892   0.16668   0.17451   0.00000  Uiso   1.00
O131   O     0.62788   0.17854   0.08453   0.00000  Uiso   1.00
H132   H     0.63085   0.15379   0.10446   0.00000  Uiso   1.00
O133   O     0.58041   0.03927   0.26910   0.00000  Uiso   1.00
H134   H     0.56858   0.05879   0.29865   0.00000  Uiso   1.00
O135   O     0.41086   0.04125   0.26486   0.00000  Uiso   1.00
C136   C     0.37930   0.03727   0.31583   0.00000  Uiso   1.00
H137   H     0.39916   0.03934   0.34586   0.00000  Uiso   1.00
H138   H     0.35975   0.00735   0.31944   0.00000  Uiso   1.00
C139   C     0.34173   0.07181   0.32696   0.00000  Uiso   1.00
H140   H     0.65575   0.07210   0.29679   0.00000  Uiso   1.00
H141   H     0.64789   0.06735   0.36543   0.00000  Uiso   1.00
H142   H     0.36017   0.10185   0.32722   0.00000  Uiso   1.00
O143   O     0.59849   0.22197   0.31003   0.00000  Uiso   1.00
C144   C     0.61172   0.24119   0.35120   0.00000  Uiso   1.00
H145   H     0.63942   0.26551   0.33593   0.00000  Uiso   1.00
H146   H     0.62582   0.21858   0.37399   0.00000  Uiso   1.00
C147   C     0.56661   0.26151   0.38767   0.00000  Uiso   1.00
H148   H     0.53809   0.23802   0.40362   0.00000  Uiso   1.00
H149   H     0.57641   0.27692   0.42024   0.00000  Uiso   1.00
H150   H     0.55170   0.28477   0.36651   0.00000  Uiso   1.00
O151   O     0.40073   0.10996   0.19191   0.00000  Uiso   1.00
C152   C     0.39022   0.09220   0.14820   0.00000  Uiso   1.00
H153   H     0.42550   0.08811   0.11740   0.00000  Uiso   1.00
H154   H     0.36753   0.11194   0.13093   0.00000  Uiso   1.00
C155   C     0.36787   0.04959   0.16094   0.00000  Uiso   1.00
H156   H     0.33467   0.05096   0.19476   0.00000  Uiso   1.00
H157   H     0.35785   0.03683   0.12703   0.00000  Uiso   1.00
H158   H     0.39482   0.02870   0.17007   0.00000  Uiso   1.00
C159   C     0.83313   0.24591   0.25080   0.00000  Uiso   1.00
C160   C     0.81498   0.14817   0.48709   0.00000  Uiso   1.00
C161   C     0.83019   0.14688   0.43210   0.00000  Uiso   1.00
C162   C     0.85084   0.15436   0.01371   0.00000  Uiso   1.00
C163   C     0.90077   0.15730   0.48483   0.00000  Uiso   1.00
C164   C     0.91531   0.14824   0.43212   0.00000  Uiso   1.00
C165   C     0.88057   0.14107   0.40663   0.00000  Uiso   1.00
C166   C     0.83881   0.15883   0.06780   0.00000  Uiso   1.00
C167   C     0.92421   0.17038   0.06281   0.00000  Uiso   1.00
C168   C     0.79439   0.15088   0.40492   0.00000  Uiso   1.00
C169   C     0.87378   0.31163   0.25702   0.00000  Uiso   1.00
C170   C     0.80784   0.16163   0.34932   0.00000  Uiso   1.00
C171   C     0.87306   0.02067   0.26152   0.00000  Uiso   1.00
C172   C     0.83094   0.04265   0.25914   0.00000  Uiso   1.00
C173   C     0.78760   0.02088   0.26094   0.00000  Uiso   1.00
C174   C     0.78896   0.31159   0.25708   0.00000  Uiso   1.00
C175   C     0.83219   0.29038   0.25406   0.00000  Uiso   1.00
C176   C     0.96639   0.19421   0.28074   0.00000  Uiso   1.00
C177   C     0.68356   0.19417   0.27982   0.00000  Uiso   1.00
C178   C     0.70014   0.13892   0.21952   0.00000  Uiso   1.00
C179   C     0.98296   0.13892   0.22060   0.00000  Uiso   1.00
C180   C     0.83240   0.08740   0.25343   0.00000  Uiso   1.00
C181   C     0.85953   0.16678   0.14993   0.00000  Uiso   1.00
C182   C     0.93612   0.16774   0.00908   0.00000  Uiso   1.00
C183   C     0.87495   0.16526   0.09285   0.00000  Uiso   1.00
C184   C     0.74493   0.14519   0.43200   0.00000  Uiso   1.00
C185   C     0.73091   0.13891   0.48518   0.00000  Uiso   1.00
C186   C     0.76476   0.14275   0.01287   0.00000  Uiso   1.00
Cu187  Cu    0.78645   0.16666   0.25000   0.00000  Uiso   1.00
Cu188  Cu    0.88022   0.16667   0.25000   0.00000  Uiso   1.00
H189   H     0.75598   0.29531   0.25653   0.00000  Uiso   1.00
H190   H     0.69748   0.21601   0.30247   0.00000  Uiso   1.00
H191   H     0.96874   0.11666   0.19878   0.00000  Uiso   1.00
H192   H     0.95377   0.14619   0.41056   0.00000  Uiso   1.00
H193   H     0.97336   0.17320   0.48597   0.00000  Uiso   1.00
H194   H     0.80137   0.15737   0.09141   0.00000  Uiso   1.00
H195   H     0.71708   0.14520   0.41202   0.00000  Uiso   1.00
H196   H     0.75051   0.14025   0.05417   0.00000  Uiso   1.00
H197   H     0.69337   0.13202   0.00571   0.00000  Uiso   1.00
H198   H     0.89439   0.12980   0.36731   0.00000  Uiso   1.00
H199   H     0.90676   0.29537   0.25732   0.00000  Uiso   1.00
N200   N     0.71598   0.16666   0.24998   0.00000  Uiso   1.00
N201   N     0.95069   0.16669   0.24999   0.00000  Uiso   1.00
O202   O     0.79375   0.22678   0.25000   0.00000  Uiso   1.00
O203   O     0.87294   0.22679   0.25000   0.00000  Uiso   1.00
O204   O     0.77441   0.16665   0.32549   0.00000  Uiso   1.00
O205   O     0.85360   0.16666   0.32549   0.00000  Uiso   1.00
O206   O     0.79373   0.10654   0.24999   0.00000  Uiso   1.00
O207   O     0.87292   0.10655   0.24999   0.00000  Uiso   1.00
O208   O     0.81306   0.16667   0.17451   0.00000  Uiso   1.00
O209   O     0.89225   0.16668   0.17451   0.00000  Uiso   1.00
O210   O     0.96121   0.17854   0.08453   0.00000  Uiso   1.00
H211   H     0.96419   0.15379   0.10446   0.00000  Uiso   1.00
O212   O     0.91375   0.03927   0.26910   0.00000  Uiso   1.00
H213   H     0.90192   0.05879   0.29865   0.00000  Uiso   1.00
O214   O     0.74419   0.04125   0.26486   0.00000  Uiso   1.00
C215   C     0.71264   0.03727   0.31583   0.00000  Uiso   1.00
H216   H     0.73249   0.03934   0.34586   0.00000  Uiso   1.00
H217   H     0.69308   0.00735   0.31944   0.00000  Uiso   1.00
C218   C     0.67506   0.07181   0.32696   0.00000  Uiso   1.00
H219   H     0.98908   0.07210   0.29679   0.00000  Uiso   1.00
H220   H     0.98123   0.06735   0.36543   0.00000  Uiso   1.00
H221   H     0.69351   0.10185   0.32722   0.00000  Uiso   1.00
O222   O     0.93182   0.22197   0.31003   0.00000  Uiso   1.00
C223   C     0.94505   0.24119   0.35120   0.00000  Uiso   1.00
H224   H     0.97275   0.26551   0.33593   0.00000  Uiso   1.00
H225   H     0.95916   0.21858   0.37399   0.00000  Uiso   1.00
C226   C     0.89994   0.26151   0.38767   0.00000  Uiso   1.00
H227   H     0.87142   0.23802   0.40362   0.00000  Uiso   1.00
H228   H     0.90974   0.27692   0.42024   0.00000  Uiso   1.00
H229   H     0.88503   0.28477   0.36651   0.00000  Uiso   1.00
O230   O     0.73406   0.10996   0.19191   0.00000  Uiso   1.00
C231   C     0.72356   0.09220   0.14820   0.00000  Uiso   1.00
H232   H     0.75883   0.08811   0.11740   0.00000  Uiso   1.00
H233   H     0.70087   0.11194   0.13093   0.00000  Uiso   1.00
C234   C     0.70120   0.04959   0.16094   0.00000  Uiso   1.00
H235   H     0.66801   0.05096   0.19476   0.00000  Uiso   1.00
H236   H     0.69118   0.03683   0.12703   0.00000  Uiso   1.00
H237   H     0.72815   0.02870   0.17007   0.00000  Uiso   1.00
C238   C     0.16647   0.57924   0.25080   0.00000  Uiso   1.00
C239   C     0.14831   0.48150   0.48709   0.00000  Uiso   1.00
C240   C     0.16353   0.48022   0.43210   0.00000  Uiso   1.00
C241   C     0.18418   0.48769   0.01371   0.00000  Uiso   1.00
C242   C     0.23410   0.49063   0.48483   0.00000  Uiso   1.00
C243   C     0.24865   0.48158   0.43212   0.00000  Uiso   1.00
C244   C     0.21390   0.47441   0.40663   0.00000  Uiso   1.00
C245   C     0.17214   0.49216   0.06780   0.00000  Uiso   1.00
C246   C     0.25754   0.50371   0.06281   0.00000  Uiso   1.00
C247   C     0.12773   0.48421   0.40492   0.00000  Uiso   1.00
C248   C     0.20711   0.64497   0.25702   0.00000  Uiso   1.00
C249   C     0.14118   0.49496   0.34932   0.00000  Uiso   1.00
C250   C     0.20640   0.35400   0.26152   0.00000  Uiso   1.00
C251   C     0.16427   0.37598   0.25914   0.00000  Uiso   1.00
C252   C     0.12094   0.35421   0.26094   0.00000  Uiso   1.00
C253   C     0.12229   0.64493   0.25708   0.00000  Uiso   1.00
C254   C     0.16552   0.62371   0.25406   0.00000  Uiso   1.00
C255   C     0.29972   0.52754   0.28074   0.00000  Uiso   1.00
C256   C     0.01689   0.52750   0.27982   0.00000  Uiso   1.00
C257   C     0.03348   0.47225   0.21952   0.00000  Uiso   1.00
C258   C     0.31630   0.47226   0.22060   0.00000  Uiso   1.00
C259   C     0.16573   0.42073   0.25343   0.00000  Uiso   1.00
C260   C     0.19286   0.50012   0.14993   0.00000  Uiso   1.00
C261   C     0.26945   0.50107   0.00908   0.00000  Uiso   1.00
C262   C     0.20828   0.49860   0.09285   0.00000  Uiso   1.00
C263   C     0.07826   0.47853   0.43200   0.00000  Uiso   1.00
C264   C     0.06425   0.47225   0.48518   0.00000  Uiso   1.00
C265   C     0.09809   0.47608   0.01287   0.00000  Uiso   1.00
Cu266  Cu    0.11978   0.49999   0.25000   0.00000  Uiso   1.00
Cu267  Cu    0.21355   0.50001   0.25000   0.00000  Uiso   1.00
H268   H     0.08931   0.62864   0.25653   0.00000  Uiso   1.00
H269   H     0.03081   0.54935   0.30247   0.00000  Uiso   1.00
H270   H     0.30208   0.44999   0.19878   0.00000  Uiso   1.00
H271   H     0.28711   0.47952   0.41056   0.00000  Uiso   1.00
H272   H     0.30669   0.50653   0.48597   0.00000  Uiso   1.00
H273   H     0.13471   0.49071   0.09141   0.00000  Uiso   1.00
H274   H     0.05041   0.47853   0.41202   0.00000  Uiso   1.00
H275   H     0.08384   0.47359   0.05417   0.00000  Uiso   1.00
H276   H     0.02670   0.46536   0.00571   0.00000  Uiso   1.00
H277   H     0.22773   0.46313   0.36731   0.00000  Uiso   1.00
H278   H     0.24010   0.62871   0.25732   0.00000  Uiso   1.00
N279   N     0.04931   0.49999   0.24998   0.00000  Uiso   1.00
N280   N     0.28402   0.50002   0.24999   0.00000  Uiso   1.00
O281   O     0.12708   0.56011   0.25000   0.00000  Uiso   1.00
O282   O     0.20627   0.56012   0.25000   0.00000  Uiso   1.00
O283   O     0.10775   0.49998   0.32549   0.00000  Uiso   1.00
O284   O     0.18694   0.49999   0.32549   0.00000  Uiso   1.00
O285   O     0.12706   0.43988   0.24999   0.00000  Uiso   1.00
O286   O     0.20625   0.43989   0.24999   0.00000  Uiso   1.00
O287   O     0.14640   0.50001   0.17451   0.00000  Uiso   1.00
O288   O     0.22559   0.50002   0.17451   0.00000  Uiso   1.00
O289   O     0.29455   0.51187   0.08453   0.00000  Uiso   1.00
H290   H     0.29752   0.48713   0.10446   0.00000  Uiso   1.00
O291   O     0.24708   0.37260   0.26910   0.00000  Uiso   1.00
H292   H     0.23525   0.39213   0.29865   0.00000  Uiso   1.00
O293   O     0.07753   0.37458   0.26486   0.00000  Uiso   1.00
C294   C     0.04597   0.37060   0.31583   0.00000  Uiso   1.00
H295   H     0.06582   0.37267   0.34586   0.00000  Uiso   1.00
H296   H     0.02642   0.34068   0.31944   0.00000  Uiso   1.00
C297   C     0.00840   0.40514   0.32696   0.00000  Uiso   1.00
H298   H     0.32242   0.40543   0.29679   0.00000  Uiso   1.00
H299   H     0.31456   0.40068   0.36543   0.00000  Uiso   1.00
H300   H     0.02684   0.43519   0.32722   0.00000  Uiso   1.00
O301   O     0.26516   0.55530   0.31003   0.00000  Uiso   1.00
C302   C     0.27838   0.57452   0.35120   0.00000  Uiso   1.00
H303   H     0.30609   0.59884   0.33593   0.00000  Uiso   1.00
H304   H     0.29249   0.55192   0.37399   0.00000  Uiso   1.00
C305   C     0.23327   0.59484   0.38767   0.00000  Uiso   1.00
H306   H     0.20476   0.57135   0.40362   0.00000  Uiso   1.00
H307   H     0.24307   0.61026   0.42024   0.00000  Uiso   1.00
H308   H     0.21837   0.61810   0.36651   0.00000  Uiso   1.00
O309   O     0.06740   0.44329   0.19191   0.00000  Uiso   1.00
C310   C     0.05689   0.42553   0.14820   0.00000  Uiso   1.00
H311   H     0.09216   0.42144   0.11740   0.00000  Uiso   1.00
H312   H     0.03420   0.44527   0.13093   0.00000  Uiso   1.00
C313   C     0.03454   0.38293   0.16094   0.00000  Uiso   1.00
H314   H     0.00134   0.38429   0.19476   0.00000  Uiso   1.00
H315   H     0.02451   0.37016   0.12703   0.00000  Uiso   1.00
H316   H     0.06148   0.36203   0.17007   0.00000  Uiso   1.00
C317   C     0.49980   0.57924   0.25080   0.00000  Uiso   1.00
C318   C     0.48165   0.48150   0.48709   0.00000  Uiso   1.00
C319   C     0.49686   0.48022   0.43210   0.00000  Uiso   1.00
C320   C     0.51751   0.48769   0.01371   0.00000  Uiso   1.00
C321   C     0.56744   0.49063   0.48483   0.00000  Uiso   1.00
C322   C     0.58198   0.48158   0.43212   0.00000  Uiso   1.00
C323   C     0.54724   0.47441   0.40663   0.00000  Uiso   1.00
C324   C     0.50547   0.49216   0.06780   0.00000  Uiso   1.00
C325   C     0.59087   0.50371   0.06281   0.00000  Uiso   1.00
C326   C     0.46106   0.48421   0.40492   0.00000  Uiso   1.00
C327   C     0.54044   0.64497   0.25702   0.00000  Uiso   1.00
C328   C     0.47451   0.49496   0.34932   0.00000  Uiso   1.00
C329   C     0.53973   0.35400   0.26152   0.00000  Uiso   1.00
C330   C     0.49761   0.37598   0.25914   0.00000  Uiso   1.00
C331   C     0.45427   0.35421   0.26094   0.00000  Uiso   1.00
C332   C     0.45562   0.64493   0.25708   0.00000  Uiso   1.00
C333   C     0.49886   0.62371   0.25406   0.00000  Uiso   1.00
C334   C     0.63306   0.52754   0.28074   0.00000  Uiso   1.00
C335   C     0.35023   0.52750   0.27982   0.00000  Uiso   1.00
C336   C     0.36681   0.47225   0.21952   0.00000  Uiso   1.00
C337   C     0.64963   0.47226   0.22060   0.00000  Uiso   1.00
C338   C     0.49906   0.42073   0.25343   0.00000  Uiso   1.00
C339   C     0.52619   0.50012   0.14993   0.00000  Uiso   1.00
C340   C     0.60278   0.50107   0.00908   0.00000  Uiso   1.00
C341   C     0.54162   0.49860   0.09285   0.00000  Uiso   1.00
C342   C     0.41160   0.47853   0.43200   0.00000  Uiso   1.00
C343   C     0.39758   0.47225   0.48518   0.00000  Uiso   1.00
C344   C     0.43143   0.47608   0.01287   0.00000  Uiso   1.00
Cu345  Cu    0.45311   0.49999   0.25000   0.00000  Uiso   1.00
Cu346  Cu    0.54689   0.50001   0.25000   0.00000  Uiso   1.00
H347   H     0.42265   0.62864   0.25653   0.00000  Uiso   1.00
H348   H     0.36415   0.54935   0.30247   0.00000  Uiso   1.00
H349   H     0.63541   0.44999   0.19878   0.00000  Uiso   1.00
H350   H     0.62044   0.47952   0.41056   0.00000  Uiso   1.00
H351   H     0.64003   0.50653   0.48597   0.00000  Uiso   1.00
H352   H     0.46804   0.49071   0.09141   0.00000  Uiso   1.00
H353   H     0.38374   0.47853   0.41202   0.00000  Uiso   1.00
H354   H     0.41718   0.47359   0.05417   0.00000  Uiso   1.00
H355   H     0.36003   0.46536   0.00571   0.00000  Uiso   1.00
H356   H     0.56106   0.46313   0.36731   0.00000  Uiso   1.00
H357   H     0.57343   0.62871   0.25732   0.00000  Uiso   1.00
N358   N     0.38265   0.49999   0.24998   0.00000  Uiso   1.00
N359   N     0.61735   0.50002   0.24999   0.00000  Uiso   1.00
O360   O     0.46042   0.56011   0.25000   0.00000  Uiso   1.00
O361   O     0.53961   0.56012   0.25000   0.00000  Uiso   1.00
O362   O     0.44108   0.49998   0.32549   0.00000  Uiso   1.00
O363   O     0.52027   0.49999   0.32549   0.00000  Uiso   1.00
O364   O     0.46039   0.43988   0.24999   0.00000  Uiso   1.00
O365   O     0.53958   0.43989   0.24999   0.00000  Uiso   1.00
O366   O     0.47973   0.50001   0.17451   0.00000  Uiso   1.00
O367   O     0.55892   0.50002   0.17451   0.00000  Uiso   1.00
O368   O     0.62788   0.51187   0.08453   0.00000  Uiso   1.00
H369   H     0.63085   0.48713   0.10446   0.00000  Uiso   1.00
O370   O     0.58041   0.37260   0.26910   0.00000  Uiso   1.00
H371   H     0.56858   0.39213   0.29865   0.00000  Uiso   1.00
O372   O     0.41086   0.37458   0.26486   0.00000  Uiso   1.00
C373   C     0.37930   0.37060   0.31583   0.00000  Uiso   1.00
H374   H     0.39916   0.37267   0.34586   0.00000  Uiso   1.00
H375   H     0.35975   0.34068   0.31944   0.00000  Uiso   1.00
C376   C     0.34173   0.40514   0.32696   0.00000  Uiso   1.00
H377   H     0.65575   0.40543   0.29679   0.00000  Uiso   1.00
H378   H     0.64789   0.40068   0.36543   0.00000  Uiso   1.00
H379   H     0.36017   0.43519   0.32722   0.00000  Uiso   1.00
O380   O     0.59849   0.55530   0.31003   0.00000  Uiso   1.00
C381   C     0.61172   0.57452   0.35120   0.00000  Uiso   1.00
H382   H     0.63942   0.59884   0.33593   0.00000  Uiso   1.00
H383   H     0.62582   0.55192   0.37399   0.00000  Uiso   1.00
C384   C     0.56661   0.59484   0.38767   0.00000  Uiso   1.00
H385   H     0.53809   0.57135   0.40362   0.00000  Uiso   1.00
H386   H     0.57641   0.61026   0.42024   0.00000  Uiso   1.00
H387   H     0.55170   0.61810   0.36651   0.00000  Uiso   1.00
O388   O     0.40073   0.44329   0.19191   0.00000  Uiso   1.00
C389   C     0.39022   0.42553   0.14820   0.00000  Uiso   1.00
H390   H     0.42550   0.42144   0.11740   0.00000  Uiso   1.00
H391   H     0.36753   0.44527   0.13093   0.00000  Uiso   1.00
C392   C     0.36787   0.38293   0.16094   0.00000  Uiso   1.00
H393   H     0.33467   0.38429   0.19476   0.00000  Uiso   1.00
H394   H     0.35785   0.37016   0.12703   0.00000  Uiso   1.00
H395   H     0.39482   0.36203   0.17007   0.00000  Uiso   1.00
C396   C     0.83313   0.57924   0.25080   0.00000  Uiso   1.00
C397   C     0.81498   0.48150   0.48709   0.00000  Uiso   1.00
C398   C     0.83019   0.48022   0.43210   0.00000  Uiso   1.00
C399   C     0.85084   0.48769   0.01371   0.00000  Uiso   1.00
C400   C     0.90077   0.49063   0.48483   0.00000  Uiso   1.00
C401   C     0.91531   0.48158   0.43212   0.00000  Uiso   1.00
C402   C     0.88057   0.47441   0.40663   0.00000  Uiso   1.00
C403   C     0.83881   0.49216   0.06780   0.00000  Uiso   1.00
C404   C     0.92421   0.50371   0.06281   0.00000  Uiso   1.00
C405   C     0.79439   0.48421   0.40492   0.00000  Uiso   1.00
C406   C     0.87378   0.64497   0.25702   0.00000  Uiso   1.00
C407   C     0.80784   0.49496   0.34932   0.00000  Uiso   1.00
C408   C     0.87306   0.35400   0.26152   0.00000  Uiso   1.00
C409   C     0.83094   0.37598   0.25914   0.00000  Uiso   1.00
C410   C     0.78760   0.35421   0.26094   0.00000  Uiso   1.00
C411   C     0.78896   0.64493   0.25708   0.00000  Uiso   1.00
C412   C     0.83219   0.62371   0.25406   0.00000  Uiso   1.00
C413   C     0.96639   0.52754   0.28074   0.00000  Uiso   1.00
C414   C     0.68356   0.52750   0.27982   0.00000  Uiso   1.00
C415   C     0.70014   0.47225   0.21952   0.00000  Uiso   1.00
C416   C     0.98296   0.47226   0.22060   0.00000  Uiso   1.00
C417   C     0.83240   0.42073   0.25343   0.00000  Uiso   1.00
C418   C     0.85953   0.50012   0.14993   0.00000  Uiso   1.00
C419   C     0.93612   0.50107   0.00908   0.00000  Uiso   1.00
C420   C     0.87495   0.49860   0.09285   0.00000  Uiso   1.00
C421   C     0.74493   0.47853   0.43200   0.00000  Uiso   1.00
C422   C     0.73091   0.47225   0.48518   0.00000  Uiso   1.00
C423   C     0.76476   0.47608   0.01287   0.00000  Uiso   1.00
Cu424  Cu    0.78645   0.49999   0.25000   0.00000  Uiso   1.00
Cu425  Cu    0.88022   0.50001   0.25000   0.00000  Uiso   1.00
H426   H     0.75598   0.62864   0.25653   0.00000  Uiso   1.00
H427   H     0.69748   0.54935   0.30247   0.00000  Uiso   1.00
H428   H     0.96874   0.44999   0.19878   0.00000  Uiso   1.00
H429   H     0.95377   0.47952   0.41056   0.00000  Uiso   1.00
H430   H     0.97336   0.50653   0.48597   0.00000  Uiso   1.00
H431   H     0.80137   0.49071   0.09141   0.00000  Uiso   1.00
H432   H     0.71708   0.47853   0.41202   0.00000  Uiso   1.00
H433   H     0.75051   0.47359   0.05417   0.00000  Uiso   1.00
H434   H     0.69337   0.46536   0.00571   0.00000  Uiso   1.00
H435   H     0.89439   0.46313   0.36731   0.00000  Uiso   1.00
H436   H     0.90676   0.62871   0.25732   0.00000  Uiso   1.00
N437   N     0.71598   0.49999   0.24998   0.00000  Uiso   1.00
N438   N     0.95069   0.50002   0.24999   0.00000  Uiso   1.00
O439   O     0.79375   0.56011   0.25000   0.00000  Uiso   1.00
O440   O     0.87294   0.56012   0.25000   0.00000  Uiso   1.00
O441   O     0.77441   0.49998   0.32549   0.00000  Uiso   1.00
O442   O     0.85360   0.49999   0.32549   0.00000  Uiso   1.00
O443   O     0.79373   0.43988   0.24999   0.00000  Uiso   1.00
O444   O     0.87292   0.43989   0.24999   0.00000  Uiso   1.00
O445   O     0.81306   0.50001   0.17451   0.00000  Uiso   1.00
O446   O     0.89225   0.50002   0.17451   0.00000  Uiso   1.00
O447   O     0.96121   0.51187   0.08453   0.00000  Uiso   1.00
H448   H     0.96419   0.48713   0.10446   0.00000  Uiso   1.00
O449   O     0.91375   0.37260   0.26910   0.00000  Uiso   1.00
H450   H     0.90192   0.39213   0.29865   0.00000  Uiso   1.00
O451   O     0.74419   0.37458   0.26486   0.00000  Uiso   1.00
C452   C     0.71264   0.37060   0.31583   0.00000  Uiso   1.00
H453   H     0.73249   0.37267   0.34586   0.00000  Uiso   1.00
H454   H     0.69308   0.34068   0.31944   0.00000  Uiso   1.00
C455   C     0.67506   0.40514   0.32696   0.00000  Uiso   1.00
H456   H     0.98908   0.40543   0.29679   0.00000  Uiso   1.00
H457   H     0.98123   0.40068   0.36543   0.00000  Uiso   1.00
H458   H     0.69351   0.43519   0.32722   0.00000  Uiso   1.00
O459   O     0.93182   0.55530   0.31003   0.00000  Uiso   1.00
C460   C     0.94505   0.57452   0.35120   0.00000  Uiso   1.00
H461   H     0.97275   0.59884   0.33593   0.00000  Uiso   1.00
H462   H     0.95916   0.55192   0.37399   0.00000  Uiso   1.00
C463   C     0.89994   0.59484   0.38767   0.00000  Uiso   1.00
H464   H     0.87142   0.57135   0.40362   0.00000  Uiso   1.00
H465   H     0.90974   0.61026   0.42024   0.00000  Uiso   1.00
H466   H     0.88503   0.61810   0.36651   0.00000  Uiso   1.00
O467   O     0.73406   0.44329   0.19191   0.00000  Uiso   1.00
C468   C     0.72356   0.42553   0.14820   0.00000  Uiso   1.00
H469   H     0.75883   0.42144   0.11740   0.00000  Uiso   1.00
H470   H     0.70087   0.44527   0.13093   0.00000  Uiso   1.00
C471   C     0.70120   0.38293   0.16094   0.00000  Uiso   1.00
H472   H     0.66801   0.38429   0.19476   0.00000  Uiso   1.00
H473   H     0.69118   0.37016   0.12703   0.00000  Uiso   1.00
H474   H     0.72815   0.36203   0.17007   0.00000  Uiso   1.00
C475   C     0.16647   0.91258   0.25080   0.00000  Uiso   1.00
C476   C     0.14831   0.81484   0.48709   0.00000  Uiso   1.00
C477   C     0.16353   0.81355   0.43210   0.00000  Uiso   1.00
C478   C     0.18418   0.82103   0.01371   0.00000  Uiso   1.00
C479   C     0.23410   0.82396   0.48483   0.00000  Uiso   1.00
C480   C     0.24865   0.81491   0.43212   0.00000  Uiso   1.00
C481   C     0.21390   0.80774   0.40663   0.00000  Uiso   1.00
C482   C     0.17214   0.82550   0.06780   0.00000  Uiso   1.00
C483   C     0.25754   0.83704   0.06281   0.00000  Uiso   1.00
C484   C     0.12773   0.81755   0.40492   0.00000  Uiso   1.00
C485   C     0.20711   0.97830   0.25702   0.00000  Uiso   1.00
C486   C     0.14118   0.82829   0.34932   0.00000  Uiso   1.00
C487   C     0.20640   0.68733   0.26152   0.00000  Uiso   1.00
C488   C     0.16427   0.70931   0.25914   0.00000  Uiso   1.00
C489   C     0.12094   0.68755   0.26094   0.00000  Uiso   1.00
C490   C     0.12229   0.97826   0.25708   0.00000  Uiso   1.00
C491   C     0.16552   0.95705   0.25406   0.00000  Uiso   1.00
C492   C     0.29972   0.86087   0.28074   0.00000  Uiso   1.00
C493   C     0.01689   0.86084   0.27982   0.00000  Uiso   1.00
C494   C     0.03348   0.80559   0.21952   0.00000  Uiso   1.00
C495   C     0.31630   0.80559   0.22060   0.00000  Uiso   1.00
C496   C     0.16573   0.75406   0.25343   0.00000  Uiso   1.00
C497   C     0.19286   0.83345   0.14993   0.00000  Uiso   1.00
C498   C     0.26945   0.83440   0.00908   0.00000  Uiso   1.00
C499   C     0.20828   0.83193   0.09285   0.00000  Uiso   1.00
C500   C     0.07826   0.81186   0.43200   0.00000  Uiso   1.00
C501   C     0.06425   0.80558   0.48518   0.00000  Uiso   1.00
C502   C     0.09809   0.80942   0.01287   0.00000  Uiso   1.00
Cu503  Cu    0.11978   0.83333   0.25000   0.00000  Uiso   1.00
Cu504  Cu    0.21355   0.83334   0.25000   0.00000  Uiso   1.00
H505   H     0.08931   0.96197   0.25653   0.00000  Uiso   1.00
H506   H     0.03081   0.88268   0.30247   0.00000  Uiso   1.00
H507   H     0.30208   0.78332   0.19878   0.00000  Uiso   1.00
H508   H     0.28711   0.81286   0.41056   0.00000  Uiso   1.00
H509   H     0.30669   0.83987   0.48597   0.00000  Uiso   1.00
H510   H     0.13471   0.82404   0.09141   0.00000  Uiso   1.00
H511   H     0.05041   0.81187   0.41202   0.00000  Uiso   1.00
H512   H     0.08384   0.80692   0.05417   0.00000  Uiso   1.00
H513   H     0.02670   0.79869   0.00571   0.00000  Uiso   1.00
H514   H     0.22773   0.79647   0.36731   0.00000  Uiso   1.00
H515   H     0.24010   0.96204   0.25732   0.00000  Uiso   1.00
N516   N     0.04931   0.83332   0.24998   0.00000  Uiso   1.00
N517   N     0.28402   0.83335   0.24999   0.00000  Uiso   1.00
O518   O     0.12708   0.89345   0.25000   0.00000  Uiso   1.00
O519   O     0.20627   0.89346   0.25000   0.00000  Uiso   1.00
O520   O     0.10775   0.83332   0.32549   0.00000  Uiso   1.00
O521   O     0.18694   0.83333   0.32549   0.00000  Uiso   1.00
O522   O     0.12706   0.77321   0.24999   0.00000  Uiso   1.00
O523   O     0.20625   0.77322   0.24999   0.00000  Uiso   1.00
O524   O     0.14640   0.83334   0.17451   0.00000  Uiso   1.00
O525   O     0.22559   0.83335   0.17451   0.00000  Uiso   1.00
O526   O     0.29455   0.84520   0.08453   0.00000  Uiso   1.00
H527   H     0.29752   0.82046   0.10446   0.00000  Uiso   1.00
O528   O     0.24708   0.70594   0.26910   0.00000  Uiso   1.00
H529   H     0.23525   0.72546   0.29865   0.00000  Uiso   1.00
O530   O     0.07753   0.70792   0.26486   0.00000  Uiso   1.00
C531   C     0.04597   0.70393   0.31583   0.00000  Uiso   1.00
H532   H     0.06582   0.70601   0.34586   0.00000  Uiso   1.00
H533   H     0.02642   0.67401   0.31944   0.00000  Uiso   1.00
C534   C     0.00840   0.73847   0.32696   0.00000  Uiso   1.00
H535   H     0.32242   0.73876   0.29679   0.00000  Uiso   1.00
H536   H     0.31456   0.73401   0.36543   0.00000  Uiso   1.00
H537   H     0.02684   0.76852   0.32722   0.00000  Uiso   1.00
O538   O     0.26516   0.88863   0.31003   0.00000  Uiso   1.00
C539   C     0.27838   0.90785   0.35120   0.00000  Uiso   1.00
H540   H     0.30609   0.93217   0.33593   0.00000  Uiso   1.00
H541   H     0.29249   0.88525   0.37399   0.00000  Uiso   1.00
C542   C     0.23327   0.92817   0.38767   0.00000  Uiso   1.00
H543   H     0.20476   0.90468   0.40362   0.00000  Uiso   1.00
H544   H     0.24307   0.94359   0.42024   0.00000  Uiso   1.00
H545   H     0.21837   0.95144   0.36651   0.00000  Uiso   1.00
O546   O     0.06740   0.77662   0.19191   0.00000  Uiso   1.00
C547   C     0.05689   0.75886   0.14820   0.00000  Uiso   1.00
H548   H     0.09216   0.75477   0.11740   0.00000  Uiso   1.00
H549   H     0.03420   0.77861   0.13093   0.00000  Uiso   1.00
C550   C     0.03454   0.71626   0.16094   0.00000  Uiso   1.00
H551   H     0.00134   0.71763   0.19476   0.00000  Uiso   1.00
H552   H     0.02451   0.70349   0.12703   0.00000  Uiso   1.00
H553   H     0.06148   0.69536   0.17007   0.00000  Uiso   1.00
C554   C     0.49980   0.91258   0.25080   0.00000  Uiso   1.00
C555   C     0.48165   0.81484   0.48709   0.00000  Uiso   1.00
C556   C     0.49686   0.81355   0.43210   0.00000  Uiso   1.00
C557   C     0.51751   0.82103   0.01371   0.00000  Uiso   1.00
C558   C     0.56744   0.82396   0.48483   0.00000  Uiso   1.00
C559   C     0.58198   0.81491   0.43212   0.00000  Uiso   1.00
C560   C     0.54724   0.80774   0.40663   0.00000  Uiso   1.00
C561   C     0.50547   0.82550   0.06780   0.00000  Uiso   1.00
C562   C     0.59087   0.83704   0.06281   0.00000  Uiso   1.00
C563   C     0.46106   0.81755   0.40492   0.00000  Uiso   1.00
C564   C     0.54044   0.97830   0.25702   0.00000  Uiso   1.00
C565   C     0.47451   0.82829   0.34932   0.00000  Uiso   1.00
C566   C     0.53973   0.68733   0.26152   0.00000  Uiso   1.00
C567   C     0.49761   0.70931   0.25914   0.00000  Uiso   1.00
C568   C     0.45427   0.68755   0.26094   0.00000  Uiso   1.00
C569   C     0.45562   0.97826   0.25708   0.00000  Uiso   1.00
C570   C     0.49886   0.95705   0.25406   0.00000  Uiso   1.00
C571   C     0.63306   0.86087   0.28074   0.00000  Uiso   1.00
C572   C     0.35023   0.86084   0.27982   0.00000  Uiso   1.00
C573   C     0.36681   0.80559   0.21952   0.00000  Uiso   1.00
C574   C     0.64963   0.80559   0.22060   0.00000  Uiso   1.00
C575   C     0.49906   0.75406   0.25343   0.00000  Uiso   1.00
C576   C     0.52619   0.83345   0.14993   0.00000  Uiso   1.00
C577   C     0.60278   0.83440   0.00908   0.00000  Uiso   1.00
C578   C     0.54162   0.83193   0.09285   0.00000  Uiso   1.00
C579   C     0.41160   0.81186   0.43200   0.00000  Uiso   1.00
C580   C     0.39758   0.80558   0.48518   0.00000  Uiso   1.00
C581   C     0.43143   0.80942   0.01287   0.00000  Uiso   1.00
Cu582  Cu    0.45311   0.83333   0.25000   0.00000  Uiso   1.00
Cu583  Cu    0.54689   0.83334   0.25000   0.00000  Uiso   1.00
H584   H     0.42265   0.96197   0.25653   0.00000  Uiso   1.00
H585   H     0.36415   0.88268   0.30247   0.00000  Uiso   1.00
H586   H     0.63541   0.78332   0.19878   0.00000  Uiso   1.00
H587   H     0.62044   0.81286   0.41056   0.00000  Uiso   1.00
H588   H     0.64003   0.83987   0.48597   0.00000  Uiso   1.00
H589   H     0.46804   0.82404   0.09141   0.00000  Uiso   1.00
H590   H     0.38374   0.81187   0.41202   0.00000  Uiso   1.00
H591   H     0.41718   0.80692   0.05417   0.00000  Uiso   1.00
H592   H     0.36003   0.79869   0.00571   0.00000  Uiso   1.00
H593   H     0.56106   0.79647   0.36731   0.00000  Uiso   1.00
H594   H     0.57343   0.96204   0.25732   0.00000  Uiso   1.00
N595   N     0.38265   0.83332   0.24998   0.00000  Uiso   1.00
N596   N     0.61735   0.83335   0.24999   0.00000  Uiso   1.00
O597   O     0.46042   0.89345   0.25000   0.00000  Uiso   1.00
O598   O     0.53961   0.89346   0.25000   0.00000  Uiso   1.00
O599   O     0.44108   0.83332   0.32549   0.00000  Uiso   1.00
O600   O     0.52027   0.83333   0.32549   0.00000  Uiso   1.00
O601   O     0.46039   0.77321   0.24999   0.00000  Uiso   1.00
O602   O     0.53958   0.77322   0.24999   0.00000  Uiso   1.00
O603   O     0.47973   0.83334   0.17451   0.00000  Uiso   1.00
O604   O     0.55892   0.83335   0.17451   0.00000  Uiso   1.00
O605   O     0.62788   0.84520   0.08453   0.00000  Uiso   1.00
H606   H     0.63085   0.82046   0.10446   0.00000  Uiso   1.00
O607   O     0.58041   0.70594   0.26910   0.00000  Uiso   1.00
H608   H     0.56858   0.72546   0.29865   0.00000  Uiso   1.00
O609   O     0.41086   0.70792   0.26486   0.00000  Uiso   1.00
C610   C     0.37930   0.70393   0.31583   0.00000  Uiso   1.00
H611   H     0.39916   0.70601   0.34586   0.00000  Uiso   1.00
H612   H     0.35975   0.67401   0.31944   0.00000  Uiso   1.00
C613   C     0.34173   0.73847   0.32696   0.00000  Uiso   1.00
H614   H     0.65575   0.73876   0.29679   0.00000  Uiso   1.00
H615   H     0.64789   0.73401   0.36543   0.00000  Uiso   1.00
H616   H     0.36017   0.76852   0.32722   0.00000  Uiso   1.00
O617   O     0.59849   0.88863   0.31003   0.00000  Uiso   1.00
C618   C     0.61172   0.90785   0.35120   0.00000  Uiso   1.00
H619   H     0.63942   0.93217   0.33593   0.00000  Uiso   1.00
H620   H     0.62582   0.88525   0.37399   0.00000  Uiso   1.00
C621   C     0.56661   0.92817   0.38767   0.00000  Uiso   1.00
H622   H     0.53809   0.90468   0.40362   0.00000  Uiso   1.00
H623   H     0.57641   0.94359   0.42024   0.00000  Uiso   1.00
H624   H     0.55170   0.95144   0.36651   0.00000  Uiso   1.00
O625   O     0.40073   0.77662   0.19191   0.00000  Uiso   1.00
C626   C     0.39022   0.75886   0.14820   0.00000  Uiso   1.00
H627   H     0.42550   0.75477   0.11740   0.00000  Uiso   1.00
H628   H     0.36753   0.77861   0.13093   0.00000  Uiso   1.00
C629   C     0.36787   0.71626   0.16094   0.00000  Uiso   1.00
H630   H     0.33467   0.71763   0.19476   0.00000  Uiso   1.00
H631   H     0.35785   0.70349   0.12703   0.00000  Uiso   1.00
H632   H     0.39482   0.69536   0.17007   0.00000  Uiso   1.00
C633   C     0.83313   0.91258   0.25080   0.00000  Uiso   1.00
C634   C     0.81498   0.81484   0.48709   0.00000  Uiso   1.00
C635   C     0.83019   0.81355   0.43210   0.00000  Uiso   1.00
C636   C     0.85084   0.82103   0.01371   0.00000  Uiso   1.00
C637   C     0.90077   0.82396   0.48483   0.00000  Uiso   1.00
C638   C     0.91531   0.81491   0.43212   0.00000  Uiso   1.00
C639   C     0.88057   0.80774   0.40663   0.00000  Uiso   1.00
C640   C     0.83881   0.82550   0.06780   0.00000  Uiso   1.00
C641   C     0.92421   0.83704   0.06281   0.00000  Uiso   1.00
C642   C     0.79439   0.81755   0.40492   0.00000  Uiso   1.00
C643   C     0.87378   0.97830   0.25702   0.00000  Uiso   1.00
C644   C     0.80784   0.82829   0.34932   0.00000  Uiso   1.00
C645   C     0.87306   0.68733   0.26152   0.00000  Uiso   1.00
C646   C     0.83094   0.70931   0.25914   0.00000  Uiso   1.00
C647   C     0.78760   0.68755   0.26094   0.00000  Uiso   1.00
C648   C     0.78896   0.97826   0.25708   0.00000  Uiso   1.00
C649   C     0.83219   0.95705   0.25406   0.00000  Uiso   1.00
C650   C     0.96639   0.86087   0.28074   0.00000  Uiso   1.00
C651   C     0.68356   0.86084   0.27982   0.00000  Uiso   1.00
C652   C     0.70014   0.80559   0.21952   0.00000  Uiso   1.00
C653   C     0.98296   0.80559   0.22060   0.00000  Uiso   1.00
C654   C     0.83240   0.75406   0.25343   0.00000  Uiso   1.00
C655   C     0.85953   0.83345   0.14993   0.00000  Uiso   1.00
C656   C     0.93612   0.83440   0.00908   0.00000  Uiso   1.00
C657   C     0.87495   0.83193   0.09285   0.00000  Uiso   1.00
C658   C     0.74493   0.81186   0.43200   0.00000  Uiso   1.00
C659   C     0.73091   0.80558   0.48518   0.00000  Uiso   1.00
C660   C     0.76476   0.80942   0.01287   0.00000  Uiso   1.00
Cu661  Cu    0.78645   0.83333   0.25000   0.00000  Uiso   1.00
Cu662  Cu    0.88022   0.83334   0.25000   0.00000  Uiso   1.00
H663   H     0.75598   0.96197   0.25653   0.00000  Uiso   1.00
H664   H     0.69748   0.88268   0.30247   0.00000  Uiso   1.00
H665   H     0.96874   0.78332   0.19878   0.00000  Uiso   1.00
H666   H     0.95377   0.81286   0.41056   0.00000  Uiso   1.00
H667   H     0.97336   0.83987   0.48597   0.00000  Uiso   1.00
H668   H     0.80137   0.82404   0.09141   0.00000  Uiso   1.00
H669   H     0.71708   0.81187   0.41202   0.00000  Uiso   1.00
H670   H     0.75051   0.80692   0.05417   0.00000  Uiso   1.00
H671   H     0.69337   0.79869   0.00571   0.00000  Uiso   1.00
H672   H     0.89439   0.79647   0.36731   0.00000  Uiso   1.00
H673   H     0.90676   0.96204   0.25732   0.00000  Uiso   1.00
N674   N     0.71598   0.83332   0.24998   0.00000  Uiso   1.00
N675   N     0.95069   0.83335   0.24999   0.00000  Uiso   1.00
O676   O     0.79375   0.89345   0.25000   0.00000  Uiso   1.00
O677   O     0.87294   0.89346   0.25000   0.00000  Uiso   1.00
O678   O     0.77441   0.83332   0.32549   0.00000  Uiso   1.00
O679   O     0.85360   0.83333   0.32549   0.00000  Uiso   1.00
O680   O     0.79373   0.77321   0.24999   0.00000  Uiso   1.00
O681   O     0.87292   0.77322   0.24999   0.00000  Uiso   1.00
O682   O     0.81306   0.83334   0.17451   0.00000  Uiso   1.00
O683   O     0.89225   0.83335   0.17451   0.00000  Uiso   1.00
O684   O     0.96121   0.84520   0.08453   0.00000  Uiso   1.00
H685   H     0.96419   0.82046   0.10446   0.00000  Uiso   1.00
O686   O     0.91375   0.70594   0.26910   0.00000  Uiso   1.00
H687   H     0.90192   0.72546   0.29865   0.00000  Uiso   1.00
O688   O     0.74419   0.70792   0.26486   0.00000  Uiso   1.00
C689   C     0.71264   0.70393   0.31583   0.00000  Uiso   1.00
H690   H     0.73249   0.70601   0.34586   0.00000  Uiso   1.00
H691   H     0.69308   0.67401   0.31944   0.00000  Uiso   1.00
C692   C     0.67506   0.73847   0.32696   0.00000  Uiso   1.00
H693   H     0.98908   0.73876   0.29679   0.00000  Uiso   1.00
H694   H     0.98123   0.73401   0.36543   0.00000  Uiso   1.00
H695   H     0.69351   0.76852   0.32722   0.00000  Uiso   1.00
O696   O     0.93182   0.88863   0.31003   0.00000  Uiso   1.00
C697   C     0.94505   0.90785   0.35120   0.00000  Uiso   1.00
H698   H     0.97275   0.93217   0.33593   0.00000  Uiso   1.00
H699   H     0.95916   0.88525   0.37399   0.00000  Uiso   1.00
C700   C     0.89994   0.92817   0.38767   0.00000  Uiso   1.00
H701   H     0.87142   0.90468   0.40362   0.00000  Uiso   1.00
H702   H     0.90974   0.94359   0.42024   0.00000  Uiso   1.00
H703   H     0.88503   0.95144   0.36651   0.00000  Uiso   1.00
O704   O     0.73406   0.77662   0.19191   0.00000  Uiso   1.00
C705   C     0.72356   0.75886   0.14820   0.00000  Uiso   1.00
H706   H     0.75883   0.75477   0.11740   0.00000  Uiso   1.00
H707   H     0.70087   0.77861   0.13093   0.00000  Uiso   1.00
C708   C     0.70120   0.71626   0.16094   0.00000  Uiso   1.00
H709   H     0.66801   0.71763   0.19476   0.00000  Uiso   1.00
H710   H     0.69118   0.70349   0.12703   0.00000  Uiso   1.00
H711   H     0.72815   0.69536   0.17007   0.00000  Uiso   1.00
C712   C     0.16647   0.24591   0.75080   0.00000  Uiso   1.00
C713   C     0.14831   0.14817   0.98709   0.00000  Uiso   1.00
C714   C     0.16353   0.14688   0.93210   0.00000  Uiso   1.00
C715   C     0.18418   0.15436   0.51371   0.00000  Uiso   1.00
C716   C     0.23410   0.15730   0.98483   0.00000  Uiso   1.00
C717   C     0.24865   0.14824   0.93212   0.00000  Uiso   1.00
C718   C     0.21390   0.14107   0.90663   0.00000  Uiso   1.00
C719   C     0.17214   0.15883   0.56780   0.00000  Uiso   1.00
C720   C     0.25754   0.17038   0.56281   0.00000  Uiso   1.00
C721   C     0.12773   0.15088   0.90492   0.00000  Uiso   1.00
C722   C     0.20711   0.31163   0.75702   0.00000  Uiso   1.00
C723   C     0.14118   0.16163   0.84932   0.00000  Uiso   1.00
C724   C     0.20640   0.02067   0.76152   0.00000  Uiso   1.00
C725   C     0.16427   0.04265   0.75914   0.00000  Uiso   1.00
C726   C     0.12094   0.02088   0.76094   0.00000  Uiso   1.00
C727   C     0.12229   0.31159   0.75708   0.00000  Uiso   1.00
C728   C     0.16552   0.29038   0.75406   0.00000  Uiso   1.00
C729   C     0.29972   0.19421   0.78074   0.00000  Uiso   1.00
C730   C     0.01689   0.19417   0.77982   0.00000  Uiso   1.00
C731   C     0.03348   0.13892   0.71952   0.00000  Uiso   1.00
C732   C     0.31630   0.13892   0.72060   0.00000  Uiso   1.00
C733   C     0.16573   0.08740   0.75343   0.00000  Uiso   1.00
C734   C     0.19286   0.16678   0.64993   0.00000  Uiso   1.00
C735   C     0.26945   0.16774   0.50908   0.00000  Uiso   1.00
C736   C     0.20828   0.16526   0.59285   0.00000  Uiso   1.00
C737   C     0.07826   0.14519   0.93200   0.00000  Uiso   1.00
C738   C     0.06425   0.13891   0.98518   0.00000  Uiso   1.00
C739   C     0.09809   0.14275   0.51287   0.00000  Uiso   1.00
Cu740  Cu    0.11978   0.16666   0.75000   0.00000  Uiso   1.00
Cu741  Cu    0.21355   0.16667   0.75000   0.00000  Uiso   1.00
H742   H     0.08931   0.29531   0.75653   0.00000  Uiso   1.00
H743   H     0.03081   0.21601   0.80247   0.00000  Uiso   1.00
H744   H     0.30208   0.11666   0.69878   0.00000  Uiso   1.00
H745   H     0.28711   0.14619   0.91056   0.00000  Uiso   1.00
H746   H     0.30669   0.17320   0.98597   0.00000  Uiso   1.00
H747   H     0.13471   0.15737   0.59141   0.00000  Uiso   1.00
H748   H     0.05041   0.14520   0.91202   0.00000  Uiso   1.00
H749   H     0.08384   0.14025   0.55417   0.00000  Uiso   1.00
H750   H     0.02670   0.13202   0.50571   0.00000  Uiso   1.00
H751   H     0.22773   0.12980   0.86731   0.00000  Uiso   1.00
H752   H     0.24010   0.29537   0.75732   0.00000  Uiso   1.00
N753   N     0.04931   0.16666   0.74998   0.00000  Uiso   1.00
N754   N     0.28402   0.16669   0.74999   0.00000  Uiso   1.00
O755   O     0.12708   0.22678   0.75000   0.00000  Uiso   1.00
O756   O     0.20627   0.22679   0.75000   0.00000  Uiso   1.00
O757   O     0.10775   0.16665   0.82549   0.00000  Uiso   1.00
O758   O     0.18694   0.16666   0.82549   0.00000  Uiso   1.00
O759   O     0.12706   0.10654   0.74999   0.00000  Uiso   1.00
O760   O     0.20625   0.10655   0.74999   0.00000  Uiso   1.00
O761   O     0.14640   0.16667   0.67451   0.00000  Uiso   1.00
O762   O     0.22559   0.16668   0.67451   0.00000  Uiso   1.00
O763   O     0.29455   0.17854   0.58453   0.00000  Uiso   1.00
H764   H     0.29752   0.15379   0.60446   0.00000  Uiso   1.00
O765   O     0.24708   0.03927   0.76910   0.00000  Uiso   1.00
H766   H     0.23525   0.05879   0.79865   0.00000  Uiso   1.00
O767   O     0.07753   0.04125   0.76486   0.00000  Uiso   1.00
C768   C     0.04597   0.03727   0.81583   0.00000  Uiso   1.00
H769   H     0.06582   0.03934   0.84586   0.00000  Uiso   1.00
H770   H     0.02642   0.00735   0.81944   0.00000  Uiso   1.00
C771   C     0.00840   0.07181   0.82696   0.00000  Uiso   1.00
H772   H     0.32242   0.07210   0.79679   0.00000  Uiso   1.00
H773   H     0.31456   0.06735   0.86543   0.00000  Uiso   1.00
H774   H     0.02684   0.10185   0.82722   0.00000  Uiso   1.00
O775   O     0.26516   0.22197   0.81003   0.00000  Uiso   1.00
C776   C     0.27838   0.24119   0.85120   0.00000  Uiso   1.00
H777   H     0.30609   0.26551   0.83593   0.00000  Uiso   1.00
H778   H     0.29249   0.21858   0.87399   0.00000  Uiso   1.00
C779   C     0.23327   0.26151   0.88767   0.00000  Uiso   1.00
H780   H     0.20476   0.23802   0.90362   0.00000  Uiso   1.00
H781   H     0.24307   0.27692   0.92024   0.00000  Uiso   1.00
H782   H     0.21837   0.28477   0.86651   0.00000  Uiso   1.00
O783   O     0.06740   0.10996   0.69191   0.00000  Uiso   1.00
C784   C     0.05689   0.09220   0.64820   0.00000  Uiso   1.00
H785   H     0.09216   0.08811   0.61740   0.00000  Uiso   1.00
H786   H     0.03420   0.11194   0.63093   0.00000  Uiso   1.00
C787   C     0.03454   0.04959   0.66094   0.00000  Uiso   1.00
H788   H     0.00134   0.05096   0.69476   0.00000  Uiso   1.00
H789   H     0.02451   0.03683   0.62703   0.00000  Uiso   1.00
H790   H     0.06148   0.02870   0.67007   0.00000  Uiso   1.00
C791   C     0.49980   0.24591   0.75080   0.00000  Uiso   1.00
C792   C     0.48165   0.14817   0.98709   0.00000  Uiso   1.00
C793   C     0.49686   0.14688   0.93210   0.00000  Uiso   1.00
C794   C     0.51751   0.15436   0.51371   0.00000  Uiso   1.00
C795   C     0.56744   0.15730   0.98483   0.00000  Uiso   1.00
C796   C     0.58198   0.14824   0.93212   0.00000  Uiso   1.00
C797   C     0.54724   0.14107   0.90663   0.00000  Uiso   1.00
C798   C     0.50547   0.15883   0.56780   0.00000  Uiso   1.00
C799   C     0.59087   0.17038   0.56281   0.00000  Uiso   1.00
C800   C     0.46106   0.15088   0.90492   0.00000  Uiso   1.00
C801   C     0.54044   0.31163   0.75702   0.00000  Uiso   1.00
C802   C     0.47451   0.16163   0.84932   0.00000  Uiso   1.00
C803   C     0.53973   0.02067   0.76152   0.00000  Uiso   1.00
C804   C     0.49761   0.04265   0.75914   0.00000  Uiso   1.00
C805   C     0.45427   0.02088   0.76094   0.00000  Uiso   1.00
C806   C     0.45562   0.31159   0.75708   0.00000  Uiso   1.00
C807   C     0.49886   0.29038   0.75406   0.00000  Uiso   1.00
C808   C     0.63306   0.19421   0.78074   0.00000  Uiso   1.00
C809   C     0.35023   0.19417   0.77982   0.00000  Uiso   1.00
C810   C     0.36681   0.13892   0.71952   0.00000  Uiso   1.00
C811   C     0.64963   0.13892   0.72060   0.00000  Uiso   1.00
C812   C     0.49906   0.08740   0.75343   0.00000  Uiso   1.00
C813   C     0.52619   0.16678   0.64993   0.00000  Uiso   1.00
C814   C     0.60278   0.16774   0.50908   0.00000  Uiso   1.00
C815   C     0.54162   0.16526   0.59285   0.00000  Uiso   1.00
C816   C     0.41160   0.14519   0.93200   0.00000  Uiso   1.00
C817   C     0.39758   0.13891   0.98518   0.00000  Uiso   1.00
C818   C     0.43143   0.14275   0.51287   0.00000  Uiso   1.00
Cu819  Cu    0.45311   0.16666   0.75000   0.00000  Uiso   1.00
Cu820  Cu    0.54689   0.16667   0.75000   0.00000  Uiso   1.00
H821   H     0.42265   0.29531   0.75653   0.00000  Uiso   1.00
H822   H     0.36415   0.21601   0.80247   0.00000  Uiso   1.00
H823   H     0.63541   0.11666   0.69878   0.00000  Uiso   1.00
H824   H     0.62044   0.14619   0.91056   0.00000  Uiso   1.00
H825   H     0.64003   0.17320   0.98597   0.00000  Uiso   1.00
H826   H     0.46804   0.15737   0.59141   0.00000  Uiso   1.00
H827   H     0.38374   0.14520   0.91202   0.00000  Uiso   1.00
H828   H     0.41718   0.14025   0.55417   0.00000  Uiso   1.00
H829   H     0.36003   0.13202   0.50571   0.00000  Uiso   1.00
H830   H     0.56106   0.12980   0.86731   0.00000  Uiso   1.00
H831   H     0.57343   0.29537   0.75732   0.00000  Uiso   1.00
N832   N     0.38265   0.16666   0.74998   0.00000  Uiso   1.00
N833   N     0.61735   0.16669   0.74999   0.00000  Uiso   1.00
O834   O     0.46042   0.22678   0.75000   0.00000  Uiso   1.00
O835   O     0.53961   0.22679   0.75000   0.00000  Uiso   1.00
O836   O     0.44108   0.16665   0.82549   0.00000  Uiso   1.00
O837   O     0.52027   0.16666   0.82549   0.00000  Uiso   1.00
O838   O     0.46039   0.10654   0.74999   0.00000  Uiso   1.00
O839   O     0.53958   0.10655   0.74999   0.00000  Uiso   1.00
O840   O     0.47973   0.16667   0.67451   0.00000  Uiso   1.00
O841   O     0.55892   0.16668   0.67451   0.00000  Uiso   1.00
O842   O     0.62788   0.17854   0.58453   0.00000  Uiso   1.00
H843   H     0.63085   0.15379   0.60446   0.00000  Uiso   1.00
O844   O     0.58041   0.03927   0.76910   0.00000  Uiso   1.00
H845   H     0.56858   0.05879   0.79865   0.00000  Uiso   1.00
O846   O     0.41086   0.04125   0.76486   0.00000  Uiso   1.00
C847   C     0.37930   0.03727   0.81583   0.00000  Uiso   1.00
H848   H     0.39916   0.03934   0.84586   0.00000  Uiso   1.00
H849   H     0.35975   0.00735   0.81944   0.00000  Uiso   1.00
C850   C     0.34173   0.07181   0.82696   0.00000  Uiso   1.00
H851   H     0.65575   0.07210   0.79679   0.00000  Uiso   1.00
H852   H     0.64789   0.06735   0.86543   0.00000  Uiso   1.00
H853   H     0.36017   0.10185   0.82722   0.00000  Uiso   1.00
O854   O     0.59849   0.22197   0.81003   0.00000  Uiso   1.00
C855   C     0.61172   0.24119   0.85120   0.00000  Uiso   1.00
H856   H     0.63942   0.26551   0.83593   0.00000  Uiso   1.00
H857   H     0.62582   0.21858   0.87399   0.00000  Uiso   1.00
C858   C     0.56661   0.26151   0.88767   0.00000  Uiso   1.00
H859   H     0.53809   0.23802   0.90362   0.00000  Uiso   1.00
H860   H     0.57641   0.27692   0.92024   0.00000  Uiso   1.00
H861   H     0.55170   0.28477   0.86651   0.00000  Uiso   1.00
O862   O     0.40073   0.10996   0.69191   0.00000  Uiso   1.00
C863   C     0.39022   0.09220   0.64820   0.00000  Uiso   1.00
H864   H     0.42550   0.08811   0.61740   0.00000  Uiso   1.00
H865   H     0.36753   0.11194   0.63093   0.00000  Uiso   1.00
C866   C     0.36787   0.04959   0.66094   0.00000  Uiso   1.00
H867   H     0.33467   0.05096   0.69476   0.00000  Uiso   1.00
H868   H     0.35785   0.03683   0.62703   0.00000  Uiso   1.00
H869   H     0.39482   0.02870   0.67007   0.00000  Uiso   1.00
C870   C     0.83313   0.24591   0.75080   0.00000  Uiso   1.00
C871   C     0.81498   0.14817   0.98709   0.00000  Uiso   1.00
C872   C     0.83019   0.14688   0.93210   0.00000  Uiso   1.00
C873   C     0.85084   0.15436   0.51371   0.00000  Uiso   1.00
C874   C     0.90077   0.15730   0.98483   0.00000  Uiso   1.00
C875   C     0.91531   0.14824   0.93212   0.00000  Uiso   1.00
C876   C     0.88057   0.14107   0.90663   0.00000  Uiso   1.00
C877   C     0.83881   0.15883   0.56780   0.00000  Uiso   1.00
C878   C     0.92421   0.17038   0.56281   0.00000  Uiso   1.00
C879   C     0.79439   0.15088   0.90492   0.00000  Uiso   1.00
C880   C     0.87378   0.31163   0.75702   0.00000  Uiso   1.00
C881   C     0.80784   0.16163   0.84932   0.00000  Uiso   1.00
C882   C     0.87306   0.02067   0.76152   0.00000  Uiso   1.00
C883   C     0.83094   0.04265   0.75914   0.00000  Uiso   1.00
C884   C     0.78760   0.02088   0.76094   0.00000  Uiso   1.00
C885   C     0.78896   0.31159   0.75708   0.00000  Uiso   1.00
C886   C     0.83219   0.29038   0.75406   0.00000  Uiso   1.00
C887   C     0.96639   0.19421   0.78074   0.00000  Uiso   1.00
C888   C     0.68356   0.19417   0.77982   0.00000  Uiso   1.00
C889   C     0.70014   0.13892   0.71952   0.00000  Uiso   1.00
C890   C     0.98296   0.13892   0.72060   0.00000  Uiso   1.00
C891   C     0.83240   0.08740   0.75343   0.00000  Uiso   1.00
C892   C     0.85953   0.16678   0.64993   0.00000  Uiso   1.00
C893   C     0.93612   0.16774   0.50908   0.00000  Uiso   1.00
C894   C     0.87495   0.16526   0.59285   0.00000  Uiso   1.00
C895   C     0.74493   0.14519   0.93200   0.00000  Uiso   1.00
C896   C     0.73091   0.13891   0.98518   0.00000  Uiso   1.00
C897   C     0.76476   0.14275   0.51287   0.00000  Uiso   1.00
Cu898  Cu    0.78645   0.16666   0.75000   0.00000  Uiso   1.00
Cu899  Cu    0.88022   0.16667   0.75000   0.00000  Uiso   1.00
H900   H     0.75598   0.29531   0.75653   0.00000  Uiso   1.00
H901   H     0.69748   0.21601   0.80247   0.00000  Uiso   1.00
H902   H     0.96874   0.11666   0.69878   0.00000  Uiso   1.00
H903   H     0.95377   0.14619   0.91056   0.00000  Uiso   1.00
H904   H     0.97336   0.17320   0.98597   0.00000  Uiso   1.00
H905   H     0.80137   0.15737   0.59141   0.00000  Uiso   1.00
H906   H     0.71708   0.14520   0.91202   0.00000  Uiso   1.00
H907   H     0.75051   0.14025   0.55417   0.00000  Uiso   1.00
H908   H     0.69337   0.13202   0.50571   0.00000  Uiso   1.00
H909   H     0.89439   0.12980   0.86731   0.00000  Uiso   1.00
H910   H     0.90676   0.29537   0.75732   0.00000  Uiso   1.00
N911   N     0.71598   0.16666   0.74998   0.00000  Uiso   1.00
N912   N     0.95069   0.16669   0.74999   0.00000  Uiso   1.00
O913   O     0.79375   0.22678   0.75000   0.00000  Uiso   1.00
O914   O     0.87294   0.22679   0.75000   0.00000  Uiso   1.00
O915   O     0.77441   0.16665   0.82549   0.00000  Uiso   1.00
O916   O     0.85360   0.16666   0.82549   0.00000  Uiso   1.00
O917   O     0.79373   0.10654   0.74999   0.00000  Uiso   1.00
O918   O     0.87292   0.10655   0.74999   0.00000  Uiso   1.00
O919   O     0.81306   0.16667   0.67451   0.00000  Uiso   1.00
O920   O     0.89225   0.16668   0.67451   0.00000  Uiso   1.00
O921   O     0.96121   0.17854   0.58453   0.00000  Uiso   1.00
H922   H     0.96419   0.15379   0.60446   0.00000  Uiso   1.00
O923   O     0.91375   0.03927   0.76910   0.00000  Uiso   1.00
H924   H     0.90192   0.05879   0.79865   0.00000  Uiso   1.00
O925   O     0.74419   0.04125   0.76486   0.00000  Uiso   1.00
C926   C     0.71264   0.03727   0.81583   0.00000  Uiso   1.00
H927   H     0.73249   0.03934   0.84586   0.00000  Uiso   1.00
H928   H     0.69308   0.00735   0.81944   0.00000  Uiso   1.00
C929   C     0.67506   0.07181   0.82696   0.00000  Uiso   1.00
H930   H     0.98908   0.07210   0.79679   0.00000  Uiso   1.00
H931   H     0.98123   0.06735   0.86543   0.00000  Uiso   1.00
H932   H     0.69351   0.10185   0.82722   0.00000  Uiso   1.00
O933   O     0.93182   0.22197   0.81003   0.00000  Uiso   1.00
C934   C     0.94505   0.24119   0.85120   0.00000  Uiso   1.00
H935   H     0.97275   0.26551   0.83593   0.00000  Uiso   1.00
H936   H     0.95916   0.21858   0.87399   0.00000  Uiso   1.00
C937   C     0.89994   0.26151   0.88767   0.00000  Uiso   1.00
H938   H     0.87142   0.23802   0.90362   0.00000  Uiso   1.00
H939   H     0.90974   0.27692   0.92024   0.00000  Uiso   1.00
H940   H     0.88503   0.28477   0.86651   0.00000  Uiso   1.00
O941   O     0.73406   0.10996   0.69191   0.00000  Uiso   1.00
C942   C     0.72356   0.09220   0.64820   0.00000  Uiso   1.00
H943   H     0.75883   0.08811   0.61740   0.00000  Uiso   1.00
H944   H     0.70087   0.11194   0.63093   0.00000  Uiso   1.00
C945   C     0.70120   0.04959   0.66094   0.00000  Uiso   1.00
H946   H     0.66801   0.05096   0.69476   0.00000  Uiso   1.00
H947   H     0.69118   0.03683   0.62703   0.00000  Uiso   1.00
H948   H     0.72815   0.02870   0.67007   0.00000  Uiso   1.00
C949   C     0.16647   0.57924   0.75080   0.00000  Uiso   1.00
C950   C     0.14831   0.48150   0.98709   0.00000  Uiso   1.00
C951   C     0.16353   0.48022   0.93210   0.00000  Uiso   1.00
C952   C     0.18418   0.48769   0.51371   0.00000  Uiso   1.00
C953   C     0.23410   0.49063   0.98483   0.00000  Uiso   1.00
C954   C     0.24865   0.48158   0.93212   0.00000  Uiso   1.00
C955   C     0.21390   0.47441   0.90663   0.00000  Uiso   1.00
C956   C     0.17214   0.49216   0.56780   0.00000  Uiso   1.00
C957   C     0.25754   0.50371   0.56281   0.00000  Uiso   1.00
C958   C     0.12773   0.48421   0.90492   0.00000  Uiso   1.00
C959   C     0.20711   0.64497   0.75702   0.00000  Uiso   1.00
C960   C     0.14118   0.49496   0.84932   0.00000  Uiso   1.00
C961   C     0.20640   0.35400   0.76152   0.00000  Uiso   1.00
C962   C     0.16427   0.37598   0.75914   0.00000  Uiso   1.00
C963   C     0.12094   0.35421   0.76094   0.00000  Uiso   1.00
C964   C     0.12229   0.64493   0.75708   0.00000  Uiso   1.00
C965   C     0.16552   0.62371   0.75406   0.00000  Uiso   1.00
C966   C     0.29972   0.52754   0.78074   0.00000  Uiso   1.00
C967   C     0.01689   0.52750   0.77982   0.00000  Uiso   1.00
C968   C     0.03348   0.47225   0.71952   0.00000  Uiso   1.00
C969   C     0.31630   0.47226   0.72060   0.00000  Uiso   1.00
C970   C     0.16573   0.42073   0.75343   0.00000  Uiso   1.00
C971   C     0.19286   0.50012   0.64993   0.00000  Uiso   1.00
C972   C     0.26945   0.50107   0.50908   0.00000  Uiso   1.00
C973   C     0.20828   0.49860   0.59285   0.00000  Uiso   1.00
C974   C     0.07826   0.47853   0.93200   0.00000  Uiso   1.00
C975   C     0.06425   0.47225   0.98518   0.00000  Uiso   1.00
C976   C     0.09809   0.47608   0.51287   0.00000  Uiso   1.00
Cu977  Cu    0.11978   0.49999   0.75000   0.00000  Uiso   1.00
Cu978  Cu    0.21355   0.50001   0.75000   0.00000  Uiso   1.00
H979   H     0.08931   0.62864   0.75653   0.00000  Uiso   1.00
H980   H     0.03081   0.54935   0.80247   0.00000  Uiso   1.00
H981   H     0.30208   0.44999   0.69878   0.00000  Uiso   1.00
H982   H     0.28711   0.47952   0.91056   0.00000  Uiso   1.00
H983   H     0.30669   0.50653   0.98597   0.00000  Uiso   1.00
H984   H     0.13471   0.49071   0.59141   0.00000  Uiso   1.00
H985   H     0.05041   0.47853   0.91202   0.00000  Uiso   1.00
H986   H     0.08384   0.47359   0.55417   0.00000  Uiso   1.00
H987   H     0.02670   0.46536   0.50571   0.00000  Uiso   1.00
H988   H     0.22773   0.46313   0.86731   0.00000  Uiso   1.00
H989   H     0.24010   0.62871   0.75732   0.00000  Uiso   1.00
N990   N     0.04931   0.49999   0.74998   0.00000  Uiso   1.00
N991   N     0.28402   0.50002   0.74999   0.00000  Uiso   1.00
O992   O     0.12708   0.56011   0.75000   0.00000  Uiso   1.00
O993   O     0.20627   0.56012   0.75000   0.00000  Uiso   1.00
O994   O     0.10775   0.49998   0.82549   0.00000  Uiso   1.00
O995   O     0.18694   0.49999   0.82549   0.00000  Uiso   1.00
O996   O     0.12706   0.43988   0.74999   0.00000  Uiso   1.00
O997   O     0.20625   0.43989   0.74999   0.00000  Uiso   1.00
O998   O     0.14640   0.50001   0.67451   0.00000  Uiso   1.00
O999   O     0.22559   0.50002   0.67451   0.00000  Uiso   1.00
O1000  O     0.29455   0.51187   0.58453   0.00000  Uiso   1.00
H1001  H     0.29752   0.48713   0.60446   0.00000  Uiso   1.00
O1002  O     0.24708   0.37260   0.76910   0.00000  Uiso   1.00
H1003  H     0.23525   0.39213   0.79865   0.00000  Uiso   1.00
O1004  O     0.07753   0.37458   0.76486   0.00000  Uiso   1.00
C1005  C     0.04597   0.37060   0.81583   0.00000  Uiso   1.00
H1006  H     0.06582   0.37267   0.84586   0.00000  Uiso   1.00
H1007  H     0.02642   0.34068   0.81944   0.00000  Uiso   1.00
C1008  C     0.00840   0.40514   0.82696   0.00000  Uiso   1.00
H1009  H     0.32242   0.40543   0.79679   0.00000  Uiso   1.00
H1010  H     0.31456   0.40068   0.86543   0.00000  Uiso   1.00
H1011  H     0.02684   0.43519   0.82722   0.00000  Uiso   1.00
O1012  O     0.26516   0.55530   0.81003   0.00000  Uiso   1.00
C1013  C     0.27838   0.57452   0.85120   0.00000  Uiso   1.00
H1014  H     0.30609   0.59884   0.83593   0.00000  Uiso   1.00
H1015  H     0.29249   0.55192   0.87399   0.00000  Uiso   1.00
C1016  C     0.23327   0.59484   0.88767   0.00000  Uiso   1.00
H1017  H     0.20476   0.57135   0.90362   0.00000  Uiso   1.00
H1018  H     0.24307   0.61026   0.92024   0.00000  Uiso   1.00
H1019  H     0.21837   0.61810   0.86651   0.00000  Uiso   1.00
O1020  O     0.06740   0.44329   0.69191   0.00000  Uiso   1.00
C1021  C     0.05689   0.42553   0.64820   0.00000  Uiso   1.00
H1022  H     0.09216   0.42144   0.61740   0.00000  Uiso   1.00
H1023  H     0.03420   0.44527   0.63093   0.00000  Uiso   1.00
C1024  C     0.03454   0.38293   0.66094   0.00000  Uiso   1.00
H1025  H     0.00134   0.38429   0.69476   0.00000  Uiso   1.00
H1026  H     0.02451   0.37016   0.62703   0.00000  Uiso   1.00
H1027  H     0.06148   0.36203   0.67007   0.00000  Uiso   1.00
C1028  C     0.49980   0.57924   0.75080   0.00000  Uiso   1.00
C1029  C     0.48165   0.48150   0.98709   0.00000  Uiso   1.00
C1030  C     0.49686   0.48022   0.93210   0.00000  Uiso   1.00
C1031  C     0.51751   0.48769   0.51371   0.00000  Uiso   1.00
C1032  C     0.56744   0.49063   0.98483   0.00000  Uiso   1.00
C1033  C     0.58198   0.48158   0.93212   0.00000  Uiso   1.00
C1034  C     0.54724   0.47441   0.90663   0.00000  Uiso   1.00
C1035  C     0.50547   0.49216   0.56780   0.00000  Uiso   1.00
C1036  C     0.59087   0.50371   0.56281   0.00000  Uiso   1.00
C1037  C     0.46106   0.48421   0.90492   0.00000  Uiso   1.00
C1038  C     0.54044   0.64497   0.75702   0.00000  Uiso   1.00
C1039  C     0.47451   0.49496   0.84932   0.00000  Uiso   1.00
C1040  C     0.53973   0.35400   0.76152   0.00000  Uiso   1.00
C1041  C     0.49761   0.37598   0.75914   0.00000  Uiso   1.00
C1042  C     0.45427   0.35421   0.76094   0.00000  Uiso   1.00
C1043  C     0.45562   0.64493   0.75708   0.00000  Uiso   1.00
C1044  C     0.49886   0.62371   0.75406   0.00000  Uiso   1.00
C1045  C     0.63306   0.52754   0.78074   0.00000  Uiso   1.00
C1046  C     0.35023   0.52750   0.77982   0.00000  Uiso   1.00
C1047  C     0.36681   0.47225   0.71952   0.00000  Uiso   1.00
C1048  C     0.64963   0.47226   0.72060   0.00000  Uiso   1.00
C1049  C     0.49906   0.42073   0.75343   0.00000  Uiso   1.00
C1050  C     0.52619   0.50012   0.64993   0.00000  Uiso   1.00
C1051  C     0.60278   0.50107   0.50908   0.00000  Uiso   1.00
C1052  C     0.54162   0.49860   0.59285   0.00000  Uiso   1.00
C1053  C     0.41160   0.47853   0.93200   0.00000  Uiso   1.00
C1054  C     0.39758   0.47225   0.98518   0.00000  Uiso   1.00
C1055  C     0.43143   0.47608   0.51287   0.00000  Uiso   1.00
Cu1056 Cu    0.45311   0.49999   0.75000   0.00000  Uiso   1.00
Cu1057 Cu    0.54689   0.50001   0.75000   0.00000  Uiso   1.00
H1058  H     0.42265   0.62864   0.75653   0.00000  Uiso   1.00
H1059  H     0.36415   0.54935   0.80247   0.00000  Uiso   1.00
H1060  H     0.63541   0.44999   0.69878   0.00000  Uiso   1.00
H1061  H     0.62044   0.47952   0.91056   0.00000  Uiso   1.00
H1062  H     0.64003   0.50653   0.98597   0.00000  Uiso   1.00
H1063  H     0.46804   0.49071   0.59141   0.00000  Uiso   1.00
H1064  H     0.38374   0.47853   0.91202   0.00000  Uiso   1.00
H1065  H     0.41718   0.47359   0.55417   0.00000  Uiso   1.00
H1066  H     0.36003   0.46536   0.50571   0.00000  Uiso   1.00
H1067  H     0.56106   0.46313   0.86731   0.00000  Uiso   1.00
H1068  H     0.57343   0.62871   0.75732   0.00000  Uiso   1.00
N1069  N     0.38265   0.49999   0.74998   0.00000  Uiso   1.00
N1070  N     0.61735   0.50002   0.74999   0.00000  Uiso   1.00
O1071  O     0.46042   0.56011   0.75000   0.00000  Uiso   1.00
O1072  O     0.53961   0.56012   0.75000   0.00000  Uiso   1.00
O1073  O     0.44108   0.49998   0.82549   0.00000  Uiso   1.00
O1074  O     0.52027   0.49999   0.82549   0.00000  Uiso   1.00
O1075  O     0.46039   0.43988   0.74999   0.00000  Uiso   1.00
O1076  O     0.53958   0.43989   0.74999   0.00000  Uiso   1.00
O1077  O     0.47973   0.50001   0.67451   0.00000  Uiso   1.00
O1078  O     0.55892   0.50002   0.67451   0.00000  Uiso   1.00
O1079  O     0.62788   0.51187   0.58453   0.00000  Uiso   1.00
H1080  H     0.63085   0.48713   0.60446   0.00000  Uiso   1.00
O1081  O     0.58041   0.37260   0.76910   0.00000  Uiso   1.00
H1082  H     0.56858   0.39213   0.79865   0.00000  Uiso   1.00
O1083  O     0.41086   0.37458   0.76486   0.00000  Uiso   1.00
C1084  C     0.37930   0.37060   0.81583   0.00000  Uiso   1.00
H1085  H     0.39916   0.37267   0.84586   0.00000  Uiso   1.00
H1086  H     0.35975   0.34068   0.81944   0.00000  Uiso   1.00
C1087  C     0.34173   0.40514   0.82696   0.00000  Uiso   1.00
H1088  H     0.65575   0.40543   0.79679   0.00000  Uiso   1.00
H1089  H     0.64789   0.40068   0.86543   0.00000  Uiso   1.00
H1090  H     0.36017   0.43519   0.82722   0.00000  Uiso   1.00
O1091  O     0.59849   0.55530   0.81003   0.00000  Uiso   1.00
C1092  C     0.61172   0.57452   0.85120   0.00000  Uiso   1.00
H1093  H     0.63942   0.59884   0.83593   0.00000  Uiso   1.00
H1094  H     0.62582   0.55192   0.87399   0.00000  Uiso   1.00
C1095  C     0.56661   0.59484   0.88767   0.00000  Uiso   1.00
H1096  H     0.53809   0.57135   0.90362   0.00000  Uiso   1.00
H1097  H     0.57641   0.61026   0.92024   0.00000  Uiso   1.00
H1098  H     0.55170   0.61810   0.86651   0.00000  Uiso   1.00
O1099  O     0.40073   0.44329   0.69191   0.00000  Uiso   1.00
C1100  C     0.39022   0.42553   0.64820   0.00000  Uiso   1.00
H1101  H     0.42550   0.42144   0.61740   0.00000  Uiso   1.00
H1102  H     0.36753   0.44527   0.63093   0.00000  Uiso   1.00
C1103  C     0.36787   0.38293   0.66094   0.00000  Uiso   1.00
H1104  H     0.33467   0.38429   0.69476   0.00000  Uiso   1.00
H1105  H     0.35785   0.37016   0.62703   0.00000  Uiso   1.00
H1106  H     0.39482   0.36203   0.67007   0.00000  Uiso   1.00
C1107  C     0.83313   0.57924   0.75080   0.00000  Uiso   1.00
C1108  C     0.81498   0.48150   0.98709   0.00000  Uiso   1.00
C1109  C     0.83019   0.48022   0.93210   0.00000  Uiso   1.00
C1110  C     0.85084   0.48769   0.51371   0.00000  Uiso   1.00
C1111  C     0.90077   0.49063   0.98483   0.00000  Uiso   1.00
C1112  C     0.91531   0.48158   0.93212   0.00000  Uiso   1.00
C1113  C     0.88057   0.47441   0.90663   0.00000  Uiso   1.00
C1114  C     0.83881   0.49216   0.56780   0.00000  Uiso   1.00
C1115  C     0.92421   0.50371   0.56281   0.00000  Uiso   1.00
C1116  C     0.79439   0.48421   0.90492   0.00000  Uiso   1.00
C1117  C     0.87378   0.64497   0.75702   0.00000  Uiso   1.00
C1118  C     0.80784   0.49496   0.84932   0.00000  Uiso   1.00
C1119  C     0.87306   0.35400   0.76152   0.00000  Uiso   1.00
C1120  C     0.83094   0.37598   0.75914   0.00000  Uiso   1.00
C1121  C     0.78760   0.35421   0.76094   0.00000  Uiso   1.00
C1122  C     0.78896   0.64493   0.75708   0.00000  Uiso   1.00
C1123  C     0.83219   0.62371   0.75406   0.00000  Uiso   1.00
C1124  C     0.96639   0.52754   0.78074   0.00000  Uiso   1.00
C1125  C     0.68356   0.52750   0.77982   0.00000  Uiso   1.00
C1126  C     0.70014   0.47225   0.71952   0.00000  Uiso   1.00
C1127  C     0.98296   0.47226   0.72060   0.00000  Uiso   1.00
C1128  C     0.83240   0.42073   0.75343   0.00000  Uiso   1.00
C1129  C     0.85953   0.50012   0.64993   0.00000  Uiso   1.00
C1130  C     0.93612   0.50107   0.50908   0.00000  Uiso   1.00
C1131  C     0.87495   0.49860   0.59285   0.00000  Uiso   1.00
C1132  C     0.74493   0.47853   0.93200   0.00000  Uiso   1.00
C1133  C     0.73091   0.47225   0.98518   0.00000  Uiso   1.00
C1134  C     0.76476   0.47608   0.51287   0.00000  Uiso   1.00
Cu1135 Cu    0.78645   0.49999   0.75000   0.00000  Uiso   1.00
Cu1136 Cu    0.88022   0.50001   0.75000   0.00000  Uiso   1.00
H1137  H     0.75598   0.62864   0.75653   0.00000  Uiso   1.00
H1138  H     0.69748   0.54935   0.80247   0.00000  Uiso   1.00
H1139  H     0.96874   0.44999   0.69878   0.00000  Uiso   1.00
H1140  H     0.95377   0.47952   0.91056   0.00000  Uiso   1.00
H1141  H     0.97336   0.50653   0.98597   0.00000  Uiso   1.00
H1142  H     0.80137   0.49071   0.59141   0.00000  Uiso   1.00
H1143  H     0.71708   0.47853   0.91202   0.00000  Uiso   1.00
H1144  H     0.75051   0.47359   0.55417   0.00000  Uiso   1.00
H1145  H     0.69337   0.46536   0.50571   0.00000  Uiso   1.00
H1146  H     0.89439   0.46313   0.86731   0.00000  Uiso   1.00
H1147  H     0.90676   0.62871   0.75732   0.00000  Uiso   1.00
N1148  N     0.71598   0.49999   0.74998   0.00000  Uiso   1.00
N1149  N     0.95069   0.50002   0.74999   0.00000  Uiso   1.00
O1150  O     0.79375   0.56011   0.75000   0.00000  Uiso   1.00
O1151  O     0.87294   0.56012   0.75000   0.00000  Uiso   1.00
O1152  O     0.77441   0.49998   0.82549   0.00000  Uiso   1.00
O1153  O     0.85360   0.49999   0.82549   0.00000  Uiso   1.00
O1154  O     0.79373   0.43988   0.74999   0.00000  Uiso   1.00
O1155  O     0.87292   0.43989   0.74999   0.00000  Uiso   1.00
O1156  O     0.81306   0.50001   0.67451   0.00000  Uiso   1.00
O1157  O     0.89225   0.50002   0.67451   0.00000  Uiso   1.00
O1158  O     0.96121   0.51187   0.58453   0.00000  Uiso   1.00
H1159  H     0.96419   0.48713   0.60446   0.00000  Uiso   1.00
O1160  O     0.91375   0.37260   0.76910   0.00000  Uiso   1.00
H1161  H     0.90192   0.39213   0.79865   0.00000  Uiso   1.00
O1162  O     0.74419   0.37458   0.76486   0.00000  Uiso   1.00
C1163  C     0.71264   0.37060   0.81583   0.00000  Uiso   1.00
H1164  H     0.73249   0.37267   0.84586   0.00000  Uiso   1.00
H1165  H     0.69308   0.34068   0.81944   0.00000  Uiso   1.00
C1166  C     0.67506   0.40514   0.82696   0.00000  Uiso   1.00
H1167  H     0.98908   0.40543   0.79679   0.00000  Uiso   1.00
H1168  H     0.98123   0.40068   0.86543   0.00000  Uiso   1.00
H1169  H     0.69351   0.43519   0.82722   0.00000  Uiso   1.00
O1170  O     0.93182   0.55530   0.81003   0.00000  Uiso   1.00
C1171  C     0.94505   0.57452   0.85120   0.00000  Uiso   1.00
H1172  H     0.97275   0.59884   0.83593   0.00000  Uiso   1.00
H1173  H     0.95916   0.55192   0.87399   0.00000  Uiso   1.00
C1174  C     0.89994   0.59484   0.88767   0.00000  Uiso   1.00
H1175  H     0.87142   0.57135   0.90362   0.00000  Uiso   1.00
H1176  H     0.90974   0.61026   0.92024   0.00000  Uiso   1.00
H1177  H     0.88503   0.61810   0.86651   0.00000  Uiso   1.00
O1178  O     0.73406   0.44329   0.69191   0.00000  Uiso   1.00
C1179  C     0.72356   0.42553   0.64820   0.00000  Uiso   1.00
H1180  H     0.75883   0.42144   0.61740   0.00000  Uiso   1.00
H1181  H     0.70087   0.44527   0.63093   0.00000  Uiso   1.00
C1182  C     0.70120   0.38293   0.66094   0.00000  Uiso   1.00
H1183  H     0.66801   0.38429   0.69476   0.00000  Uiso   1.00
H1184  H     0.69118   0.37016   0.62703   0.00000  Uiso   1.00
H1185  H     0.72815   0.36203   0.67007   0.00000  Uiso   1.00
C1186  C     0.16647   0.91258   0.75080   0.00000  Uiso   1.00
C1187  C     0.14831   0.81484   0.98709   0.00000  Uiso   1.00
C1188  C     0.16353   0.81355   0.93210   0.00000  Uiso   1.00
C1189  C     0.18418   0.82103   0.51371   0.00000  Uiso   1.00
C1190  C     0.23410   0.82396   0.98483   0.00000  Uiso   1.00
C1191  C     0.24865   0.81491   0.93212   0.00000  Uiso   1.00
C1192  C     0.21390   0.80774   0.90663   0.00000  Uiso   1.00
C1193  C     0.17214   0.82550   0.56780   0.00000  Uiso   1.00
C1194  C     0.25754   0.83704   0.56281   0.00000  Uiso   1.00
C1195  C     0.12773   0.81755   0.90492   0.00000  Uiso   1.00
C1196  C     0.20711   0.97830   0.75702   0.00000  Uiso   1.00
C1197  C     0.14118   0.82829   0.84932   0.00000  Uiso   1.00
C1198  C     0.20640   0.68733   0.76152   0.00000  Uiso   1.00
C1199  C     0.16427   0.70931   0.75914   0.00000  Uiso   1.00
C1200  C     0.12094   0.68755   0.76094   0.00000  Uiso   1.00
C1201  C     0.12229   0.97826   0.75708   0.00000  Uiso   1.00
C1202  C     0.16552   0.95705   0.75406   0.00000  Uiso   1.00
C1203  C     0.29972   0.86087   0.78074   0.00000  Uiso   1.00
C1204  C     0.01689   0.86084   0.77982   0.00000  Uiso   1.00
C1205  C     0.03348   0.80559   0.71952   0.00000  Uiso   1.00
C1206  C     0.31630   0.80559   0.72060   0.00000  Uiso   1.00
C1207  C     0.16573   0.75406   0.75343   0.00000  Uiso   1.00
C1208  C     0.19286   0.83345   0.64993   0.00000  Uiso   1.00
C1209  C     0.26945   0.83440   0.50908   0.00000  Uiso   1.00
C1210  C     0.20828   0.83193   0.59285   0.00000  Uiso   1.00
C1211  C     0.07826   0.81186   0.93200   0.00000  Uiso   1.00
C1212  C     0.06425   0.80558   0.98518   0.00000  Uiso   1.00
C1213  C     0.09809   0.80942   0.51287   0.00000  Uiso   1.00
Cu1214 Cu    0.11978   0.83333   0.75000   0.00000  Uiso   1.00
Cu1215 Cu    0.21355   0.83334   0.75000   0.00000  Uiso   1.00
H1216  H     0.08931   0.96197   0.75653   0.00000  Uiso   1.00
H1217  H     0.03081   0.88268   0.80247   0.00000  Uiso   1.00
H1218  H     0.30208   0.78332   0.69878   0.00000  Uiso   1.00
H1219  H     0.28711   0.81286   0.91056   0.00000  Uiso   1.00
H1220  H     0.30669   0.83987   0.98597   0.00000  Uiso   1.00
H1221  H     0.13471   0.82404   0.59141   0.00000  Uiso   1.00
H1222  H     0.05041   0.81187   0.91202   0.00000  Uiso   1.00
H1223  H     0.08384   0.80692   0.55417   0.00000  Uiso   1.00
H1224  H     0.02670   0.79869   0.50571   0.00000  Uiso   1.00
H1225  H     0.22773   0.79647   0.86731   0.00000  Uiso   1.00
H1226  H     0.24010   0.96204   0.75732   0.00000  Uiso   1.00
N1227  N     0.04931   0.83332   0.74998   0.00000  Uiso   1.00
N1228  N     0.28402   0.83335   0.74999   0.00000  Uiso   1.00
O1229  O     0.12708   0.89345   0.75000   0.00000  Uiso   1.00
O1230  O     0.20627   0.89346   0.75000   0.00000  Uiso   1.00
O1231  O     0.10775   0.83332   0.82549   0.00000  Uiso   1.00
O1232  O     0.18694   0.83333   0.82549   0.00000  Uiso   1.00
O1233  O     0.12706   0.77321   0.74999   0.00000  Uiso   1.00
O1234  O     0.20625   0.77322   0.74999   0.00000  Uiso   1.00
O1235  O     0.14640   0.83334   0.67451   0.00000  Uiso   1.00
O1236  O     0.22559   0.83335   0.67451   0.00000  Uiso   1.00
O1237  O     0.29455   0.84520   0.58453   0.00000  Uiso   1.00
H1238  H     0.29752   0.82046   0.60446   0.00000  Uiso   1.00
O1239  O     0.24708   0.70594   0.76910   0.00000  Uiso   1.00
H1240  H     0.23525   0.72546   0.79865   0.00000  Uiso   1.00
O1241  O     0.07753   0.70792   0.76486   0.00000  Uiso   1.00
C1242  C     0.04597   0.70393   0.81583   0.00000  Uiso   1.00
H1243  H     0.06582   0.70601   0.84586   0.00000  Uiso   1.00
H1244  H     0.02642   0.67401   0.81944   0.00000  Uiso   1.00
C1245  C     0.00840   0.73847   0.82696   0.00000  Uiso   1.00
H1246  H     0.32242   0.73876   0.79679   0.00000  Uiso   1.00
H1247  H     0.31456   0.73401   0.86543   0.00000  Uiso   1.00
H1248  H     0.02684   0.76852   0.82722   0.00000  Uiso   1.00
O1249  O     0.26516   0.88863   0.81003   0.00000  Uiso   1.00
C1250  C     0.27838   0.90785   0.85120   0.00000  Uiso   1.00
H1251  H     0.30609   0.93217   0.83593   0.00000  Uiso   1.00
H1252  H     0.29249   0.88525   0.87399   0.00000  Uiso   1.00
C1253  C     0.23327   0.92817   0.88767   0.00000  Uiso   1.00
H1254  H     0.20476   0.90468   0.90362   0.00000  Uiso   1.00
H1255  H     0.24307   0.94359   0.92024   0.00000  Uiso   1.00
H1256  H     0.21837   0.95144   0.86651   0.00000  Uiso   1.00
O1257  O     0.06740   0.77662   0.69191   0.00000  Uiso   1.00
C1258  C     0.05689   0.75886   0.64820   0.00000  Uiso   1.00
H1259  H     0.09216   0.75477   0.61740   0.00000  Uiso   1.00
H1260  H     0.03420   0.77861   0.63093   0.00000  Uiso   1.00
C1261  C     0.03454   0.71626   0.66094   0.00000  Uiso   1.00
H1262  H     0.00134   0.71763   0.69476   0.00000  Uiso   1.00
H1263  H     0.02451   0.70349   0.62703   0.00000  Uiso   1.00
H1264  H     0.06148   0.69536   0.67007   0.00000  Uiso   1.00
C1265  C     0.49980   0.91258   0.75080   0.00000  Uiso   1.00
C1266  C     0.48165   0.81484   0.98709   0.00000  Uiso   1.00
C1267  C     0.49686   0.81355   0.93210   0.00000  Uiso   1.00
C1268  C     0.51751   0.82103   0.51371   0.00000  Uiso   1.00
C1269  C     0.56744   0.82396   0.98483   0.00000  Uiso   1.00
C1270  C     0.58198   0.81491   0.93212   0.00000  Uiso   1.00
C1271  C     0.54724   0.80774   0.90663   0.00000  Uiso   1.00
C1272  C     0.50547   0.82550   0.56780   0.00000  Uiso   1.00
C1273  C     0.59087   0.83704   0.56281   0.00000  Uiso   1.00
C1274  C     0.46106   0.81755   0.90492   0.00000  Uiso   1.00
C1275  C     0.54044   0.97830   0.75702   0.00000  Uiso   1.00
C1276  C     0.47451   0.82829   0.84932   0.00000  Uiso   1.00
C1277  C     0.53973   0.68733   0.76152   0.00000  Uiso   1.00
C1278  C     0.49761   0.70931   0.75914   0.00000  Uiso   1.00
C1279  C     0.45427   0.68755   0.76094   0.00000  Uiso   1.00
C1280  C     0.45562   0.97826   0.75708   0.00000  Uiso   1.00
C1281  C     0.49886   0.95705   0.75406   0.00000  Uiso   1.00
C1282  C     0.63306   0.86087   0.78074   0.00000  Uiso   1.00
C1283  C     0.35023   0.86084   0.77982   0.00000  Uiso   1.00
C1284  C     0.36681   0.80559   0.71952   0.00000  Uiso   1.00
C1285  C     0.64963   0.80559   0.72060   0.00000  Uiso   1.00
C1286  C     0.49906   0.75406   0.75343   0.00000  Uiso   1.00
C1287  C     0.52619   0.83345   0.64993   0.00000  Uiso   1.00
C1288  C     0.60278   0.83440   0.50908   0.00000  Uiso   1.00
C1289  C     0.54162   0.83193   0.59285   0.00000  Uiso   1.00
C1290  C     0.41160   0.81186   0.93200   0.00000  Uiso   1.00
C1291  C     0.39758   0.80558   0.98518   0.00000  Uiso   1.00
C1292  C     0.43143   0.80942   0.51287   0.00000  Uiso   1.00
Cu1293 Cu    0.45311   0.83333   0.75000   0.00000  Uiso   1.00
Cu1294 Cu    0.54689   0.83334   0.75000   0.00000  Uiso   1.00
H1295  H     0.42265   0.96197   0.75653   0.00000  Uiso   1.00
H1296  H     0.36415   0.88268   0.80247   0.00000  Uiso   1.00
H1297  H     0.63541   0.78332   0.69878   0.00000  Uiso   1.00
H1298  H     0.62044   0.81286   0.91056   0.00000  Uiso   1.00
H1299  H     0.64003   0.83987   0.98597   0.00000  Uiso   1.00
H1300  H     0.46804   0.82404   0.59141   0.00000  Uiso   1.00
H1301  H     0.38374   0.81187   0.91202   0.00000  Uiso   1.00
H1302  H     0.41718   0.80692   0.55417   0.00000  Uiso   1.00
H1303  H     0.36003   0.79869   0.50571   0.00000  Uiso   1.00
H1304  H     0.56106   0.79647   0.86731   0.00000  Uiso   1.00
H1305  H     0.57343   0.96204   0.75732   0.00000  Uiso   1.00
N1306  N     0.38265   0.83332   0.74998   0.00000  Uiso   1.00
N1307  N     0.61735   0.83335   0.74999   0.00000  Uiso   1.00
O1308  O     0.46042   0.89345   0.75000   0.00000  Uiso   1.00
O1309  O     0.53961   0.89346   0.75000   0.00000  Uiso   1.00
O1310  O     0.44108   0.83332   0.82549   0.00000  Uiso   1.00
O1311  O     0.52027   0.83333   0.82549   0.00000  Uiso   1.00
O1312  O     0.46039   0.77321   0.74999   0.00000  Uiso   1.00
O1313  O     0.53958   0.77322   0.74999   0.00000  Uiso   1.00
O1314  O     0.47973   0.83334   0.67451   0.00000  Uiso   1.00
O1315  O     0.55892   0.83335   0.67451   0.00000  Uiso   1.00
O1316  O     0.62788   0.84520   0.58453   0.00000  Uiso   1.00
H1317  H     0.63085   0.82046   0.60446   0.00000  Uiso   1.00
O1318  O     0.58041   0.70594   0.76910   0.00000  Uiso   1.00
H1319  H     0.56858   0.72546   0.79865   0.00000  Uiso   1.00
O1320  O     0.41086   0.70792   0.76486   0.00000  Uiso   1.00
C1321  C     0.37930   0.70393   0.81583   0.00000  Uiso   1.00
H1322  H     0.39916   0.70601   0.84586   0.00000  Uiso   1.00
H1323  H     0.35975   0.67401   0.81944   0.00000  Uiso   1.00
C1324  C     0.34173   0.73847   0.82696   0.00000  Uiso   1.00
H1325  H     0.65575   0.73876   0.79679   0.00000  Uiso   1.00
H1326  H     0.64789   0.73401   0.86543   0.00000  Uiso   1.00
H1327  H     0.36017   0.76852   0.82722   0.00000  Uiso   1.00
O1328  O     0.59849   0.88863   0.81003   0.00000  Uiso   1.00
C1329  C     0.61172   0.90785   0.85120   0.00000  Uiso   1.00
H1330  H     0.63942   0.93217   0.83593   0.00000  Uiso   1.00
H1331  H     0.62582   0.88525   0.87399   0.00000  Uiso   1.00
C1332  C     0.56661   0.92817   0.88767   0.00000  Uiso   1.00
H1333  H     0.53809   0.90468   0.90362   0.00000  Uiso   1.00
H1334  H     0.57641   0.94359   0.92024   0.00000  Uiso   1.00
H1335  H     0.55170   0.95144   0.86651   0.00000  Uiso   1.00
O1336  O     0.40073   0.77662   0.69191   0.00000  Uiso   1.00
C1337  C     0.39022   0.75886   0.64820   0.00000  Uiso   1.00
H1338  H     0.42550   0.75477   0.61740   0.00000  Uiso   1.00
H1339  H     0.36753   0.77861   0.63093   0.00000  Uiso   1.00
C1340  C     0.36787   0.71626   0.66094   0.00000  Uiso   1.00
H1341  H     0.33467   0.71763   0.69476   0.00000  Uiso   1.00
H1342  H     0.35785   0.70349   0.62703   0.00000  Uiso   1.00
H1343  H     0.39482   0.69536   0.67007   0.00000  Uiso   1.00
C1344  C     0.83313   0.91258   0.75080   0.00000  Uiso   1.00
C1345  C     0.81498   0.81484   0.98709   0.00000  Uiso   1.00
C1346  C     0.83019   0.81355   0.93210   0.00000  Uiso   1.00
C1347  C     0.85084   0.82103   0.51371   0.00000  Uiso   1.00
C1348  C     0.90077   0.82396   0.98483   0.00000  Uiso   1.00
C1349  C     0.91531   0.81491   0.93212   0.00000  Uiso   1.00
C1350  C     0.88057   0.80774   0.90663   0.00000  Uiso   1.00
C1351  C     0.83881   0.82550   0.56780   0.00000  Uiso   1.00
C1352  C     0.92421   0.83704   0.56281   0.00000  Uiso   1.00
C1353  C     0.79439   0.81755   0.90492   0.00000  Uiso   1.00
C1354  C     0.87378   0.97830   0.75702   0.00000  Uiso   1.00
C1355  C     0.80784   0.82829   0.84932   0.00000  Uiso   1.00
C1356  C     0.87306   0.68733   0.76152   0.00000  Uiso   1.00
C1357  C     0.83094   0.70931   0.75914   0.00000  Uiso   1.00
C1358  C     0.78760   0.68755   0.76094   0.00000  Uiso   1.00
C1359  C     0.78896   0.97826   0.75708   0.00000  Uiso   1.00
C1360  C     0.83219   0.95705   0.75406   0.00000  Uiso   1.00
C1361  C     0.96639   0.86087   0.78074   0.00000  Uiso   1.00
C1362  C     0.68356   0.86084   0.77982   0.00000  Uiso   1.00
C1363  C     0.70014   0.80559   0.71952   0.00000  Uiso   1.00
C1364  C     0.98296   0.80559   0.72060   0.00000  Uiso   1.00
C1365  C     0.83240   0.75406   0.75343   0.00000  Uiso   1.00
C1366  C     0.85953   0.83345   0.64993   0.00000  Uiso   1.00
C1367  C     0.93612   0.83440   0.50908   0.00000  Uiso   1.00
C1368  C     0.87495   0.83193   0.59285   0.00000  Uiso   1.00
C1369  C     0.74493   0.81186   0.93200   0.00000  Uiso   1.00
C1370  C     0.73091   0.80558   0.98518   0.00000  Uiso   1.00
C1371  C     0.76476   0.80942   0.51287   0.00000  Uiso   1.00
Cu1372 Cu    0.78645   0.83333   0.75000   0.00000  Uiso   1.00
Cu1373 Cu    0.88022   0.83334   0.75000   0.00000  Uiso   1.00
H1374  H     0.75598   0.96197   0.75653   0.00000  Uiso   1.00
H1375  H     0.69748   0.88268   0.80247   0.00000  Uiso   1.00
H1376  H     0.96874   0.78332   0.69878   0.00000  Uiso   1.00
H1377  H     0.95377   0.81286   0.91056   0.00000  Uiso   1.00
H1378  H     0.97336   0.83987   0.98597   0.00000  Uiso   1.00
H1379  H     0.80137   0.82404   0.59141   0.00000  Uiso   1.00
H1380  H     0.71708   0.81187   0.91202   0.00000  Uiso   1.00
H1381  H     0.75051   0.80692   0.55417   0.00000  Uiso   1.00
H1382  H     0.69337   0.79869   0.50571   0.00000  Uiso   1.00
H1383  H     0.89439   0.79647   0.86731   0.00000  Uiso   1.00
H1384  H     0.90676   0.96204   0.75732   0.00000  Uiso   1.00
N1385  N     0.71598   0.83332   0.74998   0.00000  Uiso   1.00
N1386  N     0.95069   0.83335   0.74999   0.00000  Uiso   1.00
O1387  O     0.79375   0.89345   0.75000   0.00000  Uiso   1.00
O1388  O     0.87294   0.89346   0.75000   0.00000  Uiso   1.00
O1389  O     0.77441   0.83332   0.82549   0.00000  Uiso   1.00
O1390  O     0.85360   0.83333   0.82549   0.00000  Uiso   1.00
O1391  O     0.79373   0.77321   0.74999   0.00000  Uiso   1.00
O1392  O     0.87292   0.77322   0.74999   0.00000  Uiso   1.00
O1393  O     0.81306   0.83334   0.67451   0.00000  Uiso   1.00
O1394  O     0.89225   0.83335   0.67451   0.00000  Uiso   1.00
O1395  O     0.96121   0.84520   0.58453   0.00000  Uiso   1.00
H1396  H     0.96419   0.82046   0.60446   0.00000  Uiso   1.00
O1397  O     0.91375   0.70594   0.76910   0.00000  Uiso   1.00
H1398  H     0.90192   0.72546   0.79865   0.00000  Uiso   1.00
O1399  O     0.74419   0.70792   0.76486   0.00000  Uiso   1.00
C1400  C     0.71264   0.70393   0.81583   0.00000  Uiso   1.00
H1401  H     0.73249   0.70601   0.84586   0.00000  Uiso   1.00
H1402  H     0.69308   0.67401   0.81944   0.00000  Uiso   1.00
C1403  C     0.67506   0.73847   0.82696   0.00000  Uiso   1.00
H1404  H     0.98908   0.73876   0.79679   0.00000  Uiso   1.00
H1405  H     0.98123   0.73401   0.86543   0.00000  Uiso   1.00
H1406  H     0.69351   0.76852   0.82722   0.00000  Uiso   1.00
O1407  O     0.93182   0.88863   0.81003   0.00000  Uiso   1.00
C1408  C     0.94505   0.90785   0.85120   0.00000  Uiso   1.00
H1409  H     0.97275   0.93217   0.83593   0.00000  Uiso   1.00
H1410  H     0.95916   0.88525   0.87399   0.00000  Uiso   1.00
C1411  C     0.89994   0.92817   0.88767   0.00000  Uiso   1.00
H1412  H     0.87142   0.90468   0.90362   0.00000  Uiso   1.00
H1413  H     0.90974   0.94359   0.92024   0.00000  Uiso   1.00
H1414  H     0.88503   0.95144   0.86651   0.00000  Uiso   1.00
O1415  O     0.73406   0.77662   0.69191   0.00000  Uiso   1.00
C1416  C     0.72356   0.75886   0.64820   0.00000  Uiso   1.00
H1417  H     0.75883   0.75477   0.61740   0.00000  Uiso   1.00
H1418  H     0.70087   0.77861   0.63093   0.00000  Uiso   1.00
C1419  C     0.70120   0.71626   0.66094   0.00000  Uiso   1.00
H1420  H     0.66801   0.71763   0.69476   0.00000  Uiso   1.00
H1421  H     0.69118   0.70349   0.62703   0.00000  Uiso   1.00
H1422  H     0.72815   0.69536   0.67007   0.00000  Uiso   1.00
loop_
_geom_bond_atom_site_label_1
_geom_bond_atom_site_label_2
_geom_bond_distance
_geom_bond_site_symmetry_2
_ccdc_geom_bond_type
C1     O44     1.290   .     A
C1     C17     1.448   .     S
C1     O45     1.292   .     A
C2     C3      1.419   .     A
C2     C715    1.425   .     S
C2     C739    1.412   .     S
C3     C7      1.414   .     A
C3     C10     1.428   .     A
C4     C8      1.403   .     A
C4     C713    1.425   1_554 S
C4     C716    1.415   1_554 S
C5     C6      1.387   .     A
C5     C715    1.415   .     S
C5     C735    1.393   .     S
C6     H34     1.085   .     S
C6     C7      1.380   .     A
C7     H40     1.077   .     S
C8     H36     1.075   .     S
C8     C25     1.403   .     A
C9     C25     1.415   .     A
C9     O52     1.374   .     S
C9     C24     1.390   .     A
C10    C26     1.402   .     A
C10    C12     1.482   .     S
C11    C17     1.395   .     A
C11    H41     1.084   .     S
C11    C250    1.382   .     S
C12    O47     1.289   .     A
C12    O46     1.309   .     A
C13    C14     1.419   .     A
C13    O54     1.375   .     S
C13    C485    1.382   1_545 S
C14    C22     1.465   .     S
C14    C15     1.414   .     A
C15    O56     1.384   .     S
C15    C490    1.389   1_545 S
C16    H31     1.084   .     S
C16    C17     1.397   .     A
C16    C252    1.389   .     S
C18    O64     1.395   .     S
C18    N43     1.373   .     A
C18    C98     1.436   .     S
C19    N42     1.363   .     A
C19    H32     1.080   .     S
C19    C176    1.436   1_455 S
C20    N42     1.374   .     A
C20    O72     1.395   .     S
C20    C179    1.435   1_455 S
C21    H33     1.078   .     S
C21    N43     1.361   .     A
C21    C99     1.435   .     S
C22    O48     1.297   .     A
C22    O49     1.293   .     A
C23    O50     1.299   .     A
C23    O51     1.294   .     A
C23    C25     1.473   .     S
C24    C716    1.393   1_554 S
C24    H746    1.080   1_554 S
C26    C27     1.390   .     A
C26    H37     1.083   .     S
C27    C739    1.388   .     S
C27    H750    1.078   .     S
C28    H38     1.073   .     S
C28    C738    1.388   1_554 S
C28    C713    1.412   1_554 S
Cu29   N42     2.013   .     S
Cu29   O50     1.954   .     S
Cu29   O48     1.967   .     S
Cu29   Cu30    2.679   .     S
Cu29   O44     1.967   .     S
Cu29   O46     1.963   .     S
Cu30   O51     1.963   .     S
Cu30   O45     1.967   .     S
Cu30   O47     1.954   .     S
Cu30   O49     1.967   .     S
Cu30   N43     2.013   .     S
H35    C735    1.080   .     S
H39    C738    1.078   1_554 S
O52    H53     0.991   .     S
O54    H55     0.992   .     S
O56    C57     1.414   .     S
C57    H59     1.112   .     S
C57    C60     1.521   .     S
C57    H58     1.117   .     S
C60    H63     1.110   .     S
C60    H219    1.109   1_455 S
C60    H220    1.110   1_455 S
H61    C139    1.109   .     S
H62    C139    1.110   .     S
O64    C65     1.411   .     S
C65    H67     1.113   .     S
C65    C68     1.521   .     S
C65    H66     1.112   .     S
C68    H69     1.111   .     S
C68    H71     1.111   .     S
C68    H70     1.110   .     S
O72    C73     1.415   .     S
C73    H74     1.110   .     S
C73    H75     1.112   .     S
C73    C76     1.526   .     S
C76    H79     1.110   .     S
C76    H78     1.110   .     S
C76    H77     1.108   .     S
C80    O123    1.290   .     A
C80    C96     1.448   .     S
C80    O124    1.292   .     A
C81    C82     1.419   .     A
C81    C794    1.425   .     S
C81    C818    1.412   .     S
C82    C86     1.414   .     A
C82    C89     1.428   .     A
C83    C87     1.403   .     A
C83    C792    1.425   1_554 S
C83    C795    1.415   1_554 S
C84    C85     1.387   .     A
C84    C794    1.415   .     S
C84    C814    1.393   .     S
C85    H113    1.085   .     S
C85    C86     1.380   .     A
C86    H119    1.077   .     S
C87    H115    1.075   .     S
C87    C104    1.403   .     A
C88    C104    1.415   .     A
C88    O131    1.374   .     S
C88    C103    1.390   .     A
C89    C105    1.402   .     A
C89    C91     1.482   .     S
C90    C96     1.395   .     A
C90    H120    1.084   .     S
C90    C329    1.382   .     S
C91    O126    1.289   .     A
C91    O125    1.309   .     A
C92    C93     1.419   .     A
C92    O133    1.375   .     S
C92    C564    1.382   1_545 S
C93    C101    1.465   .     S
C93    C94     1.414   .     A
C94    O135    1.384   .     S
C94    C569    1.389   1_545 S
C95    H110    1.084   .     S
C95    C96     1.397   .     A
C95    C331    1.389   .     S
C97    O143    1.395   .     S
C97    N122    1.373   .     A
C97    C177    1.436   .     S
C98    N121    1.363   .     A
C98    H111    1.080   .     S
C99    N121    1.374   .     A
C99    O151    1.395   .     S
C100   H112    1.078   .     S
C100   N122    1.361   .     A
C100   C178    1.435   .     S
C101   O127    1.297   .     A
C101   O128    1.293   .     A
C102   O129    1.299   .     A
C102   O130    1.294   .     A
C102   C104    1.473   .     S
C103   C795    1.393   1_554 S
C103   H825    1.080   1_554 S
C105   C106    1.390   .     A
C105   H116    1.083   .     S
C106   C818    1.388   .     S
C106   H829    1.078   .     S
C107   H117    1.073   .     S
C107   C817    1.388   1_554 S
C107   C792    1.412   1_554 S
Cu108  N121    2.013   .     S
Cu108  O129    1.954   .     S
Cu108  O127    1.967   .     S
Cu108  Cu109   2.679   .     S
Cu108  O123    1.967   .     S
Cu108  O125    1.963   .     S
Cu109  O130    1.963   .     S
Cu109  O124    1.967   .     S
Cu109  O126    1.954   .     S
Cu109  O128    1.967   .     S
Cu109  N122    2.013   .     S
H114   C814    1.080   .     S
H118   C817    1.078   1_554 S
O131   H132    0.991   .     S
O133   H134    0.992   .     S
O135   C136    1.414   .     S
C136   H138    1.112   .     S
C136   C139    1.521   .     S
C136   H137    1.117   .     S
C139   H142    1.110   .     S
H140   C218    1.109   .     S
H141   C218    1.110   .     S
O143   C144    1.411   .     S
C144   H146    1.113   .     S
C144   C147    1.521   .     S
C144   H145    1.112   .     S
C147   H148    1.111   .     S
C147   H150    1.111   .     S
C147   H149    1.110   .     S
O151   C152    1.415   .     S
C152   H153    1.110   .     S
C152   H154    1.112   .     S
C152   C155    1.526   .     S
C155   H158    1.110   .     S
C155   H157    1.110   .     S
C155   H156    1.108   .     S
C159   O202    1.290   .     A
C159   C175    1.448   .     S
C159   O203    1.292   .     A
C160   C161    1.419   .     A
C160   C873    1.425   .     S
C160   C897    1.412   .     S
C161   C165    1.414   .     A
C161   C168    1.428   .     A
C162   C166    1.403   .     A
C162   C871    1.425   1_554 S
C162   C874    1.415   1_554 S
C163   C164    1.387   .     A
C163   C873    1.415   .     S
C163   C893    1.393   .     S
C164   H192    1.085   .     S
C164   C165    1.380   .     A
C165   H198    1.077   .     S
C166   H194    1.075   .     S
C166   C183    1.403   .     A
C167   C183    1.415   .     A
C167   O210    1.374   .     S
C167   C182    1.390   .     A
C168   C184    1.402   .     A
C168   C170    1.482   .     S
C169   C175    1.395   .     A
C169   H199    1.084   .     S
C169   C408    1.382   .     S
C170   O205    1.289   .     A
C170   O204    1.309   .     A
C171   C172    1.419   .     A
C171   O212    1.375   .     S
C171   C643    1.382   1_545 S
C172   C180    1.465   .     S
C172   C173    1.414   .     A
C173   O214    1.384   .     S
C173   C648    1.389   1_545 S
C174   H189    1.084   .     S
C174   C175    1.397   .     A
C174   C410    1.389   .     S
C176   O222    1.395   .     S
C176   N201    1.373   .     A
C176   C19     1.436   1_655 S
C177   N200    1.363   .     A
C177   H190    1.080   .     S
C178   N200    1.374   .     A
C178   O230    1.395   .     S
C179   H191    1.078   .     S
C179   N201    1.361   .     A
C179   C20     1.435   1_655 S
C180   O206    1.297   .     A
C180   O207    1.293   .     A
C181   O208    1.299   .     A
C181   O209    1.294   .     A
C181   C183    1.473   .     S
C182   C874    1.393   1_554 S
C182   H904    1.080   1_554 S
C184   C185    1.390   .     A
C184   H195    1.083   .     S
C185   C897    1.388   .     S
C185   H908    1.078   .     S
C186   H196    1.073   .     S
C186   C896    1.388   1_554 S
C186   C871    1.412   1_554 S
Cu187  N200    2.013   .     S
Cu187  O208    1.954   .     S
Cu187  O206    1.967   .     S
Cu187  Cu188   2.679   .     S
Cu187  O202    1.967   .     S
Cu187  O204    1.963   .     S
Cu188  O209    1.963   .     S
Cu188  O203    1.967   .     S
Cu188  O205    1.954   .     S
Cu188  O207    1.967   .     S
Cu188  N201    2.013   .     S
H193   C893    1.080   .     S
H197   C896    1.078   1_554 S
O210   H211    0.991   .     S
O212   H213    0.992   .     S
O214   C215    1.414   .     S
C215   H217    1.112   .     S
C215   C218    1.521   .     S
C215   H216    1.117   .     S
C218   H221    1.110   .     S
H219   C60     1.109   1_655 S
H220   C60     1.110   1_655 S
O222   C223    1.411   .     S
C223   H225    1.113   .     S
C223   C226    1.521   .     S
C223   H224    1.112   .     S
C226   H227    1.111   .     S
C226   H229    1.111   .     S
C226   H228    1.110   .     S
O230   C231    1.415   .     S
C231   H232    1.110   .     S
C231   H233    1.112   .     S
C231   C234    1.526   .     S
C234   H237    1.110   .     S
C234   H236    1.110   .     S
C234   H235    1.108   .     S
C238   O281    1.290   .     A
C238   C254    1.448   .     S
C238   O282    1.292   .     A
C239   C240    1.419   .     A
C239   C952    1.425   .     S
C239   C976    1.412   .     S
C240   C244    1.414   .     A
C240   C247    1.428   .     A
C241   C245    1.403   .     A
C241   C950    1.425   1_554 S
C241   C953    1.415   1_554 S
C242   C243    1.387   .     A
C242   C952    1.415   .     S
C242   C972    1.393   .     S
C243   H271    1.085   .     S
C243   C244    1.380   .     A
C244   H277    1.077   .     S
C245   H273    1.075   .     S
C245   C262    1.403   .     A
C246   C262    1.415   .     A
C246   O289    1.374   .     S
C246   C261    1.390   .     A
C247   C263    1.402   .     A
C247   C249    1.482   .     S
C248   C254    1.395   .     A
C248   H278    1.084   .     S
C248   C487    1.382   .     S
C249   O284    1.289   .     A
C249   O283    1.309   .     A
C250   C251    1.419   .     A
C250   O291    1.375   .     S
C251   C259    1.465   .     S
C251   C252    1.414   .     A
C252   O293    1.384   .     S
C253   H268    1.084   .     S
C253   C254    1.397   .     A
C253   C489    1.389   .     S
C255   O301    1.395   .     S
C255   N280    1.373   .     A
C255   C335    1.436   .     S
C256   N279    1.363   .     A
C256   H269    1.080   .     S
C256   C413    1.436   1_455 S
C257   N279    1.374   .     A
C257   O309    1.395   .     S
C257   C416    1.435   1_455 S
C258   H270    1.078   .     S
C258   N280    1.361   .     A
C258   C336    1.435   .     S
C259   O285    1.297   .     A
C259   O286    1.293   .     A
C260   O287    1.299   .     A
C260   O288    1.294   .     A
C260   C262    1.473   .     S
C261   C953    1.393   1_554 S
C261   H983    1.080   1_554 S
C263   C264    1.390   .     A
C263   H274    1.083   .     S
C264   C976    1.388   .     S
C264   H987    1.078   .     S
C265   H275    1.073   .     S
C265   C975    1.388   1_554 S
C265   C950    1.412   1_554 S
Cu266  N279    2.013   .     S
Cu266  O287    1.954   .     S
Cu266  O285    1.967   .     S
Cu266  Cu267   2.679   .     S
Cu266  O281    1.967   .     S
Cu266  O283    1.963   .     S
Cu267  O288    1.963   .     S
Cu267  O282    1.967   .     S
Cu267  O284    1.954   .     S
Cu267  O286    1.967   .     S
Cu267  N280    2.013   .     S
H272   C972    1.080   .     S
H276   C975    1.078   1_554 S
O289   H290    0.991   .     S
O291   H292    0.992   .     S
O293   C294    1.414   .     S
C294   H296    1.112   .     S
C294   C297    1.521   .     S
C294   H295    1.117   .     S
C297   H300    1.110   .     S
C297   H456    1.109   1_455 S
C297   H457    1.110   1_455 S
H298   C376    1.109   .     S
H299   C376    1.110   .     S
O301   C302    1.411   .     S
C302   H304    1.113   .     S
C302   C305    1.521   .     S
C302   H303    1.112   .     S
C305   H306    1.111   .     S
C305   H308    1.111   .     S
C305   H307    1.110   .     S
O309   C310    1.415   .     S
C310   H311    1.110   .     S
C310   H312    1.112   .     S
C310   C313    1.526   .     S
C313   H316    1.110   .     S
C313   H315    1.110   .     S
C313   H314    1.108   .     S
C317   O360    1.290   .     A
C317   C333    1.448   .     S
C317   O361    1.292   .     A
C318   C319    1.419   .     A
C318   C1031   1.425   .     S
C318   C1055   1.412   .     S
C319   C323    1.414   .     A
C319   C326    1.428   .     A
C320   C324    1.403   .     A
C320   C1029   1.425   1_554 S
C320   C1032   1.415   1_554 S
C321   C322    1.387   .     A
C321   C1031   1.415   .     S
C321   C1051   1.393   .     S
C322   H350    1.085   .     S
C322   C323    1.380   .     A
C323   H356    1.077   .     S
C324   H352    1.075   .     S
C324   C341    1.403   .     A
C325   C341    1.415   .     A
C325   O368    1.374   .     S
C325   C340    1.390   .     A
C326   C342    1.402   .     A
C326   C328    1.482   .     S
C327   C333    1.395   .     A
C327   H357    1.084   .     S
C327   C566    1.382   .     S
C328   O363    1.289   .     A
C328   O362    1.309   .     A
C329   C330    1.419   .     A
C329   O370    1.375   .     S
C330   C338    1.465   .     S
C330   C331    1.414   .     A
C331   O372    1.384   .     S
C332   H347    1.084   .     S
C332   C333    1.397   .     A
C332   C568    1.389   .     S
C334   O380    1.395   .     S
C334   N359    1.373   .     A
C334   C414    1.436   .     S
C335   N358    1.363   .     A
C335   H348    1.080   .     S
C336   N358    1.374   .     A
C336   O388    1.395   .     S
C337   H349    1.078   .     S
C337   N359    1.361   .     A
C337   C415    1.435   .     S
C338   O364    1.297   .     A
C338   O365    1.293   .     A
C339   O366    1.299   .     A
C339   O367    1.294   .     A
C339   C341    1.473   .     S
C340   C1032   1.393   1_554 S
C340   H1062   1.080   1_554 S
C342   C343    1.390   .     A
C342   H353    1.083   .     S
C343   C1055   1.388   .     S
C343   H1066   1.078   .     S
C344   H354    1.073   .     S
C344   C1054   1.388   1_554 S
C344   C1029   1.412   1_554 S
Cu345  N358    2.013   .     S
Cu345  O366    1.954   .     S
Cu345  O364    1.967   .     S
Cu345  Cu346   2.679   .     S
Cu345  O360    1.967   .     S
Cu345  O362    1.963   .     S
Cu346  O367    1.963   .     S
Cu346  O361    1.967   .     S
Cu346  O363    1.954   .     S
Cu346  O365    1.967   .     S
Cu346  N359    2.013   .     S
H351   C1051   1.080   .     S
H355   C1054   1.078   1_554 S
O368   H369    0.991   .     S
O370   H371    0.992   .     S
O372   C373    1.414   .     S
C373   H375    1.112   .     S
C373   C376    1.521   .     S
C373   H374    1.117   .     S
C376   H379    1.110   .     S
H377   C455    1.109   .     S
H378   C455    1.110   .     S
O380   C381    1.411   .     S
C381   H383    1.113   .     S
C381   C384    1.521   .     S
C381   H382    1.112   .     S
C384   H385    1.111   .     S
C384   H387    1.111   .     S
C384   H386    1.110   .     S
O388   C389    1.415   .     S
C389   H390    1.110   .     S
C389   H391    1.112   .     S
C389   C392    1.526   .     S
C392   H395    1.110   .     S
C392   H394    1.110   .     S
C392   H393    1.108   .     S
C396   O439    1.290   .     A
C396   C412    1.448   .     S
C396   O440    1.292   .     A
C397   C398    1.419   .     A
C397   C1110   1.425   .     S
C397   C1134   1.412   .     S
C398   C402    1.414   .     A
C398   C405    1.428   .     A
C399   C403    1.403   .     A
C399   C1108   1.425   1_554 S
C399   C1111   1.415   1_554 S
C400   C401    1.387   .     A
C400   C1110   1.415   .     S
C400   C1130   1.393   .     S
C401   H429    1.085   .     S
C401   C402    1.380   .     A
C402   H435    1.077   .     S
C403   H431    1.075   .     S
C403   C420    1.403   .     A
C404   C420    1.415   .     A
C404   O447    1.374   .     S
C404   C419    1.390   .     A
C405   C421    1.402   .     A
C405   C407    1.482   .     S
C406   C412    1.395   .     A
C406   H436    1.084   .     S
C406   C645    1.382   .     S
C407   O442    1.289   .     A
C407   O441    1.309   .     A
C408   C409    1.419   .     A
C408   O449    1.375   .     S
C409   C417    1.465   .     S
C409   C410    1.414   .     A
C410   O451    1.384   .     S
C411   H426    1.084   .     S
C411   C412    1.397   .     A
C411   C647    1.389   .     S
C413   O459    1.395   .     S
C413   N438    1.373   .     A
C413   C256    1.436   1_655 S
C414   N437    1.363   .     A
C414   H427    1.080   .     S
C415   N437    1.374   .     A
C415   O467    1.395   .     S
C416   H428    1.078   .     S
C416   N438    1.361   .     A
C416   C257    1.435   1_655 S
C417   O443    1.297   .     A
C417   O444    1.293   .     A
C418   O445    1.299   .     A
C418   O446    1.294   .     A
C418   C420    1.473   .     S
C419   C1111   1.393   1_554 S
C419   H1141   1.080   1_554 S
C421   C422    1.390   .     A
C421   H432    1.083   .     S
C422   C1134   1.388   .     S
C422   H1145   1.078   .     S
C423   H433    1.073   .     S
C423   C1133   1.388   1_554 S
C423   C1108   1.412   1_554 S
Cu424  N437    2.013   .     S
Cu424  O445    1.954   .     S
Cu424  O443    1.967   .     S
Cu424  Cu425   2.679   .     S
Cu424  O439    1.967   .     S
Cu424  O441    1.963   .     S
Cu425  O446    1.963   .     S
Cu425  O440    1.967   .     S
Cu425  O442    1.954   .     S
Cu425  O444    1.967   .     S
Cu425  N438    2.013   .     S
H430   C1130   1.080   .     S
H434   C1133   1.078   1_554 S
O447   H448    0.991   .     S
O449   H450    0.992   .     S
O451   C452    1.414   .     S
C452   H454    1.112   .     S
C452   C455    1.521   .     S
C452   H453    1.117   .     S
C455   H458    1.110   .     S
H456   C297    1.109   1_655 S
H457   C297    1.110   1_655 S
O459   C460    1.411   .     S
C460   H462    1.113   .     S
C460   C463    1.521   .     S
C460   H461    1.112   .     S
C463   H464    1.111   .     S
C463   H466    1.111   .     S
C463   H465    1.110   .     S
O467   C468    1.415   .     S
C468   H469    1.110   .     S
C468   H470    1.112   .     S
C468   C471    1.526   .     S
C471   H474    1.110   .     S
C471   H473    1.110   .     S
C471   H472    1.108   .     S
C475   O518    1.290   .     A
C475   C491    1.448   .     S
C475   O519    1.292   .     A
C476   C477    1.419   .     A
C476   C1189   1.425   .     S
C476   C1213   1.412   .     S
C477   C481    1.414   .     A
C477   C484    1.428   .     A
C478   C482    1.403   .     A
C478   C1187   1.425   1_554 S
C478   C1190   1.415   1_554 S
C479   C480    1.387   .     A
C479   C1189   1.415   .     S
C479   C1209   1.393   .     S
C480   H508    1.085   .     S
C480   C481    1.380   .     A
C481   H514    1.077   .     S
C482   H510    1.075   .     S
C482   C499    1.403   .     A
C483   C499    1.415   .     A
C483   O526    1.374   .     S
C483   C498    1.390   .     A
C484   C500    1.402   .     A
C484   C486    1.482   .     S
C485   C491    1.395   .     A
C485   H515    1.084   .     S
C485   C13     1.382   1_565 S
C486   O521    1.289   .     A
C486   O520    1.309   .     A
C487   C488    1.419   .     A
C487   O528    1.375   .     S
C488   C496    1.465   .     S
C488   C489    1.414   .     A
C489   O530    1.384   .     S
C490   H505    1.084   .     S
C490   C491    1.397   .     A
C490   C15     1.389   1_565 S
C492   O538    1.395   .     S
C492   N517    1.373   .     A
C492   C572    1.436   .     S
C493   N516    1.363   .     A
C493   H506    1.080   .     S
C493   C650    1.436   1_455 S
C494   N516    1.374   .     A
C494   O546    1.395   .     S
C494   C653    1.435   1_455 S
C495   H507    1.078   .     S
C495   N517    1.361   .     A
C495   C573    1.435   .     S
C496   O522    1.297   .     A
C496   O523    1.293   .     A
C497   O524    1.299   .     A
C497   O525    1.294   .     A
C497   C499    1.473   .     S
C498   C1190   1.393   1_554 S
C498   H1220   1.080   1_554 S
C500   C501    1.390   .     A
C500   H511    1.083   .     S
C501   C1213   1.388   .     S
C501   H1224   1.078   .     S
C502   H512    1.073   .     S
C502   C1212   1.388   1_554 S
C502   C1187   1.412   1_554 S
Cu503  N516    2.013   .     S
Cu503  O524    1.954   .     S
Cu503  O522    1.967   .     S
Cu503  Cu504   2.679   .     S
Cu503  O518    1.967   .     S
Cu503  O520    1.963   .     S
Cu504  O525    1.963   .     S
Cu504  O519    1.967   .     S
Cu504  O521    1.954   .     S
Cu504  O523    1.967   .     S
Cu504  N517    2.013   .     S
H509   C1209   1.080   .     S
H513   C1212   1.078   1_554 S
O526   H527    0.991   .     S
O528   H529    0.992   .     S
O530   C531    1.414   .     S
C531   H533    1.112   .     S
C531   C534    1.521   .     S
C531   H532    1.117   .     S
C534   H537    1.110   .     S
C534   H693    1.109   1_455 S
C534   H694    1.110   1_455 S
H535   C613    1.109   .     S
H536   C613    1.110   .     S
O538   C539    1.411   .     S
C539   H541    1.113   .     S
C539   C542    1.521   .     S
C539   H540    1.112   .     S
C542   H543    1.111   .     S
C542   H545    1.111   .     S
C542   H544    1.110   .     S
O546   C547    1.415   .     S
C547   H548    1.110   .     S
C547   H549    1.112   .     S
C547   C550    1.526   .     S
C550   H553    1.110   .     S
C550   H552    1.110   .     S
C550   H551    1.108   .     S
C554   O597    1.290   .     A
C554   C570    1.448   .     S
C554   O598    1.292   .     A
C555   C556    1.419   .     A
C555   C1268   1.425   .     S
C555   C1292   1.412   .     S
C556   C560    1.414   .     A
C556   C563    1.428   .     A
C557   C561    1.403   .     A
C557   C1266   1.425   1_554 S
C557   C1269   1.415   1_554 S
C558   C559    1.387   .     A
C558   C1268   1.415   .     S
C558   C1288   1.393   .     S
C559   H587    1.085   .     S
C559   C560    1.380   .     A
C560   H593    1.077   .     S
C561   H589    1.075   .     S
C561   C578    1.403   .     A
C562   C578    1.415   .     A
C562   O605    1.374   .     S
C562   C577    1.390   .     A
C563   C579    1.402   .     A
C563   C565    1.482   .     S
C564   C570    1.395   .     A
C564   H594    1.084   .     S
C564   C92     1.382   1_565 S
C565   O600    1.289   .     A
C565   O599    1.309   .     A
C566   C567    1.419   .     A
C566   O607    1.375   .     S
C567   C575    1.465   .     S
C567   C568    1.414   .     A
C568   O609    1.384   .     S
C569   H584    1.084   .     S
C569   C570    1.397   .     A
C569   C94     1.389   1_565 S
C571   O617    1.395   .     S
C571   N596    1.373   .     A
C571   C651    1.436   .     S
C572   N595    1.363   .     A
C572   H585    1.080   .     S
C573   N595    1.374   .     A
C573   O625    1.395   .     S
C574   H586    1.078   .     S
C574   N596    1.361   .     A
C574   C652    1.435   .     S
C575   O601    1.297   .     A
C575   O602    1.293   .     A
C576   O603    1.299   .     A
C576   O604    1.294   .     A
C576   C578    1.473   .     S
C577   C1269   1.393   1_554 S
C577   H1299   1.080   1_554 S
C579   C580    1.390   .     A
C579   H590    1.083   .     S
C580   C1292   1.388   .     S
C580   H1303   1.078   .     S
C581   H591    1.073   .     S
C581   C1291   1.388   1_554 S
C581   C1266   1.412   1_554 S
Cu582  N595    2.013   .     S
Cu582  O603    1.954   .     S
Cu582  O601    1.967   .     S
Cu582  Cu583   2.679   .     S
Cu582  O597    1.967   .     S
Cu582  O599    1.963   .     S
Cu583  O604    1.963   .     S
Cu583  O598    1.967   .     S
Cu583  O600    1.954   .     S
Cu583  O602    1.967   .     S
Cu583  N596    2.013   .     S
H588   C1288   1.080   .     S
H592   C1291   1.078   1_554 S
O605   H606    0.991   .     S
O607   H608    0.992   .     S
O609   C610    1.414   .     S
C610   H612    1.112   .     S
C610   C613    1.521   .     S
C610   H611    1.117   .     S
C613   H616    1.110   .     S
H614   C692    1.109   .     S
H615   C692    1.110   .     S
O617   C618    1.411   .     S
C618   H620    1.113   .     S
C618   C621    1.521   .     S
C618   H619    1.112   .     S
C621   H622    1.111   .     S
C621   H624    1.111   .     S
C621   H623    1.110   .     S
O625   C626    1.415   .     S
C626   H627    1.110   .     S
C626   H628    1.112   .     S
C626   C629    1.526   .     S
C629   H632    1.110   .     S
C629   H631    1.110   .     S
C629   H630    1.108   .     S
C633   O676    1.290   .     A
C633   C649    1.448   .     S
C633   O677    1.292   .     A
C634   C635    1.419   .     A
C634   C1347   1.425   .     S
C634   C1371   1.412   .     S
C635   C639    1.414   .     A
C635   C642    1.428   .     A
C636   C640    1.403   .     A
C636   C1345   1.425   1_554 S
C636   C1348   1.415   1_554 S
C637   C638    1.387   .     A
C637   C1347   1.415   .     S
C637   C1367   1.393   .     S
C638   H666    1.085   .     S
C638   C639    1.380   .     A
C639   H672    1.077   .     S
C640   H668    1.075   .     S
C640   C657    1.403   .     A
C641   C657    1.415   .     A
C641   O684    1.374   .     S
C641   C656    1.390   .     A
C642   C658    1.402   .     A
C642   C644    1.482   .     S
C643   C649    1.395   .     A
C643   H673    1.084   .     S
C643   C171    1.382   1_565 S
C644   O679    1.289   .     A
C644   O678    1.309   .     A
C645   C646    1.419   .     A
C645   O686    1.375   .     S
C646   C654    1.465   .     S
C646   C647    1.414   .     A
C647   O688    1.384   .     S
C648   H663    1.084   .     S
C648   C649    1.397   .     A
C648   C173    1.389   1_565 S
C650   O696    1.395   .     S
C650   N675    1.373   .     A
C650   C493    1.436   1_655 S
C651   N674    1.363   .     A
C651   H664    1.080   .     S
C652   N674    1.374   .     A
C652   O704    1.395   .     S
C653   H665    1.078   .     S
C653   N675    1.361   .     A
C653   C494    1.435   1_655 S
C654   O680    1.297   .     A
C654   O681    1.293   .     A
C655   O682    1.299   .     A
C655   O683    1.294   .     A
C655   C657    1.473   .     S
C656   C1348   1.393   1_554 S
C656   H1378   1.080   1_554 S
C658   C659    1.390   .     A
C658   H669    1.083   .     S
C659   C1371   1.388   .     S
C659   H1382   1.078   .     S
C660   H670    1.073   .     S
C660   C1370   1.388   1_554 S
C660   C1345   1.412   1_554 S
Cu661  N674    2.013   .     S
Cu661  O682    1.954   .     S
Cu661  O680    1.967   .     S
Cu661  Cu662   2.679   .     S
Cu661  O676    1.967   .     S
Cu661  O678    1.963   .     S
Cu662  O683    1.963   .     S
Cu662  O677    1.967   .     S
Cu662  O679    1.954   .     S
Cu662  O681    1.967   .     S
Cu662  N675    2.013   .     S
H667   C1367   1.080   .     S
H671   C1370   1.078   1_554 S
O684   H685    0.991   .     S
O686   H687    0.992   .     S
O688   C689    1.414   .     S
C689   H691    1.112   .     S
C689   C692    1.521   .     S
C689   H690    1.117   .     S
C692   H695    1.110   .     S
H693   C534    1.109   1_655 S
H694   C534    1.110   1_655 S
O696   C697    1.411   .     S
C697   H699    1.113   .     S
C697   C700    1.521   .     S
C697   H698    1.112   .     S
C700   H701    1.111   .     S
C700   H703    1.111   .     S
C700   H702    1.110   .     S
O704   C705    1.415   .     S
C705   H706    1.110   .     S
C705   H707    1.112   .     S
C705   C708    1.526   .     S
C708   H711    1.110   .     S
C708   H710    1.110   .     S
C708   H709    1.108   .     S
C712   O755    1.290   .     A
C712   C728    1.448   .     S
C712   O756    1.292   .     A
C713   C714    1.419   .     A
C713   C4      1.425   1_556 S
C713   C28     1.412   1_556 S
C714   C718    1.414   .     A
C714   C721    1.428   .     A
C715   C719    1.403   .     A
C716   C717    1.387   .     A
C716   C4      1.415   1_556 S
C716   C24     1.393   1_556 S
C717   H745    1.085   .     S
C717   C718    1.380   .     A
C718   H751    1.077   .     S
C719   H747    1.075   .     S
C719   C736    1.403   .     A
C720   C736    1.415   .     A
C720   O763    1.374   .     S
C720   C735    1.390   .     A
C721   C737    1.402   .     A
C721   C723    1.482   .     S
C722   C728    1.395   .     A
C722   H752    1.084   .     S
C722   C961    1.382   .     S
C723   O758    1.289   .     A
C723   O757    1.309   .     A
C724   C725    1.419   .     A
C724   O765    1.375   .     S
C724   C1196   1.382   1_545 S
C725   C733    1.465   .     S
C725   C726    1.414   .     A
C726   O767    1.384   .     S
C726   C1201   1.389   1_545 S
C727   H742    1.084   .     S
C727   C728    1.397   .     A
C727   C963    1.389   .     S
C729   O775    1.395   .     S
C729   N754    1.373   .     A
C729   C809    1.436   .     S
C730   N753    1.363   .     A
C730   H743    1.080   .     S
C730   C887    1.436   1_455 S
C731   N753    1.374   .     A
C731   O783    1.395   .     S
C731   C890    1.435   1_455 S
C732   H744    1.078   .     S
C732   N754    1.361   .     A
C732   C810    1.435   .     S
C733   O759    1.297   .     A
C733   O760    1.293   .     A
C734   O761    1.299   .     A
C734   O762    1.294   .     A
C734   C736    1.473   .     S
C737   C738    1.390   .     A
C737   H748    1.083   .     S
C738   C28     1.388   1_556 S
C738   H39     1.078   1_556 S
C739   H749    1.073   .     S
Cu740  N753    2.013   .     S
Cu740  O761    1.954   .     S
Cu740  O759    1.967   .     S
Cu740  Cu741   2.679   .     S
Cu740  O755    1.967   .     S
Cu740  O757    1.963   .     S
Cu741  O762    1.963   .     S
Cu741  O756    1.967   .     S
Cu741  O758    1.954   .     S
Cu741  O760    1.967   .     S
Cu741  N754    2.013   .     S
H746   C24     1.080   1_556 S
O763   H764    0.991   .     S
O765   H766    0.992   .     S
O767   C768    1.414   .     S
C768   H770    1.112   .     S
C768   C771    1.521   .     S
C768   H769    1.117   .     S
C771   H774    1.110   .     S
C771   H930    1.109   1_455 S
C771   H931    1.110   1_455 S
H772   C850    1.109   .     S
H773   C850    1.110   .     S
O775   C776    1.411   .     S
C776   H778    1.113   .     S
C776   C779    1.521   .     S
C776   H777    1.112   .     S
C779   H780    1.111   .     S
C779   H782    1.111   .     S
C779   H781    1.110   .     S
O783   C784    1.415   .     S
C784   H785    1.110   .     S
C784   H786    1.112   .     S
C784   C787    1.526   .     S
C787   H790    1.110   .     S
C787   H789    1.110   .     S
C787   H788    1.108   .     S
C791   O834    1.290   .     A
C791   C807    1.448   .     S
C791   O835    1.292   .     A
C792   C793    1.419   .     A
C792   C83     1.425   1_556 S
C792   C107    1.412   1_556 S
C793   C797    1.414   .     A
C793   C800    1.428   .     A
C794   C798    1.403   .     A
C795   C796    1.387   .     A
C795   C83     1.415   1_556 S
C795   C103    1.393   1_556 S
C796   H824    1.085   .     S
C796   C797    1.380   .     A
C797   H830    1.077   .     S
C798   H826    1.075   .     S
C798   C815    1.403   .     A
C799   C815    1.415   .     A
C799   O842    1.374   .     S
C799   C814    1.390   .     A
C800   C816    1.402   .     A
C800   C802    1.482   .     S
C801   C807    1.395   .     A
C801   H831    1.084   .     S
C801   C1040   1.382   .     S
C802   O837    1.289   .     A
C802   O836    1.309   .     A
C803   C804    1.419   .     A
C803   O844    1.375   .     S
C803   C1275   1.382   1_545 S
C804   C812    1.465   .     S
C804   C805    1.414   .     A
C805   O846    1.384   .     S
C805   C1280   1.389   1_545 S
C806   H821    1.084   .     S
C806   C807    1.397   .     A
C806   C1042   1.389   .     S
C808   O854    1.395   .     S
C808   N833    1.373   .     A
C808   C888    1.436   .     S
C809   N832    1.363   .     A
C809   H822    1.080   .     S
C810   N832    1.374   .     A
C810   O862    1.395   .     S
C811   H823    1.078   .     S
C811   N833    1.361   .     A
C811   C889    1.435   .     S
C812   O838    1.297   .     A
C812   O839    1.293   .     A
C813   O840    1.299   .     A
C813   O841    1.294   .     A
C813   C815    1.473   .     S
C816   C817    1.390   .     A
C816   H827    1.083   .     S
C817   C107    1.388   1_556 S
C817   H118    1.078   1_556 S
C818   H828    1.073   .     S
Cu819  N832    2.013   .     S
Cu819  O840    1.954   .     S
Cu819  O838    1.967   .     S
Cu819  Cu820   2.679   .     S
Cu819  O834    1.967   .     S
Cu819  O836    1.963   .     S
Cu820  O841    1.963   .     S
Cu820  O835    1.967   .     S
Cu820  O837    1.954   .     S
Cu820  O839    1.967   .     S
Cu820  N833    2.013   .     S
H825   C103    1.080   1_556 S
O842   H843    0.991   .     S
O844   H845    0.992   .     S
O846   C847    1.414   .     S
C847   H849    1.112   .     S
C847   C850    1.521   .     S
C847   H848    1.117   .     S
C850   H853    1.110   .     S
H851   C929    1.109   .     S
H852   C929    1.110   .     S
O854   C855    1.411   .     S
C855   H857    1.113   .     S
C855   C858    1.521   .     S
C855   H856    1.112   .     S
C858   H859    1.111   .     S
C858   H861    1.111   .     S
C858   H860    1.110   .     S
O862   C863    1.415   .     S
C863   H864    1.110   .     S
C863   H865    1.112   .     S
C863   C866    1.526   .     S
C866   H869    1.110   .     S
C866   H868    1.110   .     S
C866   H867    1.108   .     S
C870   O913    1.290   .     A
C870   C886    1.448   .     S
C870   O914    1.292   .     A
C871   C872    1.419   .     A
C871   C162    1.425   1_556 S
C871   C186    1.412   1_556 S
C872   C876    1.414   .     A
C872   C879    1.428   .     A
C873   C877    1.403   .     A
C874   C875    1.387   .     A
C874   C162    1.415   1_556 S
C874   C182    1.393   1_556 S
C875   H903    1.085   .     S
C875   C876    1.380   .     A
C876   H909    1.077   .     S
C877   H905    1.075   .     S
C877   C894    1.403   .     A
C878   C894    1.415   .     A
C878   O921    1.374   .     S
C878   C893    1.390   .     A
C879   C895    1.402   .     A
C879   C881    1.482   .     S
C880   C886    1.395   .     A
C880   H910    1.084   .     S
C880   C1119   1.382   .     S
C881   O916    1.289   .     A
C881   O915    1.309   .     A
C882   C883    1.419   .     A
C882   O923    1.375   .     S
C882   C1354   1.382   1_545 S
C883   C891    1.465   .     S
C883   C884    1.414   .     A
C884   O925    1.384   .     S
C884   C1359   1.389   1_545 S
C885   H900    1.084   .     S
C885   C886    1.397   .     A
C885   C1121   1.389   .     S
C887   O933    1.395   .     S
C887   N912    1.373   .     A
C887   C730    1.436   1_655 S
C888   N911    1.363   .     A
C888   H901    1.080   .     S
C889   N911    1.374   .     A
C889   O941    1.395   .     S
C890   H902    1.078   .     S
C890   N912    1.361   .     A
C890   C731    1.435   1_655 S
C891   O917    1.297   .     A
C891   O918    1.293   .     A
C892   O919    1.299   .     A
C892   O920    1.294   .     A
C892   C894    1.473   .     S
C895   C896    1.390   .     A
C895   H906    1.083   .     S
C896   C186    1.388   1_556 S
C896   H197    1.078   1_556 S
C897   H907    1.073   .     S
Cu898  N911    2.013   .     S
Cu898  O919    1.954   .     S
Cu898  O917    1.967   .     S
Cu898  Cu899   2.679   .     S
Cu898  O913    1.967   .     S
Cu898  O915    1.963   .     S
Cu899  O920    1.963   .     S
Cu899  O914    1.967   .     S
Cu899  O916    1.954   .     S
Cu899  O918    1.967   .     S
Cu899  N912    2.013   .     S
H904   C182    1.080   1_556 S
O921   H922    0.991   .     S
O923   H924    0.992   .     S
O925   C926    1.414   .     S
C926   H928    1.112   .     S
C926   C929    1.521   .     S
C926   H927    1.117   .     S
C929   H932    1.110   .     S
H930   C771    1.109   1_655 S
H931   C771    1.110   1_655 S
O933   C934    1.411   .     S
C934   H936    1.113   .     S
C934   C937    1.521   .     S
C934   H935    1.112   .     S
C937   H938    1.111   .     S
C937   H940    1.111   .     S
C937   H939    1.110   .     S
O941   C942    1.415   .     S
C942   H943    1.110   .     S
C942   H944    1.112   .     S
C942   C945    1.526   .     S
C945   H948    1.110   .     S
C945   H947    1.110   .     S
C945   H946    1.108   .     S
C949   O992    1.290   .     A
C949   C965    1.448   .     S
C949   O993    1.292   .     A
C950   C951    1.419   .     A
C950   C241    1.425   1_556 S
C950   C265    1.412   1_556 S
C951   C955    1.414   .     A
C951   C958    1.428   .     A
C952   C956    1.403   .     A
C953   C954    1.387   .     A
C953   C241    1.415   1_556 S
C953   C261    1.393   1_556 S
C954   H982    1.085   .     S
C954   C955    1.380   .     A
C955   H988    1.077   .     S
C956   H984    1.075   .     S
C956   C973    1.403   .     A
C957   C973    1.415   .     A
C957   O1000   1.374   .     S
C957   C972    1.390   .     A
C958   C974    1.402   .     A
C958   C960    1.482   .     S
C959   C965    1.395   .     A
C959   H989    1.084   .     S
C959   C1198   1.382   .     S
C960   O995    1.289   .     A
C960   O994    1.309   .     A
C961   C962    1.419   .     A
C961   O1002   1.375   .     S
C962   C970    1.465   .     S
C962   C963    1.414   .     A
C963   O1004   1.384   .     S
C964   H979    1.084   .     S
C964   C965    1.397   .     A
C964   C1200   1.389   .     S
C966   O1012   1.395   .     S
C966   N991    1.373   .     A
C966   C1046   1.436   .     S
C967   N990    1.363   .     A
C967   H980    1.080   .     S
C967   C1124   1.436   1_455 S
C968   N990    1.374   .     A
C968   O1020   1.395   .     S
C968   C1127   1.435   1_455 S
C969   H981    1.078   .     S
C969   N991    1.361   .     A
C969   C1047   1.435   .     S
C970   O996    1.297   .     A
C970   O997    1.293   .     A
C971   O998    1.299   .     A
C971   O999    1.294   .     A
C971   C973    1.473   .     S
C974   C975    1.390   .     A
C974   H985    1.083   .     S
C975   C265    1.388   1_556 S
C975   H276    1.078   1_556 S
C976   H986    1.073   .     S
Cu977  N990    2.013   .     S
Cu977  O998    1.954   .     S
Cu977  O996    1.967   .     S
Cu977  Cu978   2.679   .     S
Cu977  O992    1.967   .     S
Cu977  O994    1.963   .     S
Cu978  O999    1.963   .     S
Cu978  O993    1.967   .     S
Cu978  O995    1.954   .     S
Cu978  O997    1.967   .     S
Cu978  N991    2.013   .     S
H983   C261    1.080   1_556 S
O1000  H1001   0.991   .     S
O1002  H1003   0.992   .     S
O1004  C1005   1.414   .     S
C1005  H1007   1.112   .     S
C1005  C1008   1.521   .     S
C1005  H1006   1.117   .     S
C1008  H1011   1.110   .     S
C1008  H1167   1.109   1_455 S
C1008  H1168   1.110   1_455 S
H1009  C1087   1.109   .     S
H1010  C1087   1.110   .     S
O1012  C1013   1.411   .     S
C1013  H1015   1.113   .     S
C1013  C1016   1.521   .     S
C1013  H1014   1.112   .     S
C1016  H1017   1.111   .     S
C1016  H1019   1.111   .     S
C1016  H1018   1.110   .     S
O1020  C1021   1.415   .     S
C1021  H1022   1.110   .     S
C1021  H1023   1.112   .     S
C1021  C1024   1.526   .     S
C1024  H1027   1.110   .     S
C1024  H1026   1.110   .     S
C1024  H1025   1.108   .     S
C1028  O1071   1.290   .     A
C1028  C1044   1.448   .     S
C1028  O1072   1.292   .     A
C1029  C1030   1.419   .     A
C1029  C320    1.425   1_556 S
C1029  C344    1.412   1_556 S
C1030  C1034   1.414   .     A
C1030  C1037   1.428   .     A
C1031  C1035   1.403   .     A
C1032  C1033   1.387   .     A
C1032  C320    1.415   1_556 S
C1032  C340    1.393   1_556 S
C1033  H1061   1.085   .     S
C1033  C1034   1.380   .     A
C1034  H1067   1.077   .     S
C1035  H1063   1.075   .     S
C1035  C1052   1.403   .     A
C1036  C1052   1.415   .     A
C1036  O1079   1.374   .     S
C1036  C1051   1.390   .     A
C1037  C1053   1.402   .     A
C1037  C1039   1.482   .     S
C1038  C1044   1.395   .     A
C1038  H1068   1.084   .     S
C1038  C1277   1.382   .     S
C1039  O1074   1.289   .     A
C1039  O1073   1.309   .     A
C1040  C1041   1.419   .     A
C1040  O1081   1.375   .     S
C1041  C1049   1.465   .     S
C1041  C1042   1.414   .     A
C1042  O1083   1.384   .     S
C1043  H1058   1.084   .     S
C1043  C1044   1.397   .     A
C1043  C1279   1.389   .     S
C1045  O1091   1.395   .     S
C1045  N1070   1.373   .     A
C1045  C1125   1.436   .     S
C1046  N1069   1.363   .     A
C1046  H1059   1.080   .     S
C1047  N1069   1.374   .     A
C1047  O1099   1.395   .     S
C1048  H1060   1.078   .     S
C1048  N1070   1.361   .     A
C1048  C1126   1.435   .     S
C1049  O1075   1.297   .     A
C1049  O1076   1.293   .     A
C1050  O1077   1.299   .     A
C1050  O1078   1.294   .     A
C1050  C1052   1.473   .     S
C1053  C1054   1.390   .     A
C1053  H1064   1.083   .     S
C1054  C344    1.388   1_556 S
C1054  H355    1.078   1_556 S
C1055  H1065   1.073   .     S
Cu1056 N1069   2.013   .     S
Cu1056 O1077   1.954   .     S
Cu1056 O1075   1.967   .     S
Cu1056 Cu1057  2.679   .     S
Cu1056 O1071   1.967   .     S
Cu1056 O1073   1.963   .     S
Cu1057 O1078   1.963   .     S
Cu1057 O1072   1.967   .     S
Cu1057 O1074   1.954   .     S
Cu1057 O1076   1.967   .     S
Cu1057 N1070   2.013   .     S
H1062  C340    1.080   1_556 S
O1079  H1080   0.991   .     S
O1081  H1082   0.992   .     S
O1083  C1084   1.414   .     S
C1084  H1086   1.112   .     S
C1084  C1087   1.521   .     S
C1084  H1085   1.117   .     S
C1087  H1090   1.110   .     S
H1088  C1166   1.109   .     S
H1089  C1166   1.110   .     S
O1091  C1092   1.411   .     S
C1092  H1094   1.113   .     S
C1092  C1095   1.521   .     S
C1092  H1093   1.112   .     S
C1095  H1096   1.111   .     S
C1095  H1098   1.111   .     S
C1095  H1097   1.110   .     S
O1099  C1100   1.415   .     S
C1100  H1101   1.110   .     S
C1100  H1102   1.112   .     S
C1100  C1103   1.526   .     S
C1103  H1106   1.110   .     S
C1103  H1105   1.110   .     S
C1103  H1104   1.108   .     S
C1107  O1150   1.290   .     A
C1107  C1123   1.448   .     S
C1107  O1151   1.292   .     A
C1108  C1109   1.419   .     A
C1108  C399    1.425   1_556 S
C1108  C423    1.412   1_556 S
C1109  C1113   1.414   .     A
C1109  C1116   1.428   .     A
C1110  C1114   1.403   .     A
C1111  C1112   1.387   .     A
C1111  C399    1.415   1_556 S
C1111  C419    1.393   1_556 S
C1112  H1140   1.085   .     S
C1112  C1113   1.380   .     A
C1113  H1146   1.077   .     S
C1114  H1142   1.075   .     S
C1114  C1131   1.403   .     A
C1115  C1131   1.415   .     A
C1115  O1158   1.374   .     S
C1115  C1130   1.390   .     A
C1116  C1132   1.402   .     A
C1116  C1118   1.482   .     S
C1117  C1123   1.395   .     A
C1117  H1147   1.084   .     S
C1117  C1356   1.382   .     S
C1118  O1153   1.289   .     A
C1118  O1152   1.309   .     A
C1119  C1120   1.419   .     A
C1119  O1160   1.375   .     S
C1120  C1128   1.465   .     S
C1120  C1121   1.414   .     A
C1121  O1162   1.384   .     S
C1122  H1137   1.084   .     S
C1122  C1123   1.397   .     A
C1122  C1358   1.389   .     S
C1124  O1170   1.395   .     S
C1124  N1149   1.373   .     A
C1124  C967    1.436   1_655 S
C1125  N1148   1.363   .     A
C1125  H1138   1.080   .     S
C1126  N1148   1.374   .     A
C1126  O1178   1.395   .     S
C1127  H1139   1.078   .     S
C1127  N1149   1.361   .     A
C1127  C968    1.435   1_655 S
C1128  O1154   1.297   .     A
C1128  O1155   1.293   .     A
C1129  O1156   1.299   .     A
C1129  O1157   1.294   .     A
C1129  C1131   1.473   .     S
C1132  C1133   1.390   .     A
C1132  H1143   1.083   .     S
C1133  C423    1.388   1_556 S
C1133  H434    1.078   1_556 S
C1134  H1144   1.073   .     S
Cu1135 N1148   2.013   .     S
Cu1135 O1156   1.954   .     S
Cu1135 O1154   1.967   .     S
Cu1135 Cu1136  2.679   .     S
Cu1135 O1150   1.967   .     S
Cu1135 O1152   1.963   .     S
Cu1136 O1157   1.963   .     S
Cu1136 O1151   1.967   .     S
Cu1136 O1153   1.954   .     S
Cu1136 O1155   1.967   .     S
Cu1136 N1149   2.013   .     S
H1141  C419    1.080   1_556 S
O1158  H1159   0.991   .     S
O1160  H1161   0.992   .     S
O1162  C1163   1.414   .     S
C1163  H1165   1.112   .     S
C1163  C1166   1.521   .     S
C1163  H1164   1.117   .     S
C1166  H1169   1.110   .     S
H1167  C1008   1.109   1_655 S
H1168  C1008   1.110   1_655 S
O1170  C1171   1.411   .     S
C1171  H1173   1.113   .     S
C1171  C1174   1.521   .     S
C1171  H1172   1.112   .     S
C1174  H1175   1.111   .     S
C1174  H1177   1.111   .     S
C1174  H1176   1.110   .     S
O1178  C1179   1.415   .     S
C1179  H1180   1.110   .     S
C1179  H1181   1.112   .     S
C1179  C1182   1.526   .     S
C1182  H1185   1.110   .     S
C1182  H1184   1.110   .     S
C1182  H1183   1.108   .     S
C1186  O1229   1.290   .     A
C1186  C1202   1.448   .     S
C1186  O1230   1.292   .     A
C1187  C1188   1.419   .     A
C1187  C478    1.425   1_556 S
C1187  C502    1.412   1_556 S
C1188  C1192   1.414   .     A
C1188  C1195   1.428   .     A
C1189  C1193   1.403   .     A
C1190  C1191   1.387   .     A
C1190  C478    1.415   1_556 S
C1190  C498    1.393   1_556 S
C1191  H1219   1.085   .     S
C1191  C1192   1.380   .     A
C1192  H1225   1.077   .     S
C1193  H1221   1.075   .     S
C1193  C1210   1.403   .     A
C1194  C1210   1.415   .     A
C1194  O1237   1.374   .     S
C1194  C1209   1.390   .     A
C1195  C1211   1.402   .     A
C1195  C1197   1.482   .     S
C1196  C1202   1.395   .     A
C1196  H1226   1.084   .     S
C1196  C724    1.382   1_565 S
C1197  O1232   1.289   .     A
C1197  O1231   1.309   .     A
C1198  C1199   1.419   .     A
C1198  O1239   1.375   .     S
C1199  C1207   1.465   .     S
C1199  C1200   1.414   .     A
C1200  O1241   1.384   .     S
C1201  H1216   1.084   .     S
C1201  C1202   1.397   .     A
C1201  C726    1.389   1_565 S
C1203  O1249   1.395   .     S
C1203  N1228   1.373   .     A
C1203  C1283   1.436   .     S
C1204  N1227   1.363   .     A
C1204  H1217   1.080   .     S
C1204  C1361   1.436   1_455 S
C1205  N1227   1.374   .     A
C1205  O1257   1.395   .     S
C1205  C1364   1.435   1_455 S
C1206  H1218   1.078   .     S
C1206  N1228   1.361   .     A
C1206  C1284   1.435   .     S
C1207  O1233   1.297   .     A
C1207  O1234   1.293   .     A
C1208  O1235   1.299   .     A
C1208  O1236   1.294   .     A
C1208  C1210   1.473   .     S
C1211  C1212   1.390   .     A
C1211  H1222   1.083   .     S
C1212  C502    1.388   1_556 S
C1212  H513    1.078   1_556 S
C1213  H1223   1.073   .     S
Cu1214 N1227   2.013   .     S
Cu1214 O1235   1.954   .     S
Cu1214 O1233   1.967   .     S
Cu1214 Cu1215  2.679   .     S
Cu1214 O1229   1.967   .     S
Cu1214 O1231   1.963   .     S
Cu1215 O1236   1.963   .     S
Cu1215 O1230   1.967   .     S
Cu1215 O1232   1.954   .     S
Cu1215 O1234   1.967   .     S
Cu1215 N1228   2.013   .     S
H1220  C498    1.080   1_556 S
O1237  H1238   0.991   .     S
O1239  H1240   0.992   .     S
O1241  C1242   1.414   .     S
C1242  H1244   1.112   .     S
C1242  C1245   1.521   .     S
C1242  H1243   1.117   .     S
C1245  H1248   1.110   .     S
C1245  H1404   1.109   1_455 S
C1245  H1405   1.110   1_455 S
H1246  C1324   1.109   .     S
H1247  C1324   1.110   .     S
O1249  C1250   1.411   .     S
C1250  H1252   1.113   .     S
C1250  C1253   1.521   .     S
C1250  H1251   1.112   .     S
C1253  H1254   1.111   .     S
C1253  H1256   1.111   .     S
C1253  H1255   1.110   .     S
O1257  C1258   1.415   .     S
C1258  H1259   1.110   .     S
C1258  H1260   1.112   .     S
C1258  C1261   1.526   .     S
C1261  H1264   1.110   .     S
C1261  H1263   1.110   .     S
C1261  H1262   1.108   .     S
C1265  O1308   1.290   .     A
C1265  C1281   1.448   .     S
C1265  O1309   1.292   .     A
C1266  C1267   1.419   .     A
C1266  C557    1.425   1_556 S
C1266  C581    1.412   1_556 S
C1267  C1271   1.414   .     A
C1267  C1274   1.428   .     A
C1268  C1272   1.403   .     A
C1269  C1270   1.387   .     A
C1269  C557    1.415   1_556 S
C1269  C577    1.393   1_556 S
C1270  H1298   1.085   .     S
C1270  C1271   1.380   .     A
C1271  H1304   1.077   .     S
C1272  H1300   1.075   .     S
C1272  C1289   1.403   .     A
C1273  C1289   1.415   .     A
C1273  O1316   1.374   .     S
C1273  C1288   1.390   .     A
C1274  C1290   1.402   .     A
C1274  C1276   1.482   .     S
C1275  C1281   1.395   .     A
C1275  H1305   1.084   .     S
C1275  C803    1.382   1_565 S
C1276  O1311   1.289   .     A
C1276  O1310   1.309   .     A
C1277  C1278   1.419   .     A
C1277  O1318   1.375   .     S
C1278  C1286   1.465   .     S
C1278  C1279   1.414   .     A
C1279  O1320   1.384   .     S
C1280  H1295   1.084   .     S
C1280  C1281   1.397   .     A
C1280  C805    1.389   1_565 S
C1282  O1328   1.395   .     S
C1282  N1307   1.373   .     A
C1282  C1362   1.436   .     S
C1283  N1306   1.363   .     A
C1283  H1296   1.080   .     S
C1284  N1306   1.374   .     A
C1284  O1336   1.395   .     S
C1285  H1297   1.078   .     S
C1285  N1307   1.361   .     A
C1285  C1363   1.435   .     S
C1286  O1312   1.297   .     A
C1286  O1313   1.293   .     A
C1287  O1314   1.299   .     A
C1287  O1315   1.294   .     A
C1287  C1289   1.473   .     S
C1290  C1291   1.390   .     A
C1290  H1301   1.083   .     S
C1291  C581    1.388   1_556 S
C1291  H592    1.078   1_556 S
C1292  H1302   1.073   .     S
Cu1293 N1306   2.013   .     S
Cu1293 O1314   1.954   .     S
Cu1293 O1312   1.967   .     S
Cu1293 Cu1294  2.679   .     S
Cu1293 O1308   1.967   .     S
Cu1293 O1310   1.963   .     S
Cu1294 O1315   1.963   .     S
Cu1294 O1309   1.967   .     S
Cu1294 O1311   1.954   .     S
Cu1294 O1313   1.967   .     S
Cu1294 N1307   2.013   .     S
H1299  C577    1.080   1_556 S
O1316  H1317   0.991   .     S
O1318  H1319   0.992   .     S
O1320  C1321   1.414   .     S
C1321  H1323   1.112   .     S
C1321  C1324   1.521   .     S
C1321  H1322   1.117   .     S
C1324  H1327   1.110   .     S
H1325  C1403   1.109   .     S
H1326  C1403   1.110   .     S
O1328  C1329   1.411   .     S
C1329  H1331   1.113   .     S
C1329  C1332   1.521   .     S
C1329  H1330   1.112   .     S
C1332  H1333   1.111   .     S
C1332  H1335   1.111   .     S
C1332  H1334   1.110   .     S
O1336  C1337   1.415   .     S
C1337  H1338   1.110   .     S
C1337  H1339   1.112   .     S
C1337  C1340   1.526   .     S
C1340  H1343   1.110   .     S
C1340  H1342   1.110   .     S
C1340  H1341   1.108   .     S
C1344  O1387   1.290   .     A
C1344  C1360   1.448   .     S
C1344  O1388   1.292   .     A
C1345  C1346   1.419   .     A
C1345  C636    1.425   1_556 S
C1345  C660    1.412   1_556 S
C1346  C1350   1.414   .     A
C1346  C1353   1.428   .     A
C1347  C1351   1.403   .     A
C1348  C1349   1.387   .     A
C1348  C636    1.415   1_556 S
C1348  C656    1.393   1_556 S
C1349  H1377   1.085   .     S
C1349  C1350   1.380   .     A
C1350  H1383   1.077   .     S
C1351  H1379   1.075   .     S
C1351  C1368   1.403   .     A
C1352  C1368   1.415   .     A
C1352  O1395   1.374   .     S
C1352  C1367   1.390   .     A
C1353  C1369   1.402   .     A
C1353  C1355   1.482   .     S
C1354  C1360   1.395   .     A
C1354  H1384   1.084   .     S
C1354  C882    1.382   1_565 S
C1355  O1390   1.289   .     A
C1355  O1389   1.309   .     A
C1356  C1357   1.419   .     A
C1356  O1397   1.375   .     S
C1357  C1365   1.465   .     S
C1357  C1358   1.414   .     A
C1358  O1399   1.384   .     S
C1359  H1374   1.084   .     S
C1359  C1360   1.397   .     A
C1359  C884    1.389   1_565 S
C1361  O1407   1.395   .     S
C1361  N1386   1.373   .     A
C1361  C1204   1.436   1_655 S
C1362  N1385   1.363   .     A
C1362  H1375   1.080   .     S
C1363  N1385   1.374   .     A
C1363  O1415   1.395   .     S
C1364  H1376   1.078   .     S
C1364  N1386   1.361   .     A
C1364  C1205   1.435   1_655 S
C1365  O1391   1.297   .     A
C1365  O1392   1.293   .     A
C1366  O1393   1.299   .     A
C1366  O1394   1.294   .     A
C1366  C1368   1.473   .     S
C1369  C1370   1.390   .     A
C1369  H1380   1.083   .     S
C1370  C660    1.388   1_556 S
C1370  H671    1.078   1_556 S
C1371  H1381   1.073   .     S
Cu1372 N1385   2.013   .     S
Cu1372 O1393   1.954   .     S
Cu1372 O1391   1.967   .     S
Cu1372 Cu1373  2.679   .     S
Cu1372 O1387   1.967   .     S
Cu1372 O1389   1.963   .     S
Cu1373 O1394   1.963   .     S
Cu1373 O1388   1.967   .     S
Cu1373 O1390   1.954   .     S
Cu1373 O1392   1.967   .     S
Cu1373 N1386   2.013   .     S
H1378  C656    1.080   1_556 S
O1395  H1396   0.991   .     S
O1397  H1398   0.992   .     S
O1399  C1400   1.414   .     S
C1400  H1402   1.112   .     S
C1400  C1403   1.521   .     S
C1400  H1401   1.117   .     S
C1403  H1406   1.110   .     S
H1404  C1245   1.109   1_655 S
H1405  C1245   1.110   1_655 S
O1407  C1408   1.411   .     S
C1408  H1410   1.113   .     S
C1408  C1411   1.521   .     S
C1408  H1409   1.112   .     S
C1411  H1412   1.111   .     S
C1411  H1414   1.111   .     S
C1411  H1413   1.110   .     S
O1415  C1416   1.415   .     S
C1416  H1417   1.110   .     S
C1416  H1418   1.112   .     S
C1416  C1419   1.526   .     S
C1419  H1422   1.110   .     S
C1419  H1421   1.110   .     S
C1419  H1420   1.108   .     S
