data_str_m2_o1_o10_pcu_sym.82
_audit_creation_date              2020-01-03
_audit_creation_method            'Materials Studio'
_symmetry_space_group_name_H-M    'P1'
_symmetry_Int_Tables_number       1
_symmetry_cell_setting            triclinic
loop_
_symmetry_equiv_pos_as_xyz
  x,y,z
_cell_length_a                    26.1692
_cell_length_b                    32.4240
_cell_length_c                    28.7867
_cell_angle_alpha                 89.2049
_cell_angle_beta                  97.4412
_cell_angle_gamma                 91.4153
loop_
_atom_site_label
_atom_site_type_symbol
_atom_site_fract_x
_atom_site_fract_y
_atom_site_fract_z
_atom_site_U_iso_or_equiv
_atom_site_adp_type
_atom_site_occupancy
C1     C     0.16657   0.08744   0.16683   0.00000  Uiso   1.00
C2     C     0.18348   0.02111   0.20814   0.00000  Uiso   1.00
C3     C     0.16704   0.29054   0.16640   0.00000  Uiso   1.00
C4     C     0.16655   0.04279   0.16690   0.00000  Uiso   1.00
C5     C     0.14230   0.13594   0.02296   0.00000  Uiso   1.00
C6     C     0.19087   0.19747   0.31034   0.00000  Uiso   1.00
C7     C     0.14196   0.13566   0.30701   0.00000  Uiso   1.00
C8     C     0.19139   0.19769   0.02629   0.00000  Uiso   1.00
C9     C     0.11470   0.10036   0.28251   0.00000  Uiso   1.00
C10    C     0.21912   0.23292   0.05061   0.00000  Uiso   1.00
C11    C     0.16684   0.24589   0.16650   0.00000  Uiso   1.00
C12    C     0.06805   0.16659   0.15472   0.00000  Uiso   1.00
C13    C     0.26528   0.16688   0.17861   0.00000  Uiso   1.00
C14    C     0.01281   0.16624   0.14814   0.00000  Uiso   1.00
C15    C     0.32051   0.16748   0.18516   0.00000  Uiso   1.00
C16    C     0.15011   0.02156   0.12532   0.00000  Uiso   1.00
C17    C     0.18357   0.31176   0.20795   0.00000  Uiso   1.00
C18    C     0.15027   0.31221   0.12511   0.00000  Uiso   1.00
Cu19   Cu    0.16667   0.16667   0.21355   0.00000  Uiso   1.00
Cu20   Cu    0.16667   0.16666   0.11978   0.00000  Uiso   1.00
H21    H     0.13665   0.03790   0.09314   0.00000  Uiso   1.00
H22    H     0.22849   0.29479   0.05416   0.00000  Uiso   1.00
H23    H     0.19706   0.29542   0.24012   0.00000  Uiso   1.00
H24    H     0.13660   0.29620   0.09296   0.00000  Uiso   1.00
H25    H     0.19738   0.03711   0.24024   0.00000  Uiso   1.00
H26    H     0.12252   0.11155   0.04011   0.00000  Uiso   1.00
H27    H     0.21064   0.22185   0.29315   0.00000  Uiso   1.00
H28    H     0.32648   0.16477   0.11252   0.00000  Uiso   1.00
H29    H     0.00682   0.16908   0.22077   0.00000  Uiso   1.00
H30    H     0.05432   0.07938   0.23781   0.00000  Uiso   1.00
N31    N     0.16668   0.16668   0.28403   0.00000  Uiso   1.00
N32    N     0.16665   0.16666   0.04931   0.00000  Uiso   1.00
O33    O     0.16666   0.10655   0.20625   0.00000  Uiso   1.00
O34    O     0.06979   0.10620   0.25159   0.00000  Uiso   1.00
O35    O     0.25557   0.22739   0.08082   0.00000  Uiso   1.00
O36    O     0.20606   0.27301   0.03594   0.00000  Uiso   1.00
O37    O     0.16667   0.22678   0.12709   0.00000  Uiso   1.00
O38    O     0.16666   0.10654   0.12706   0.00000  Uiso   1.00
O39    O     0.16667   0.22679   0.20628   0.00000  Uiso   1.00
O40    O     0.09161   0.16667   0.19712   0.00000  Uiso   1.00
O41    O     0.24172   0.16666   0.13621   0.00000  Uiso   1.00
O42    O     0.09161   0.16666   0.11793   0.00000  Uiso   1.00
O43    O     0.24172   0.16667   0.21540   0.00000  Uiso   1.00
O44    O     0.12953   0.06545   0.29218   0.00000  Uiso   1.00
C45    C     0.49991   0.08744   0.16683   0.00000  Uiso   1.00
C46    C     0.51681   0.02111   0.20814   0.00000  Uiso   1.00
C47    C     0.50037   0.29054   0.16640   0.00000  Uiso   1.00
C48    C     0.49988   0.04279   0.16690   0.00000  Uiso   1.00
C49    C     0.47564   0.13594   0.02296   0.00000  Uiso   1.00
C50    C     0.52420   0.19747   0.31034   0.00000  Uiso   1.00
C51    C     0.47529   0.13566   0.30701   0.00000  Uiso   1.00
C52    C     0.52473   0.19769   0.02629   0.00000  Uiso   1.00
C53    C     0.44804   0.10036   0.28251   0.00000  Uiso   1.00
C54    C     0.55246   0.23292   0.05061   0.00000  Uiso   1.00
C55    C     0.50017   0.24589   0.16650   0.00000  Uiso   1.00
C56    C     0.40139   0.16659   0.15472   0.00000  Uiso   1.00
C57    C     0.59861   0.16688   0.17861   0.00000  Uiso   1.00
C58    C     0.34614   0.16624   0.14814   0.00000  Uiso   1.00
C59    C     0.65384   0.16748   0.18516   0.00000  Uiso   1.00
C60    C     0.48344   0.02156   0.12532   0.00000  Uiso   1.00
C61    C     0.51690   0.31176   0.20795   0.00000  Uiso   1.00
C62    C     0.48360   0.31221   0.12511   0.00000  Uiso   1.00
Cu63   Cu    0.50000   0.16667   0.21355   0.00000  Uiso   1.00
Cu64   Cu    0.50000   0.16666   0.11978   0.00000  Uiso   1.00
H65    H     0.46998   0.03790   0.09314   0.00000  Uiso   1.00
H66    H     0.56182   0.29479   0.05416   0.00000  Uiso   1.00
H67    H     0.53040   0.29542   0.24012   0.00000  Uiso   1.00
H68    H     0.46993   0.29620   0.09296   0.00000  Uiso   1.00
H69    H     0.53071   0.03711   0.24024   0.00000  Uiso   1.00
H70    H     0.45586   0.11155   0.04011   0.00000  Uiso   1.00
H71    H     0.54397   0.22185   0.29315   0.00000  Uiso   1.00
H72    H     0.65981   0.16477   0.11252   0.00000  Uiso   1.00
H73    H     0.34016   0.16908   0.22077   0.00000  Uiso   1.00
H74    H     0.38765   0.07938   0.23781   0.00000  Uiso   1.00
N75    N     0.50001   0.16668   0.28403   0.00000  Uiso   1.00
N76    N     0.49999   0.16666   0.04931   0.00000  Uiso   1.00
O77    O     0.50000   0.10655   0.20625   0.00000  Uiso   1.00
O78    O     0.40313   0.10620   0.25159   0.00000  Uiso   1.00
O79    O     0.58890   0.22739   0.08082   0.00000  Uiso   1.00
O80    O     0.53940   0.27301   0.03594   0.00000  Uiso   1.00
O81    O     0.50000   0.22678   0.12709   0.00000  Uiso   1.00
O82    O     0.50000   0.10654   0.12706   0.00000  Uiso   1.00
O83    O     0.50000   0.22679   0.20628   0.00000  Uiso   1.00
O84    O     0.42495   0.16667   0.19712   0.00000  Uiso   1.00
O85    O     0.57505   0.16666   0.13621   0.00000  Uiso   1.00
O86    O     0.42494   0.16666   0.11793   0.00000  Uiso   1.00
O87    O     0.57506   0.16667   0.21540   0.00000  Uiso   1.00
O88    O     0.46286   0.06545   0.29218   0.00000  Uiso   1.00
C89    C     0.83324   0.08744   0.16683   0.00000  Uiso   1.00
C90    C     0.85015   0.02111   0.20814   0.00000  Uiso   1.00
C91    C     0.83370   0.29054   0.16640   0.00000  Uiso   1.00
C92    C     0.83322   0.04279   0.16690   0.00000  Uiso   1.00
C93    C     0.80897   0.13594   0.02296   0.00000  Uiso   1.00
C94    C     0.85754   0.19747   0.31034   0.00000  Uiso   1.00
C95    C     0.80863   0.13566   0.30701   0.00000  Uiso   1.00
C96    C     0.85806   0.19769   0.02629   0.00000  Uiso   1.00
C97    C     0.78137   0.10036   0.28251   0.00000  Uiso   1.00
C98    C     0.88579   0.23292   0.05061   0.00000  Uiso   1.00
C99    C     0.83350   0.24589   0.16650   0.00000  Uiso   1.00
C100   C     0.73472   0.16659   0.15472   0.00000  Uiso   1.00
C101   C     0.93194   0.16688   0.17861   0.00000  Uiso   1.00
C102   C     0.67948   0.16624   0.14814   0.00000  Uiso   1.00
C103   C     0.98718   0.16748   0.18516   0.00000  Uiso   1.00
C104   C     0.81678   0.02156   0.12532   0.00000  Uiso   1.00
C105   C     0.85023   0.31176   0.20795   0.00000  Uiso   1.00
C106   C     0.81694   0.31221   0.12511   0.00000  Uiso   1.00
Cu107  Cu    0.83333   0.16667   0.21355   0.00000  Uiso   1.00
Cu108  Cu    0.83333   0.16666   0.11978   0.00000  Uiso   1.00
H109   H     0.80331   0.03790   0.09314   0.00000  Uiso   1.00
H110   H     0.89515   0.29479   0.05416   0.00000  Uiso   1.00
H111   H     0.86373   0.29542   0.24012   0.00000  Uiso   1.00
H112   H     0.80327   0.29620   0.09296   0.00000  Uiso   1.00
H113   H     0.86405   0.03711   0.24024   0.00000  Uiso   1.00
H114   H     0.78919   0.11155   0.04011   0.00000  Uiso   1.00
H115   H     0.87730   0.22185   0.29315   0.00000  Uiso   1.00
H116   H     0.99314   0.16477   0.11252   0.00000  Uiso   1.00
H117   H     0.67349   0.16908   0.22077   0.00000  Uiso   1.00
H118   H     0.72099   0.07938   0.23781   0.00000  Uiso   1.00
N119   N     0.83335   0.16668   0.28403   0.00000  Uiso   1.00
N120   N     0.83332   0.16666   0.04931   0.00000  Uiso   1.00
O121   O     0.83333   0.10655   0.20625   0.00000  Uiso   1.00
O122   O     0.73646   0.10620   0.25159   0.00000  Uiso   1.00
O123   O     0.92224   0.22739   0.08082   0.00000  Uiso   1.00
O124   O     0.87273   0.27301   0.03594   0.00000  Uiso   1.00
O125   O     0.83334   0.22678   0.12709   0.00000  Uiso   1.00
O126   O     0.83333   0.10654   0.12706   0.00000  Uiso   1.00
O127   O     0.83334   0.22679   0.20628   0.00000  Uiso   1.00
O128   O     0.75828   0.16667   0.19712   0.00000  Uiso   1.00
O129   O     0.90839   0.16666   0.13621   0.00000  Uiso   1.00
O130   O     0.75828   0.16666   0.11793   0.00000  Uiso   1.00
O131   O     0.90839   0.16667   0.21540   0.00000  Uiso   1.00
O132   O     0.79620   0.06545   0.29218   0.00000  Uiso   1.00
C133   C     0.16657   0.42078   0.16683   0.00000  Uiso   1.00
C134   C     0.18348   0.35445   0.20814   0.00000  Uiso   1.00
C135   C     0.16704   0.62387   0.16640   0.00000  Uiso   1.00
C136   C     0.16655   0.37612   0.16690   0.00000  Uiso   1.00
C137   C     0.14230   0.46927   0.02296   0.00000  Uiso   1.00
C138   C     0.19087   0.53080   0.31034   0.00000  Uiso   1.00
C139   C     0.14196   0.46899   0.30701   0.00000  Uiso   1.00
C140   C     0.19139   0.53102   0.02629   0.00000  Uiso   1.00
C141   C     0.11470   0.43370   0.28251   0.00000  Uiso   1.00
C142   C     0.21912   0.56625   0.05061   0.00000  Uiso   1.00
C143   C     0.16684   0.57922   0.16650   0.00000  Uiso   1.00
C144   C     0.06805   0.49992   0.15472   0.00000  Uiso   1.00
C145   C     0.26528   0.50021   0.17861   0.00000  Uiso   1.00
C146   C     0.01281   0.49957   0.14814   0.00000  Uiso   1.00
C147   C     0.32051   0.50081   0.18516   0.00000  Uiso   1.00
C148   C     0.15011   0.35490   0.12532   0.00000  Uiso   1.00
C149   C     0.18357   0.64509   0.20795   0.00000  Uiso   1.00
C150   C     0.15027   0.64554   0.12511   0.00000  Uiso   1.00
Cu151  Cu    0.16667   0.50001   0.21355   0.00000  Uiso   1.00
Cu152  Cu    0.16667   0.49999   0.11978   0.00000  Uiso   1.00
H153   H     0.13665   0.37123   0.09314   0.00000  Uiso   1.00
H154   H     0.22849   0.62812   0.05416   0.00000  Uiso   1.00
H155   H     0.19706   0.62875   0.24012   0.00000  Uiso   1.00
H156   H     0.13660   0.62954   0.09296   0.00000  Uiso   1.00
H157   H     0.19738   0.37044   0.24024   0.00000  Uiso   1.00
H158   H     0.12252   0.44488   0.04011   0.00000  Uiso   1.00
H159   H     0.21064   0.55518   0.29315   0.00000  Uiso   1.00
H160   H     0.32648   0.49811   0.11252   0.00000  Uiso   1.00
H161   H     0.00682   0.50241   0.22077   0.00000  Uiso   1.00
H162   H     0.05432   0.41271   0.23781   0.00000  Uiso   1.00
N163   N     0.16668   0.50001   0.28403   0.00000  Uiso   1.00
N164   N     0.16665   0.49999   0.04931   0.00000  Uiso   1.00
O165   O     0.16666   0.43989   0.20625   0.00000  Uiso   1.00
O166   O     0.06979   0.43953   0.25159   0.00000  Uiso   1.00
O167   O     0.25557   0.56073   0.08082   0.00000  Uiso   1.00
O168   O     0.20606   0.60634   0.03594   0.00000  Uiso   1.00
O169   O     0.16667   0.56011   0.12709   0.00000  Uiso   1.00
O170   O     0.16666   0.43988   0.12706   0.00000  Uiso   1.00
O171   O     0.16667   0.56012   0.20628   0.00000  Uiso   1.00
O172   O     0.09161   0.50000   0.19712   0.00000  Uiso   1.00
O173   O     0.24172   0.50000   0.13621   0.00000  Uiso   1.00
O174   O     0.09161   0.49999   0.11793   0.00000  Uiso   1.00
O175   O     0.24172   0.50001   0.21540   0.00000  Uiso   1.00
O176   O     0.12953   0.39878   0.29218   0.00000  Uiso   1.00
C177   C     0.49991   0.42078   0.16683   0.00000  Uiso   1.00
C178   C     0.51681   0.35445   0.20814   0.00000  Uiso   1.00
C179   C     0.50037   0.62387   0.16640   0.00000  Uiso   1.00
C180   C     0.49988   0.37612   0.16690   0.00000  Uiso   1.00
C181   C     0.47564   0.46927   0.02296   0.00000  Uiso   1.00
C182   C     0.52420   0.53080   0.31034   0.00000  Uiso   1.00
C183   C     0.47529   0.46899   0.30701   0.00000  Uiso   1.00
C184   C     0.52473   0.53102   0.02629   0.00000  Uiso   1.00
C185   C     0.44804   0.43370   0.28251   0.00000  Uiso   1.00
C186   C     0.55246   0.56625   0.05061   0.00000  Uiso   1.00
C187   C     0.50017   0.57922   0.16650   0.00000  Uiso   1.00
C188   C     0.40139   0.49992   0.15472   0.00000  Uiso   1.00
C189   C     0.59861   0.50021   0.17861   0.00000  Uiso   1.00
C190   C     0.34614   0.49957   0.14814   0.00000  Uiso   1.00
C191   C     0.65384   0.50081   0.18516   0.00000  Uiso   1.00
C192   C     0.48344   0.35490   0.12532   0.00000  Uiso   1.00
C193   C     0.51690   0.64509   0.20795   0.00000  Uiso   1.00
C194   C     0.48360   0.64554   0.12511   0.00000  Uiso   1.00
Cu195  Cu    0.50000   0.50001   0.21355   0.00000  Uiso   1.00
Cu196  Cu    0.50000   0.49999   0.11978   0.00000  Uiso   1.00
H197   H     0.46998   0.37123   0.09314   0.00000  Uiso   1.00
H198   H     0.56182   0.62812   0.05416   0.00000  Uiso   1.00
H199   H     0.53040   0.62875   0.24012   0.00000  Uiso   1.00
H200   H     0.46993   0.62954   0.09296   0.00000  Uiso   1.00
H201   H     0.53071   0.37044   0.24024   0.00000  Uiso   1.00
H202   H     0.45586   0.44488   0.04011   0.00000  Uiso   1.00
H203   H     0.54397   0.55518   0.29315   0.00000  Uiso   1.00
H204   H     0.65981   0.49811   0.11252   0.00000  Uiso   1.00
H205   H     0.34016   0.50241   0.22077   0.00000  Uiso   1.00
H206   H     0.38765   0.41271   0.23781   0.00000  Uiso   1.00
N207   N     0.50001   0.50001   0.28403   0.00000  Uiso   1.00
N208   N     0.49999   0.49999   0.04931   0.00000  Uiso   1.00
O209   O     0.50000   0.43989   0.20625   0.00000  Uiso   1.00
O210   O     0.40313   0.43953   0.25159   0.00000  Uiso   1.00
O211   O     0.58890   0.56073   0.08082   0.00000  Uiso   1.00
O212   O     0.53940   0.60634   0.03594   0.00000  Uiso   1.00
O213   O     0.50000   0.56011   0.12709   0.00000  Uiso   1.00
O214   O     0.50000   0.43988   0.12706   0.00000  Uiso   1.00
O215   O     0.50000   0.56012   0.20628   0.00000  Uiso   1.00
O216   O     0.42495   0.50000   0.19712   0.00000  Uiso   1.00
O217   O     0.57505   0.50000   0.13621   0.00000  Uiso   1.00
O218   O     0.42494   0.49999   0.11793   0.00000  Uiso   1.00
O219   O     0.57506   0.50001   0.21540   0.00000  Uiso   1.00
O220   O     0.46286   0.39878   0.29218   0.00000  Uiso   1.00
C221   C     0.83324   0.42078   0.16683   0.00000  Uiso   1.00
C222   C     0.85015   0.35445   0.20814   0.00000  Uiso   1.00
C223   C     0.83370   0.62387   0.16640   0.00000  Uiso   1.00
C224   C     0.83322   0.37612   0.16690   0.00000  Uiso   1.00
C225   C     0.80897   0.46927   0.02296   0.00000  Uiso   1.00
C226   C     0.85754   0.53080   0.31034   0.00000  Uiso   1.00
C227   C     0.80863   0.46899   0.30701   0.00000  Uiso   1.00
C228   C     0.85806   0.53102   0.02629   0.00000  Uiso   1.00
C229   C     0.78137   0.43370   0.28251   0.00000  Uiso   1.00
C230   C     0.88579   0.56625   0.05061   0.00000  Uiso   1.00
C231   C     0.83350   0.57922   0.16650   0.00000  Uiso   1.00
C232   C     0.73472   0.49992   0.15472   0.00000  Uiso   1.00
C233   C     0.93194   0.50021   0.17861   0.00000  Uiso   1.00
C234   C     0.67948   0.49957   0.14814   0.00000  Uiso   1.00
C235   C     0.98718   0.50081   0.18516   0.00000  Uiso   1.00
C236   C     0.81678   0.35490   0.12532   0.00000  Uiso   1.00
C237   C     0.85023   0.64509   0.20795   0.00000  Uiso   1.00
C238   C     0.81694   0.64554   0.12511   0.00000  Uiso   1.00
Cu239  Cu    0.83333   0.50001   0.21355   0.00000  Uiso   1.00
Cu240  Cu    0.83333   0.49999   0.11978   0.00000  Uiso   1.00
H241   H     0.80331   0.37123   0.09314   0.00000  Uiso   1.00
H242   H     0.89515   0.62812   0.05416   0.00000  Uiso   1.00
H243   H     0.86373   0.62875   0.24012   0.00000  Uiso   1.00
H244   H     0.80327   0.62954   0.09296   0.00000  Uiso   1.00
H245   H     0.86405   0.37044   0.24024   0.00000  Uiso   1.00
H246   H     0.78919   0.44488   0.04011   0.00000  Uiso   1.00
H247   H     0.87730   0.55518   0.29315   0.00000  Uiso   1.00
H248   H     0.99314   0.49811   0.11252   0.00000  Uiso   1.00
H249   H     0.67349   0.50241   0.22077   0.00000  Uiso   1.00
H250   H     0.72099   0.41271   0.23781   0.00000  Uiso   1.00
N251   N     0.83335   0.50001   0.28403   0.00000  Uiso   1.00
N252   N     0.83332   0.49999   0.04931   0.00000  Uiso   1.00
O253   O     0.83333   0.43989   0.20625   0.00000  Uiso   1.00
O254   O     0.73646   0.43953   0.25159   0.00000  Uiso   1.00
O255   O     0.92224   0.56073   0.08082   0.00000  Uiso   1.00
O256   O     0.87273   0.60634   0.03594   0.00000  Uiso   1.00
O257   O     0.83334   0.56011   0.12709   0.00000  Uiso   1.00
O258   O     0.83333   0.43988   0.12706   0.00000  Uiso   1.00
O259   O     0.83334   0.56012   0.20628   0.00000  Uiso   1.00
O260   O     0.75828   0.50000   0.19712   0.00000  Uiso   1.00
O261   O     0.90839   0.50000   0.13621   0.00000  Uiso   1.00
O262   O     0.75828   0.49999   0.11793   0.00000  Uiso   1.00
O263   O     0.90839   0.50001   0.21540   0.00000  Uiso   1.00
O264   O     0.79620   0.39878   0.29218   0.00000  Uiso   1.00
C265   C     0.16657   0.75411   0.16683   0.00000  Uiso   1.00
C266   C     0.18348   0.68778   0.20814   0.00000  Uiso   1.00
C267   C     0.16704   0.95720   0.16640   0.00000  Uiso   1.00
C268   C     0.16655   0.70945   0.16690   0.00000  Uiso   1.00
C269   C     0.14230   0.80261   0.02296   0.00000  Uiso   1.00
C270   C     0.19087   0.86413   0.31034   0.00000  Uiso   1.00
C271   C     0.14196   0.80233   0.30701   0.00000  Uiso   1.00
C272   C     0.19139   0.86436   0.02629   0.00000  Uiso   1.00
C273   C     0.11470   0.76703   0.28251   0.00000  Uiso   1.00
C274   C     0.21912   0.89958   0.05061   0.00000  Uiso   1.00
C275   C     0.16684   0.91255   0.16650   0.00000  Uiso   1.00
C276   C     0.06805   0.83326   0.15472   0.00000  Uiso   1.00
C277   C     0.26528   0.83354   0.17861   0.00000  Uiso   1.00
C278   C     0.01281   0.83291   0.14814   0.00000  Uiso   1.00
C279   C     0.32051   0.83414   0.18516   0.00000  Uiso   1.00
C280   C     0.15011   0.68823   0.12532   0.00000  Uiso   1.00
C281   C     0.18357   0.97843   0.20795   0.00000  Uiso   1.00
C282   C     0.15027   0.97888   0.12511   0.00000  Uiso   1.00
Cu283  Cu    0.16667   0.83334   0.21355   0.00000  Uiso   1.00
Cu284  Cu    0.16667   0.83333   0.11978   0.00000  Uiso   1.00
H285   H     0.13665   0.70456   0.09314   0.00000  Uiso   1.00
H286   H     0.22849   0.96146   0.05416   0.00000  Uiso   1.00
H287   H     0.19706   0.96209   0.24012   0.00000  Uiso   1.00
H288   H     0.13660   0.96287   0.09296   0.00000  Uiso   1.00
H289   H     0.19738   0.70377   0.24024   0.00000  Uiso   1.00
H290   H     0.12252   0.77821   0.04011   0.00000  Uiso   1.00
H291   H     0.21064   0.88851   0.29315   0.00000  Uiso   1.00
H292   H     0.32648   0.83144   0.11252   0.00000  Uiso   1.00
H293   H     0.00682   0.83574   0.22077   0.00000  Uiso   1.00
H294   H     0.05432   0.74605   0.23781   0.00000  Uiso   1.00
N295   N     0.16668   0.83334   0.28403   0.00000  Uiso   1.00
N296   N     0.16665   0.83332   0.04931   0.00000  Uiso   1.00
O297   O     0.16666   0.77322   0.20625   0.00000  Uiso   1.00
O298   O     0.06979   0.77286   0.25159   0.00000  Uiso   1.00
O299   O     0.25557   0.89406   0.08082   0.00000  Uiso   1.00
O300   O     0.20606   0.93968   0.03594   0.00000  Uiso   1.00
O301   O     0.16667   0.89345   0.12709   0.00000  Uiso   1.00
O302   O     0.16666   0.77321   0.12706   0.00000  Uiso   1.00
O303   O     0.16667   0.89346   0.20628   0.00000  Uiso   1.00
O304   O     0.09161   0.83334   0.19712   0.00000  Uiso   1.00
O305   O     0.24172   0.83333   0.13621   0.00000  Uiso   1.00
O306   O     0.09161   0.83333   0.11793   0.00000  Uiso   1.00
O307   O     0.24172   0.83334   0.21540   0.00000  Uiso   1.00
O308   O     0.12953   0.73211   0.29218   0.00000  Uiso   1.00
C309   C     0.49991   0.75411   0.16683   0.00000  Uiso   1.00
C310   C     0.51681   0.68778   0.20814   0.00000  Uiso   1.00
C311   C     0.50037   0.95720   0.16640   0.00000  Uiso   1.00
C312   C     0.49988   0.70945   0.16690   0.00000  Uiso   1.00
C313   C     0.47564   0.80261   0.02296   0.00000  Uiso   1.00
C314   C     0.52420   0.86413   0.31034   0.00000  Uiso   1.00
C315   C     0.47529   0.80233   0.30701   0.00000  Uiso   1.00
C316   C     0.52473   0.86436   0.02629   0.00000  Uiso   1.00
C317   C     0.44804   0.76703   0.28251   0.00000  Uiso   1.00
C318   C     0.55246   0.89958   0.05061   0.00000  Uiso   1.00
C319   C     0.50017   0.91255   0.16650   0.00000  Uiso   1.00
C320   C     0.40139   0.83326   0.15472   0.00000  Uiso   1.00
C321   C     0.59861   0.83354   0.17861   0.00000  Uiso   1.00
C322   C     0.34614   0.83291   0.14814   0.00000  Uiso   1.00
C323   C     0.65384   0.83414   0.18516   0.00000  Uiso   1.00
C324   C     0.48344   0.68823   0.12532   0.00000  Uiso   1.00
C325   C     0.51690   0.97843   0.20795   0.00000  Uiso   1.00
C326   C     0.48360   0.97888   0.12511   0.00000  Uiso   1.00
Cu327  Cu    0.50000   0.83334   0.21355   0.00000  Uiso   1.00
Cu328  Cu    0.50000   0.83333   0.11978   0.00000  Uiso   1.00
H329   H     0.46998   0.70456   0.09314   0.00000  Uiso   1.00
H330   H     0.56182   0.96146   0.05416   0.00000  Uiso   1.00
H331   H     0.53040   0.96209   0.24012   0.00000  Uiso   1.00
H332   H     0.46993   0.96287   0.09296   0.00000  Uiso   1.00
H333   H     0.53071   0.70377   0.24024   0.00000  Uiso   1.00
H334   H     0.45586   0.77821   0.04011   0.00000  Uiso   1.00
H335   H     0.54397   0.88851   0.29315   0.00000  Uiso   1.00
H336   H     0.65981   0.83144   0.11252   0.00000  Uiso   1.00
H337   H     0.34016   0.83574   0.22077   0.00000  Uiso   1.00
H338   H     0.38765   0.74605   0.23781   0.00000  Uiso   1.00
N339   N     0.50001   0.83334   0.28403   0.00000  Uiso   1.00
N340   N     0.49999   0.83332   0.04931   0.00000  Uiso   1.00
O341   O     0.50000   0.77322   0.20625   0.00000  Uiso   1.00
O342   O     0.40313   0.77286   0.25159   0.00000  Uiso   1.00
O343   O     0.58890   0.89406   0.08082   0.00000  Uiso   1.00
O344   O     0.53940   0.93968   0.03594   0.00000  Uiso   1.00
O345   O     0.50000   0.89345   0.12709   0.00000  Uiso   1.00
O346   O     0.50000   0.77321   0.12706   0.00000  Uiso   1.00
O347   O     0.50000   0.89346   0.20628   0.00000  Uiso   1.00
O348   O     0.42495   0.83334   0.19712   0.00000  Uiso   1.00
O349   O     0.57505   0.83333   0.13621   0.00000  Uiso   1.00
O350   O     0.42494   0.83333   0.11793   0.00000  Uiso   1.00
O351   O     0.57506   0.83334   0.21540   0.00000  Uiso   1.00
O352   O     0.46286   0.73211   0.29218   0.00000  Uiso   1.00
C353   C     0.83324   0.75411   0.16683   0.00000  Uiso   1.00
C354   C     0.85015   0.68778   0.20814   0.00000  Uiso   1.00
C355   C     0.83370   0.95720   0.16640   0.00000  Uiso   1.00
C356   C     0.83322   0.70945   0.16690   0.00000  Uiso   1.00
C357   C     0.80897   0.80261   0.02296   0.00000  Uiso   1.00
C358   C     0.85754   0.86413   0.31034   0.00000  Uiso   1.00
C359   C     0.80863   0.80233   0.30701   0.00000  Uiso   1.00
C360   C     0.85806   0.86436   0.02629   0.00000  Uiso   1.00
C361   C     0.78137   0.76703   0.28251   0.00000  Uiso   1.00
C362   C     0.88579   0.89958   0.05061   0.00000  Uiso   1.00
C363   C     0.83350   0.91255   0.16650   0.00000  Uiso   1.00
C364   C     0.73472   0.83326   0.15472   0.00000  Uiso   1.00
C365   C     0.93194   0.83354   0.17861   0.00000  Uiso   1.00
C366   C     0.67948   0.83291   0.14814   0.00000  Uiso   1.00
C367   C     0.98718   0.83414   0.18516   0.00000  Uiso   1.00
C368   C     0.81678   0.68823   0.12532   0.00000  Uiso   1.00
C369   C     0.85023   0.97843   0.20795   0.00000  Uiso   1.00
C370   C     0.81694   0.97888   0.12511   0.00000  Uiso   1.00
Cu371  Cu    0.83333   0.83334   0.21355   0.00000  Uiso   1.00
Cu372  Cu    0.83333   0.83333   0.11978   0.00000  Uiso   1.00
H373   H     0.80331   0.70456   0.09314   0.00000  Uiso   1.00
H374   H     0.89515   0.96146   0.05416   0.00000  Uiso   1.00
H375   H     0.86373   0.96209   0.24012   0.00000  Uiso   1.00
H376   H     0.80327   0.96287   0.09296   0.00000  Uiso   1.00
H377   H     0.86405   0.70377   0.24024   0.00000  Uiso   1.00
H378   H     0.78919   0.77821   0.04011   0.00000  Uiso   1.00
H379   H     0.87730   0.88851   0.29315   0.00000  Uiso   1.00
H380   H     0.99314   0.83144   0.11252   0.00000  Uiso   1.00
H381   H     0.67349   0.83574   0.22077   0.00000  Uiso   1.00
H382   H     0.72099   0.74605   0.23781   0.00000  Uiso   1.00
N383   N     0.83335   0.83334   0.28403   0.00000  Uiso   1.00
N384   N     0.83332   0.83332   0.04931   0.00000  Uiso   1.00
O385   O     0.83333   0.77322   0.20625   0.00000  Uiso   1.00
O386   O     0.73646   0.77286   0.25159   0.00000  Uiso   1.00
O387   O     0.92224   0.89406   0.08082   0.00000  Uiso   1.00
O388   O     0.87273   0.93968   0.03594   0.00000  Uiso   1.00
O389   O     0.83334   0.89345   0.12709   0.00000  Uiso   1.00
O390   O     0.83333   0.77321   0.12706   0.00000  Uiso   1.00
O391   O     0.83334   0.89346   0.20628   0.00000  Uiso   1.00
O392   O     0.75828   0.83334   0.19712   0.00000  Uiso   1.00
O393   O     0.90839   0.83333   0.13621   0.00000  Uiso   1.00
O394   O     0.75828   0.83333   0.11793   0.00000  Uiso   1.00
O395   O     0.90839   0.83334   0.21540   0.00000  Uiso   1.00
O396   O     0.79620   0.73211   0.29218   0.00000  Uiso   1.00
C397   C     0.16657   0.08744   0.50017   0.00000  Uiso   1.00
C398   C     0.18348   0.02111   0.54148   0.00000  Uiso   1.00
C399   C     0.16704   0.29054   0.49974   0.00000  Uiso   1.00
C400   C     0.16655   0.04279   0.50023   0.00000  Uiso   1.00
C401   C     0.14230   0.13594   0.35629   0.00000  Uiso   1.00
C402   C     0.19087   0.19747   0.64368   0.00000  Uiso   1.00
C403   C     0.14196   0.13566   0.64034   0.00000  Uiso   1.00
C404   C     0.19139   0.19769   0.35962   0.00000  Uiso   1.00
C405   C     0.11470   0.10036   0.61584   0.00000  Uiso   1.00
C406   C     0.21912   0.23292   0.38394   0.00000  Uiso   1.00
C407   C     0.16684   0.24589   0.49983   0.00000  Uiso   1.00
C408   C     0.06805   0.16659   0.48805   0.00000  Uiso   1.00
C409   C     0.26528   0.16688   0.51194   0.00000  Uiso   1.00
C410   C     0.01281   0.16624   0.48147   0.00000  Uiso   1.00
C411   C     0.32051   0.16748   0.51850   0.00000  Uiso   1.00
C412   C     0.15011   0.02156   0.45866   0.00000  Uiso   1.00
C413   C     0.18357   0.31176   0.54129   0.00000  Uiso   1.00
C414   C     0.15027   0.31221   0.45845   0.00000  Uiso   1.00
Cu415  Cu    0.16667   0.16667   0.54689   0.00000  Uiso   1.00
Cu416  Cu    0.16667   0.16666   0.45311   0.00000  Uiso   1.00
H417   H     0.13665   0.03790   0.42648   0.00000  Uiso   1.00
H418   H     0.22849   0.29479   0.38749   0.00000  Uiso   1.00
H419   H     0.19706   0.29542   0.57346   0.00000  Uiso   1.00
H420   H     0.13660   0.29620   0.42629   0.00000  Uiso   1.00
H421   H     0.19738   0.03711   0.57357   0.00000  Uiso   1.00
H422   H     0.12252   0.11155   0.37344   0.00000  Uiso   1.00
H423   H     0.21064   0.22185   0.62648   0.00000  Uiso   1.00
H424   H     0.32648   0.16477   0.44586   0.00000  Uiso   1.00
H425   H     0.00682   0.16908   0.55410   0.00000  Uiso   1.00
H426   H     0.05432   0.07938   0.57114   0.00000  Uiso   1.00
N427   N     0.16668   0.16668   0.61736   0.00000  Uiso   1.00
N428   N     0.16665   0.16666   0.38264   0.00000  Uiso   1.00
O429   O     0.16666   0.10655   0.53958   0.00000  Uiso   1.00
O430   O     0.06979   0.10620   0.58493   0.00000  Uiso   1.00
O431   O     0.25557   0.22739   0.41415   0.00000  Uiso   1.00
O432   O     0.20606   0.27301   0.36928   0.00000  Uiso   1.00
O433   O     0.16667   0.22678   0.46042   0.00000  Uiso   1.00
O434   O     0.16666   0.10654   0.46039   0.00000  Uiso   1.00
O435   O     0.16667   0.22679   0.53961   0.00000  Uiso   1.00
O436   O     0.09161   0.16667   0.53046   0.00000  Uiso   1.00
O437   O     0.24172   0.16666   0.46954   0.00000  Uiso   1.00
O438   O     0.09161   0.16666   0.45127   0.00000  Uiso   1.00
O439   O     0.24172   0.16667   0.54873   0.00000  Uiso   1.00
O440   O     0.12953   0.06545   0.62551   0.00000  Uiso   1.00
C441   C     0.49991   0.08744   0.50017   0.00000  Uiso   1.00
C442   C     0.51681   0.02111   0.54148   0.00000  Uiso   1.00
C443   C     0.50037   0.29054   0.49974   0.00000  Uiso   1.00
C444   C     0.49988   0.04279   0.50023   0.00000  Uiso   1.00
C445   C     0.47564   0.13594   0.35629   0.00000  Uiso   1.00
C446   C     0.52420   0.19747   0.64368   0.00000  Uiso   1.00
C447   C     0.47529   0.13566   0.64034   0.00000  Uiso   1.00
C448   C     0.52473   0.19769   0.35962   0.00000  Uiso   1.00
C449   C     0.44804   0.10036   0.61584   0.00000  Uiso   1.00
C450   C     0.55246   0.23292   0.38394   0.00000  Uiso   1.00
C451   C     0.50017   0.24589   0.49983   0.00000  Uiso   1.00
C452   C     0.40139   0.16659   0.48805   0.00000  Uiso   1.00
C453   C     0.59861   0.16688   0.51194   0.00000  Uiso   1.00
C454   C     0.34614   0.16624   0.48147   0.00000  Uiso   1.00
C455   C     0.65384   0.16748   0.51850   0.00000  Uiso   1.00
C456   C     0.48344   0.02156   0.45866   0.00000  Uiso   1.00
C457   C     0.51690   0.31176   0.54129   0.00000  Uiso   1.00
C458   C     0.48360   0.31221   0.45845   0.00000  Uiso   1.00
Cu459  Cu    0.50000   0.16667   0.54689   0.00000  Uiso   1.00
Cu460  Cu    0.50000   0.16666   0.45311   0.00000  Uiso   1.00
H461   H     0.46998   0.03790   0.42648   0.00000  Uiso   1.00
H462   H     0.56182   0.29479   0.38749   0.00000  Uiso   1.00
H463   H     0.53040   0.29542   0.57346   0.00000  Uiso   1.00
H464   H     0.46993   0.29620   0.42629   0.00000  Uiso   1.00
H465   H     0.53071   0.03711   0.57357   0.00000  Uiso   1.00
H466   H     0.45586   0.11155   0.37344   0.00000  Uiso   1.00
H467   H     0.54397   0.22185   0.62648   0.00000  Uiso   1.00
H468   H     0.65981   0.16477   0.44586   0.00000  Uiso   1.00
H469   H     0.34016   0.16908   0.55410   0.00000  Uiso   1.00
H470   H     0.38765   0.07938   0.57114   0.00000  Uiso   1.00
N471   N     0.50001   0.16668   0.61736   0.00000  Uiso   1.00
N472   N     0.49999   0.16666   0.38264   0.00000  Uiso   1.00
O473   O     0.50000   0.10655   0.53958   0.00000  Uiso   1.00
O474   O     0.40313   0.10620   0.58493   0.00000  Uiso   1.00
O475   O     0.58890   0.22739   0.41415   0.00000  Uiso   1.00
O476   O     0.53940   0.27301   0.36928   0.00000  Uiso   1.00
O477   O     0.50000   0.22678   0.46042   0.00000  Uiso   1.00
O478   O     0.50000   0.10654   0.46039   0.00000  Uiso   1.00
O479   O     0.50000   0.22679   0.53961   0.00000  Uiso   1.00
O480   O     0.42495   0.16667   0.53046   0.00000  Uiso   1.00
O481   O     0.57505   0.16666   0.46954   0.00000  Uiso   1.00
O482   O     0.42494   0.16666   0.45127   0.00000  Uiso   1.00
O483   O     0.57506   0.16667   0.54873   0.00000  Uiso   1.00
O484   O     0.46286   0.06545   0.62551   0.00000  Uiso   1.00
C485   C     0.83324   0.08744   0.50017   0.00000  Uiso   1.00
C486   C     0.85015   0.02111   0.54148   0.00000  Uiso   1.00
C487   C     0.83370   0.29054   0.49974   0.00000  Uiso   1.00
C488   C     0.83322   0.04279   0.50023   0.00000  Uiso   1.00
C489   C     0.80897   0.13594   0.35629   0.00000  Uiso   1.00
C490   C     0.85754   0.19747   0.64368   0.00000  Uiso   1.00
C491   C     0.80863   0.13566   0.64034   0.00000  Uiso   1.00
C492   C     0.85806   0.19769   0.35962   0.00000  Uiso   1.00
C493   C     0.78137   0.10036   0.61584   0.00000  Uiso   1.00
C494   C     0.88579   0.23292   0.38394   0.00000  Uiso   1.00
C495   C     0.83350   0.24589   0.49983   0.00000  Uiso   1.00
C496   C     0.73472   0.16659   0.48805   0.00000  Uiso   1.00
C497   C     0.93194   0.16688   0.51194   0.00000  Uiso   1.00
C498   C     0.67948   0.16624   0.48147   0.00000  Uiso   1.00
C499   C     0.98718   0.16748   0.51850   0.00000  Uiso   1.00
C500   C     0.81678   0.02156   0.45866   0.00000  Uiso   1.00
C501   C     0.85023   0.31176   0.54129   0.00000  Uiso   1.00
C502   C     0.81694   0.31221   0.45845   0.00000  Uiso   1.00
Cu503  Cu    0.83333   0.16667   0.54689   0.00000  Uiso   1.00
Cu504  Cu    0.83333   0.16666   0.45311   0.00000  Uiso   1.00
H505   H     0.80331   0.03790   0.42648   0.00000  Uiso   1.00
H506   H     0.89515   0.29479   0.38749   0.00000  Uiso   1.00
H507   H     0.86373   0.29542   0.57346   0.00000  Uiso   1.00
H508   H     0.80327   0.29620   0.42629   0.00000  Uiso   1.00
H509   H     0.86405   0.03711   0.57357   0.00000  Uiso   1.00
H510   H     0.78919   0.11155   0.37344   0.00000  Uiso   1.00
H511   H     0.87730   0.22185   0.62648   0.00000  Uiso   1.00
H512   H     0.99314   0.16477   0.44586   0.00000  Uiso   1.00
H513   H     0.67349   0.16908   0.55410   0.00000  Uiso   1.00
H514   H     0.72099   0.07938   0.57114   0.00000  Uiso   1.00
N515   N     0.83335   0.16668   0.61736   0.00000  Uiso   1.00
N516   N     0.83332   0.16666   0.38264   0.00000  Uiso   1.00
O517   O     0.83333   0.10655   0.53958   0.00000  Uiso   1.00
O518   O     0.73646   0.10620   0.58493   0.00000  Uiso   1.00
O519   O     0.92224   0.22739   0.41415   0.00000  Uiso   1.00
O520   O     0.87273   0.27301   0.36928   0.00000  Uiso   1.00
O521   O     0.83334   0.22678   0.46042   0.00000  Uiso   1.00
O522   O     0.83333   0.10654   0.46039   0.00000  Uiso   1.00
O523   O     0.83334   0.22679   0.53961   0.00000  Uiso   1.00
O524   O     0.75828   0.16667   0.53046   0.00000  Uiso   1.00
O525   O     0.90839   0.16666   0.46954   0.00000  Uiso   1.00
O526   O     0.75828   0.16666   0.45127   0.00000  Uiso   1.00
O527   O     0.90839   0.16667   0.54873   0.00000  Uiso   1.00
O528   O     0.79620   0.06545   0.62551   0.00000  Uiso   1.00
C529   C     0.16657   0.42078   0.50017   0.00000  Uiso   1.00
C530   C     0.18348   0.35445   0.54148   0.00000  Uiso   1.00
C531   C     0.16704   0.62387   0.49974   0.00000  Uiso   1.00
C532   C     0.16655   0.37612   0.50023   0.00000  Uiso   1.00
C533   C     0.14230   0.46927   0.35629   0.00000  Uiso   1.00
C534   C     0.19087   0.53080   0.64368   0.00000  Uiso   1.00
C535   C     0.14196   0.46899   0.64034   0.00000  Uiso   1.00
C536   C     0.19139   0.53102   0.35962   0.00000  Uiso   1.00
C537   C     0.11470   0.43370   0.61584   0.00000  Uiso   1.00
C538   C     0.21912   0.56625   0.38394   0.00000  Uiso   1.00
C539   C     0.16684   0.57922   0.49983   0.00000  Uiso   1.00
C540   C     0.06805   0.49992   0.48805   0.00000  Uiso   1.00
C541   C     0.26528   0.50021   0.51194   0.00000  Uiso   1.00
C542   C     0.01281   0.49957   0.48147   0.00000  Uiso   1.00
C543   C     0.32051   0.50081   0.51850   0.00000  Uiso   1.00
C544   C     0.15011   0.35490   0.45866   0.00000  Uiso   1.00
C545   C     0.18357   0.64509   0.54129   0.00000  Uiso   1.00
C546   C     0.15027   0.64554   0.45845   0.00000  Uiso   1.00
Cu547  Cu    0.16667   0.50001   0.54689   0.00000  Uiso   1.00
Cu548  Cu    0.16667   0.49999   0.45311   0.00000  Uiso   1.00
H549   H     0.13665   0.37123   0.42648   0.00000  Uiso   1.00
H550   H     0.22849   0.62812   0.38749   0.00000  Uiso   1.00
H551   H     0.19706   0.62875   0.57346   0.00000  Uiso   1.00
H552   H     0.13660   0.62954   0.42629   0.00000  Uiso   1.00
H553   H     0.19738   0.37044   0.57357   0.00000  Uiso   1.00
H554   H     0.12252   0.44488   0.37344   0.00000  Uiso   1.00
H555   H     0.21064   0.55518   0.62648   0.00000  Uiso   1.00
H556   H     0.32648   0.49811   0.44586   0.00000  Uiso   1.00
H557   H     0.00682   0.50241   0.55410   0.00000  Uiso   1.00
H558   H     0.05432   0.41271   0.57114   0.00000  Uiso   1.00
N559   N     0.16668   0.50001   0.61736   0.00000  Uiso   1.00
N560   N     0.16665   0.49999   0.38264   0.00000  Uiso   1.00
O561   O     0.16666   0.43989   0.53958   0.00000  Uiso   1.00
O562   O     0.06979   0.43953   0.58493   0.00000  Uiso   1.00
O563   O     0.25557   0.56073   0.41415   0.00000  Uiso   1.00
O564   O     0.20606   0.60634   0.36928   0.00000  Uiso   1.00
O565   O     0.16667   0.56011   0.46042   0.00000  Uiso   1.00
O566   O     0.16666   0.43988   0.46039   0.00000  Uiso   1.00
O567   O     0.16667   0.56012   0.53961   0.00000  Uiso   1.00
O568   O     0.09161   0.50000   0.53046   0.00000  Uiso   1.00
O569   O     0.24172   0.50000   0.46954   0.00000  Uiso   1.00
O570   O     0.09161   0.49999   0.45127   0.00000  Uiso   1.00
O571   O     0.24172   0.50001   0.54873   0.00000  Uiso   1.00
O572   O     0.12953   0.39878   0.62551   0.00000  Uiso   1.00
C573   C     0.49991   0.42078   0.50017   0.00000  Uiso   1.00
C574   C     0.51681   0.35445   0.54148   0.00000  Uiso   1.00
C575   C     0.50037   0.62387   0.49974   0.00000  Uiso   1.00
C576   C     0.49988   0.37612   0.50023   0.00000  Uiso   1.00
C577   C     0.47564   0.46927   0.35629   0.00000  Uiso   1.00
C578   C     0.52420   0.53080   0.64368   0.00000  Uiso   1.00
C579   C     0.47529   0.46899   0.64034   0.00000  Uiso   1.00
C580   C     0.52473   0.53102   0.35962   0.00000  Uiso   1.00
C581   C     0.44804   0.43370   0.61584   0.00000  Uiso   1.00
C582   C     0.55246   0.56625   0.38394   0.00000  Uiso   1.00
C583   C     0.50017   0.57922   0.49983   0.00000  Uiso   1.00
C584   C     0.40139   0.49992   0.48805   0.00000  Uiso   1.00
C585   C     0.59861   0.50021   0.51194   0.00000  Uiso   1.00
C586   C     0.34614   0.49957   0.48147   0.00000  Uiso   1.00
C587   C     0.65384   0.50081   0.51850   0.00000  Uiso   1.00
C588   C     0.48344   0.35490   0.45866   0.00000  Uiso   1.00
C589   C     0.51690   0.64509   0.54129   0.00000  Uiso   1.00
C590   C     0.48360   0.64554   0.45845   0.00000  Uiso   1.00
Cu591  Cu    0.50000   0.50001   0.54689   0.00000  Uiso   1.00
Cu592  Cu    0.50000   0.49999   0.45311   0.00000  Uiso   1.00
H593   H     0.46998   0.37123   0.42648   0.00000  Uiso   1.00
H594   H     0.56182   0.62812   0.38749   0.00000  Uiso   1.00
H595   H     0.53040   0.62875   0.57346   0.00000  Uiso   1.00
H596   H     0.46993   0.62954   0.42629   0.00000  Uiso   1.00
H597   H     0.53071   0.37044   0.57357   0.00000  Uiso   1.00
H598   H     0.45586   0.44488   0.37344   0.00000  Uiso   1.00
H599   H     0.54397   0.55518   0.62648   0.00000  Uiso   1.00
H600   H     0.65981   0.49811   0.44586   0.00000  Uiso   1.00
H601   H     0.34016   0.50241   0.55410   0.00000  Uiso   1.00
H602   H     0.38765   0.41271   0.57114   0.00000  Uiso   1.00
N603   N     0.50001   0.50001   0.61736   0.00000  Uiso   1.00
N604   N     0.49999   0.49999   0.38264   0.00000  Uiso   1.00
O605   O     0.50000   0.43989   0.53958   0.00000  Uiso   1.00
O606   O     0.40313   0.43953   0.58493   0.00000  Uiso   1.00
O607   O     0.58890   0.56073   0.41415   0.00000  Uiso   1.00
O608   O     0.53940   0.60634   0.36928   0.00000  Uiso   1.00
O609   O     0.50000   0.56011   0.46042   0.00000  Uiso   1.00
O610   O     0.50000   0.43988   0.46039   0.00000  Uiso   1.00
O611   O     0.50000   0.56012   0.53961   0.00000  Uiso   1.00
O612   O     0.42495   0.50000   0.53046   0.00000  Uiso   1.00
O613   O     0.57505   0.50000   0.46954   0.00000  Uiso   1.00
O614   O     0.42494   0.49999   0.45127   0.00000  Uiso   1.00
O615   O     0.57506   0.50001   0.54873   0.00000  Uiso   1.00
O616   O     0.46286   0.39878   0.62551   0.00000  Uiso   1.00
C617   C     0.83324   0.42078   0.50017   0.00000  Uiso   1.00
C618   C     0.85015   0.35445   0.54148   0.00000  Uiso   1.00
C619   C     0.83370   0.62387   0.49974   0.00000  Uiso   1.00
C620   C     0.83322   0.37612   0.50023   0.00000  Uiso   1.00
C621   C     0.80897   0.46927   0.35629   0.00000  Uiso   1.00
C622   C     0.85754   0.53080   0.64368   0.00000  Uiso   1.00
C623   C     0.80863   0.46899   0.64034   0.00000  Uiso   1.00
C624   C     0.85806   0.53102   0.35962   0.00000  Uiso   1.00
C625   C     0.78137   0.43370   0.61584   0.00000  Uiso   1.00
C626   C     0.88579   0.56625   0.38394   0.00000  Uiso   1.00
C627   C     0.83350   0.57922   0.49983   0.00000  Uiso   1.00
C628   C     0.73472   0.49992   0.48805   0.00000  Uiso   1.00
C629   C     0.93194   0.50021   0.51194   0.00000  Uiso   1.00
C630   C     0.67948   0.49957   0.48147   0.00000  Uiso   1.00
C631   C     0.98718   0.50081   0.51850   0.00000  Uiso   1.00
C632   C     0.81678   0.35490   0.45866   0.00000  Uiso   1.00
C633   C     0.85023   0.64509   0.54129   0.00000  Uiso   1.00
C634   C     0.81694   0.64554   0.45845   0.00000  Uiso   1.00
Cu635  Cu    0.83333   0.50001   0.54689   0.00000  Uiso   1.00
Cu636  Cu    0.83333   0.49999   0.45311   0.00000  Uiso   1.00
H637   H     0.80331   0.37123   0.42648   0.00000  Uiso   1.00
H638   H     0.89515   0.62812   0.38749   0.00000  Uiso   1.00
H639   H     0.86373   0.62875   0.57346   0.00000  Uiso   1.00
H640   H     0.80327   0.62954   0.42629   0.00000  Uiso   1.00
H641   H     0.86405   0.37044   0.57357   0.00000  Uiso   1.00
H642   H     0.78919   0.44488   0.37344   0.00000  Uiso   1.00
H643   H     0.87730   0.55518   0.62648   0.00000  Uiso   1.00
H644   H     0.99314   0.49811   0.44586   0.00000  Uiso   1.00
H645   H     0.67349   0.50241   0.55410   0.00000  Uiso   1.00
H646   H     0.72099   0.41271   0.57114   0.00000  Uiso   1.00
N647   N     0.83335   0.50001   0.61736   0.00000  Uiso   1.00
N648   N     0.83332   0.49999   0.38264   0.00000  Uiso   1.00
O649   O     0.83333   0.43989   0.53958   0.00000  Uiso   1.00
O650   O     0.73646   0.43953   0.58493   0.00000  Uiso   1.00
O651   O     0.92224   0.56073   0.41415   0.00000  Uiso   1.00
O652   O     0.87273   0.60634   0.36928   0.00000  Uiso   1.00
O653   O     0.83334   0.56011   0.46042   0.00000  Uiso   1.00
O654   O     0.83333   0.43988   0.46039   0.00000  Uiso   1.00
O655   O     0.83334   0.56012   0.53961   0.00000  Uiso   1.00
O656   O     0.75828   0.50000   0.53046   0.00000  Uiso   1.00
O657   O     0.90839   0.50000   0.46954   0.00000  Uiso   1.00
O658   O     0.75828   0.49999   0.45127   0.00000  Uiso   1.00
O659   O     0.90839   0.50001   0.54873   0.00000  Uiso   1.00
O660   O     0.79620   0.39878   0.62551   0.00000  Uiso   1.00
C661   C     0.16657   0.75411   0.50017   0.00000  Uiso   1.00
C662   C     0.18348   0.68778   0.54148   0.00000  Uiso   1.00
C663   C     0.16704   0.95720   0.49974   0.00000  Uiso   1.00
C664   C     0.16655   0.70945   0.50023   0.00000  Uiso   1.00
C665   C     0.14230   0.80261   0.35629   0.00000  Uiso   1.00
C666   C     0.19087   0.86413   0.64368   0.00000  Uiso   1.00
C667   C     0.14196   0.80233   0.64034   0.00000  Uiso   1.00
C668   C     0.19139   0.86436   0.35962   0.00000  Uiso   1.00
C669   C     0.11470   0.76703   0.61584   0.00000  Uiso   1.00
C670   C     0.21912   0.89958   0.38394   0.00000  Uiso   1.00
C671   C     0.16684   0.91255   0.49983   0.00000  Uiso   1.00
C672   C     0.06805   0.83326   0.48805   0.00000  Uiso   1.00
C673   C     0.26528   0.83354   0.51194   0.00000  Uiso   1.00
C674   C     0.01281   0.83291   0.48147   0.00000  Uiso   1.00
C675   C     0.32051   0.83414   0.51850   0.00000  Uiso   1.00
C676   C     0.15011   0.68823   0.45866   0.00000  Uiso   1.00
C677   C     0.18357   0.97843   0.54129   0.00000  Uiso   1.00
C678   C     0.15027   0.97888   0.45845   0.00000  Uiso   1.00
Cu679  Cu    0.16667   0.83334   0.54689   0.00000  Uiso   1.00
Cu680  Cu    0.16667   0.83333   0.45311   0.00000  Uiso   1.00
H681   H     0.13665   0.70456   0.42648   0.00000  Uiso   1.00
H682   H     0.22849   0.96146   0.38749   0.00000  Uiso   1.00
H683   H     0.19706   0.96209   0.57346   0.00000  Uiso   1.00
H684   H     0.13660   0.96287   0.42629   0.00000  Uiso   1.00
H685   H     0.19738   0.70377   0.57357   0.00000  Uiso   1.00
H686   H     0.12252   0.77821   0.37344   0.00000  Uiso   1.00
H687   H     0.21064   0.88851   0.62648   0.00000  Uiso   1.00
H688   H     0.32648   0.83144   0.44586   0.00000  Uiso   1.00
H689   H     0.00682   0.83574   0.55410   0.00000  Uiso   1.00
H690   H     0.05432   0.74605   0.57114   0.00000  Uiso   1.00
N691   N     0.16668   0.83334   0.61736   0.00000  Uiso   1.00
N692   N     0.16665   0.83332   0.38264   0.00000  Uiso   1.00
O693   O     0.16666   0.77322   0.53958   0.00000  Uiso   1.00
O694   O     0.06979   0.77286   0.58493   0.00000  Uiso   1.00
O695   O     0.25557   0.89406   0.41415   0.00000  Uiso   1.00
O696   O     0.20606   0.93968   0.36928   0.00000  Uiso   1.00
O697   O     0.16667   0.89345   0.46042   0.00000  Uiso   1.00
O698   O     0.16666   0.77321   0.46039   0.00000  Uiso   1.00
O699   O     0.16667   0.89346   0.53961   0.00000  Uiso   1.00
O700   O     0.09161   0.83334   0.53046   0.00000  Uiso   1.00
O701   O     0.24172   0.83333   0.46954   0.00000  Uiso   1.00
O702   O     0.09161   0.83333   0.45127   0.00000  Uiso   1.00
O703   O     0.24172   0.83334   0.54873   0.00000  Uiso   1.00
O704   O     0.12953   0.73211   0.62551   0.00000  Uiso   1.00
C705   C     0.49991   0.75411   0.50017   0.00000  Uiso   1.00
C706   C     0.51681   0.68778   0.54148   0.00000  Uiso   1.00
C707   C     0.50037   0.95720   0.49974   0.00000  Uiso   1.00
C708   C     0.49988   0.70945   0.50023   0.00000  Uiso   1.00
C709   C     0.47564   0.80261   0.35629   0.00000  Uiso   1.00
C710   C     0.52420   0.86413   0.64368   0.00000  Uiso   1.00
C711   C     0.47529   0.80233   0.64034   0.00000  Uiso   1.00
C712   C     0.52473   0.86436   0.35962   0.00000  Uiso   1.00
C713   C     0.44804   0.76703   0.61584   0.00000  Uiso   1.00
C714   C     0.55246   0.89958   0.38394   0.00000  Uiso   1.00
C715   C     0.50017   0.91255   0.49983   0.00000  Uiso   1.00
C716   C     0.40139   0.83326   0.48805   0.00000  Uiso   1.00
C717   C     0.59861   0.83354   0.51194   0.00000  Uiso   1.00
C718   C     0.34614   0.83291   0.48147   0.00000  Uiso   1.00
C719   C     0.65384   0.83414   0.51850   0.00000  Uiso   1.00
C720   C     0.48344   0.68823   0.45866   0.00000  Uiso   1.00
C721   C     0.51690   0.97843   0.54129   0.00000  Uiso   1.00
C722   C     0.48360   0.97888   0.45845   0.00000  Uiso   1.00
Cu723  Cu    0.50000   0.83334   0.54689   0.00000  Uiso   1.00
Cu724  Cu    0.50000   0.83333   0.45311   0.00000  Uiso   1.00
H725   H     0.46998   0.70456   0.42648   0.00000  Uiso   1.00
H726   H     0.56182   0.96146   0.38749   0.00000  Uiso   1.00
H727   H     0.53040   0.96209   0.57346   0.00000  Uiso   1.00
H728   H     0.46993   0.96287   0.42629   0.00000  Uiso   1.00
H729   H     0.53071   0.70377   0.57357   0.00000  Uiso   1.00
H730   H     0.45586   0.77821   0.37344   0.00000  Uiso   1.00
H731   H     0.54397   0.88851   0.62648   0.00000  Uiso   1.00
H732   H     0.65981   0.83144   0.44586   0.00000  Uiso   1.00
H733   H     0.34016   0.83574   0.55410   0.00000  Uiso   1.00
H734   H     0.38765   0.74605   0.57114   0.00000  Uiso   1.00
N735   N     0.50001   0.83334   0.61736   0.00000  Uiso   1.00
N736   N     0.49999   0.83332   0.38264   0.00000  Uiso   1.00
O737   O     0.50000   0.77322   0.53958   0.00000  Uiso   1.00
O738   O     0.40313   0.77286   0.58493   0.00000  Uiso   1.00
O739   O     0.58890   0.89406   0.41415   0.00000  Uiso   1.00
O740   O     0.53940   0.93968   0.36928   0.00000  Uiso   1.00
O741   O     0.50000   0.89345   0.46042   0.00000  Uiso   1.00
O742   O     0.50000   0.77321   0.46039   0.00000  Uiso   1.00
O743   O     0.50000   0.89346   0.53961   0.00000  Uiso   1.00
O744   O     0.42495   0.83334   0.53046   0.00000  Uiso   1.00
O745   O     0.57505   0.83333   0.46954   0.00000  Uiso   1.00
O746   O     0.42494   0.83333   0.45127   0.00000  Uiso   1.00
O747   O     0.57506   0.83334   0.54873   0.00000  Uiso   1.00
O748   O     0.46286   0.73211   0.62551   0.00000  Uiso   1.00
C749   C     0.83324   0.75411   0.50017   0.00000  Uiso   1.00
C750   C     0.85015   0.68778   0.54148   0.00000  Uiso   1.00
C751   C     0.83370   0.95720   0.49974   0.00000  Uiso   1.00
C752   C     0.83322   0.70945   0.50023   0.00000  Uiso   1.00
C753   C     0.80897   0.80261   0.35629   0.00000  Uiso   1.00
C754   C     0.85754   0.86413   0.64368   0.00000  Uiso   1.00
C755   C     0.80863   0.80233   0.64034   0.00000  Uiso   1.00
C756   C     0.85806   0.86436   0.35962   0.00000  Uiso   1.00
C757   C     0.78137   0.76703   0.61584   0.00000  Uiso   1.00
C758   C     0.88579   0.89958   0.38394   0.00000  Uiso   1.00
C759   C     0.83350   0.91255   0.49983   0.00000  Uiso   1.00
C760   C     0.73472   0.83326   0.48805   0.00000  Uiso   1.00
C761   C     0.93194   0.83354   0.51194   0.00000  Uiso   1.00
C762   C     0.67948   0.83291   0.48147   0.00000  Uiso   1.00
C763   C     0.98718   0.83414   0.51850   0.00000  Uiso   1.00
C764   C     0.81678   0.68823   0.45866   0.00000  Uiso   1.00
C765   C     0.85023   0.97843   0.54129   0.00000  Uiso   1.00
C766   C     0.81694   0.97888   0.45845   0.00000  Uiso   1.00
Cu767  Cu    0.83333   0.83334   0.54689   0.00000  Uiso   1.00
Cu768  Cu    0.83333   0.83333   0.45311   0.00000  Uiso   1.00
H769   H     0.80331   0.70456   0.42648   0.00000  Uiso   1.00
H770   H     0.89515   0.96146   0.38749   0.00000  Uiso   1.00
H771   H     0.86373   0.96209   0.57346   0.00000  Uiso   1.00
H772   H     0.80327   0.96287   0.42629   0.00000  Uiso   1.00
H773   H     0.86405   0.70377   0.57357   0.00000  Uiso   1.00
H774   H     0.78919   0.77821   0.37344   0.00000  Uiso   1.00
H775   H     0.87730   0.88851   0.62648   0.00000  Uiso   1.00
H776   H     0.99314   0.83144   0.44586   0.00000  Uiso   1.00
H777   H     0.67349   0.83574   0.55410   0.00000  Uiso   1.00
H778   H     0.72099   0.74605   0.57114   0.00000  Uiso   1.00
N779   N     0.83335   0.83334   0.61736   0.00000  Uiso   1.00
N780   N     0.83332   0.83332   0.38264   0.00000  Uiso   1.00
O781   O     0.83333   0.77322   0.53958   0.00000  Uiso   1.00
O782   O     0.73646   0.77286   0.58493   0.00000  Uiso   1.00
O783   O     0.92224   0.89406   0.41415   0.00000  Uiso   1.00
O784   O     0.87273   0.93968   0.36928   0.00000  Uiso   1.00
O785   O     0.83334   0.89345   0.46042   0.00000  Uiso   1.00
O786   O     0.83333   0.77321   0.46039   0.00000  Uiso   1.00
O787   O     0.83334   0.89346   0.53961   0.00000  Uiso   1.00
O788   O     0.75828   0.83334   0.53046   0.00000  Uiso   1.00
O789   O     0.90839   0.83333   0.46954   0.00000  Uiso   1.00
O790   O     0.75828   0.83333   0.45127   0.00000  Uiso   1.00
O791   O     0.90839   0.83334   0.54873   0.00000  Uiso   1.00
O792   O     0.79620   0.73211   0.62551   0.00000  Uiso   1.00
C793   C     0.16657   0.08744   0.83350   0.00000  Uiso   1.00
C794   C     0.18348   0.02111   0.87481   0.00000  Uiso   1.00
C795   C     0.16704   0.29054   0.83307   0.00000  Uiso   1.00
C796   C     0.16655   0.04279   0.83356   0.00000  Uiso   1.00
C797   C     0.14230   0.13594   0.68962   0.00000  Uiso   1.00
C798   C     0.19087   0.19747   0.97701   0.00000  Uiso   1.00
C799   C     0.14196   0.13566   0.97368   0.00000  Uiso   1.00
C800   C     0.19139   0.19769   0.69296   0.00000  Uiso   1.00
C801   C     0.11470   0.10036   0.94918   0.00000  Uiso   1.00
C802   C     0.21912   0.23292   0.71728   0.00000  Uiso   1.00
C803   C     0.16684   0.24589   0.83317   0.00000  Uiso   1.00
C804   C     0.06805   0.16659   0.82139   0.00000  Uiso   1.00
C805   C     0.26528   0.16688   0.84527   0.00000  Uiso   1.00
C806   C     0.01281   0.16624   0.81480   0.00000  Uiso   1.00
C807   C     0.32051   0.16748   0.85183   0.00000  Uiso   1.00
C808   C     0.15011   0.02156   0.79199   0.00000  Uiso   1.00
C809   C     0.18357   0.31176   0.87462   0.00000  Uiso   1.00
C810   C     0.15027   0.31221   0.79178   0.00000  Uiso   1.00
Cu811  Cu    0.16667   0.16667   0.88022   0.00000  Uiso   1.00
Cu812  Cu    0.16667   0.16666   0.78645   0.00000  Uiso   1.00
H813   H     0.13665   0.03790   0.75981   0.00000  Uiso   1.00
H814   H     0.22849   0.29479   0.72082   0.00000  Uiso   1.00
H815   H     0.19706   0.29542   0.90679   0.00000  Uiso   1.00
H816   H     0.13660   0.29620   0.75962   0.00000  Uiso   1.00
H817   H     0.19738   0.03711   0.90691   0.00000  Uiso   1.00
H818   H     0.12252   0.11155   0.70677   0.00000  Uiso   1.00
H819   H     0.21064   0.22185   0.95982   0.00000  Uiso   1.00
H820   H     0.32648   0.16477   0.77919   0.00000  Uiso   1.00
H821   H     0.00682   0.16908   0.88743   0.00000  Uiso   1.00
H822   H     0.05432   0.07938   0.90447   0.00000  Uiso   1.00
N823   N     0.16668   0.16668   0.95069   0.00000  Uiso   1.00
N824   N     0.16665   0.16666   0.71597   0.00000  Uiso   1.00
O825   O     0.16666   0.10655   0.87291   0.00000  Uiso   1.00
O826   O     0.06979   0.10620   0.91826   0.00000  Uiso   1.00
O827   O     0.25557   0.22739   0.74749   0.00000  Uiso   1.00
O828   O     0.20606   0.27301   0.70261   0.00000  Uiso   1.00
O829   O     0.16667   0.22678   0.79375   0.00000  Uiso   1.00
O830   O     0.16666   0.10654   0.79372   0.00000  Uiso   1.00
O831   O     0.16667   0.22679   0.87294   0.00000  Uiso   1.00
O832   O     0.09161   0.16667   0.86379   0.00000  Uiso   1.00
O833   O     0.24172   0.16666   0.80288   0.00000  Uiso   1.00
O834   O     0.09161   0.16666   0.78460   0.00000  Uiso   1.00
O835   O     0.24172   0.16667   0.88207   0.00000  Uiso   1.00
O836   O     0.12953   0.06545   0.95885   0.00000  Uiso   1.00
C837   C     0.49991   0.08744   0.83350   0.00000  Uiso   1.00
C838   C     0.51681   0.02111   0.87481   0.00000  Uiso   1.00
C839   C     0.50037   0.29054   0.83307   0.00000  Uiso   1.00
C840   C     0.49988   0.04279   0.83356   0.00000  Uiso   1.00
C841   C     0.47564   0.13594   0.68962   0.00000  Uiso   1.00
C842   C     0.52420   0.19747   0.97701   0.00000  Uiso   1.00
C843   C     0.47529   0.13566   0.97368   0.00000  Uiso   1.00
C844   C     0.52473   0.19769   0.69296   0.00000  Uiso   1.00
C845   C     0.44804   0.10036   0.94918   0.00000  Uiso   1.00
C846   C     0.55246   0.23292   0.71728   0.00000  Uiso   1.00
C847   C     0.50017   0.24589   0.83317   0.00000  Uiso   1.00
C848   C     0.40139   0.16659   0.82139   0.00000  Uiso   1.00
C849   C     0.59861   0.16688   0.84527   0.00000  Uiso   1.00
C850   C     0.34614   0.16624   0.81480   0.00000  Uiso   1.00
C851   C     0.65384   0.16748   0.85183   0.00000  Uiso   1.00
C852   C     0.48344   0.02156   0.79199   0.00000  Uiso   1.00
C853   C     0.51690   0.31176   0.87462   0.00000  Uiso   1.00
C854   C     0.48360   0.31221   0.79178   0.00000  Uiso   1.00
Cu855  Cu    0.50000   0.16667   0.88022   0.00000  Uiso   1.00
Cu856  Cu    0.50000   0.16666   0.78645   0.00000  Uiso   1.00
H857   H     0.46998   0.03790   0.75981   0.00000  Uiso   1.00
H858   H     0.56182   0.29479   0.72082   0.00000  Uiso   1.00
H859   H     0.53040   0.29542   0.90679   0.00000  Uiso   1.00
H860   H     0.46993   0.29620   0.75962   0.00000  Uiso   1.00
H861   H     0.53071   0.03711   0.90691   0.00000  Uiso   1.00
H862   H     0.45586   0.11155   0.70677   0.00000  Uiso   1.00
H863   H     0.54397   0.22185   0.95982   0.00000  Uiso   1.00
H864   H     0.65981   0.16477   0.77919   0.00000  Uiso   1.00
H865   H     0.34016   0.16908   0.88743   0.00000  Uiso   1.00
H866   H     0.38765   0.07938   0.90447   0.00000  Uiso   1.00
N867   N     0.50001   0.16668   0.95069   0.00000  Uiso   1.00
N868   N     0.49999   0.16666   0.71597   0.00000  Uiso   1.00
O869   O     0.50000   0.10655   0.87291   0.00000  Uiso   1.00
O870   O     0.40313   0.10620   0.91826   0.00000  Uiso   1.00
O871   O     0.58890   0.22739   0.74749   0.00000  Uiso   1.00
O872   O     0.53940   0.27301   0.70261   0.00000  Uiso   1.00
O873   O     0.50000   0.22678   0.79375   0.00000  Uiso   1.00
O874   O     0.50000   0.10654   0.79372   0.00000  Uiso   1.00
O875   O     0.50000   0.22679   0.87294   0.00000  Uiso   1.00
O876   O     0.42495   0.16667   0.86379   0.00000  Uiso   1.00
O877   O     0.57505   0.16666   0.80288   0.00000  Uiso   1.00
O878   O     0.42494   0.16666   0.78460   0.00000  Uiso   1.00
O879   O     0.57506   0.16667   0.88207   0.00000  Uiso   1.00
O880   O     0.46286   0.06545   0.95885   0.00000  Uiso   1.00
C881   C     0.83324   0.08744   0.83350   0.00000  Uiso   1.00
C882   C     0.85015   0.02111   0.87481   0.00000  Uiso   1.00
C883   C     0.83370   0.29054   0.83307   0.00000  Uiso   1.00
C884   C     0.83322   0.04279   0.83356   0.00000  Uiso   1.00
C885   C     0.80897   0.13594   0.68962   0.00000  Uiso   1.00
C886   C     0.85754   0.19747   0.97701   0.00000  Uiso   1.00
C887   C     0.80863   0.13566   0.97368   0.00000  Uiso   1.00
C888   C     0.85806   0.19769   0.69296   0.00000  Uiso   1.00
C889   C     0.78137   0.10036   0.94918   0.00000  Uiso   1.00
C890   C     0.88579   0.23292   0.71728   0.00000  Uiso   1.00
C891   C     0.83350   0.24589   0.83317   0.00000  Uiso   1.00
C892   C     0.73472   0.16659   0.82139   0.00000  Uiso   1.00
C893   C     0.93194   0.16688   0.84527   0.00000  Uiso   1.00
C894   C     0.67948   0.16624   0.81480   0.00000  Uiso   1.00
C895   C     0.98718   0.16748   0.85183   0.00000  Uiso   1.00
C896   C     0.81678   0.02156   0.79199   0.00000  Uiso   1.00
C897   C     0.85023   0.31176   0.87462   0.00000  Uiso   1.00
C898   C     0.81694   0.31221   0.79178   0.00000  Uiso   1.00
Cu899  Cu    0.83333   0.16667   0.88022   0.00000  Uiso   1.00
Cu900  Cu    0.83333   0.16666   0.78645   0.00000  Uiso   1.00
H901   H     0.80331   0.03790   0.75981   0.00000  Uiso   1.00
H902   H     0.89515   0.29479   0.72082   0.00000  Uiso   1.00
H903   H     0.86373   0.29542   0.90679   0.00000  Uiso   1.00
H904   H     0.80327   0.29620   0.75962   0.00000  Uiso   1.00
H905   H     0.86405   0.03711   0.90691   0.00000  Uiso   1.00
H906   H     0.78919   0.11155   0.70677   0.00000  Uiso   1.00
H907   H     0.87730   0.22185   0.95982   0.00000  Uiso   1.00
H908   H     0.99314   0.16477   0.77919   0.00000  Uiso   1.00
H909   H     0.67349   0.16908   0.88743   0.00000  Uiso   1.00
H910   H     0.72099   0.07938   0.90447   0.00000  Uiso   1.00
N911   N     0.83335   0.16668   0.95069   0.00000  Uiso   1.00
N912   N     0.83332   0.16666   0.71597   0.00000  Uiso   1.00
O913   O     0.83333   0.10655   0.87291   0.00000  Uiso   1.00
O914   O     0.73646   0.10620   0.91826   0.00000  Uiso   1.00
O915   O     0.92224   0.22739   0.74749   0.00000  Uiso   1.00
O916   O     0.87273   0.27301   0.70261   0.00000  Uiso   1.00
O917   O     0.83334   0.22678   0.79375   0.00000  Uiso   1.00
O918   O     0.83333   0.10654   0.79372   0.00000  Uiso   1.00
O919   O     0.83334   0.22679   0.87294   0.00000  Uiso   1.00
O920   O     0.75828   0.16667   0.86379   0.00000  Uiso   1.00
O921   O     0.90839   0.16666   0.80288   0.00000  Uiso   1.00
O922   O     0.75828   0.16666   0.78460   0.00000  Uiso   1.00
O923   O     0.90839   0.16667   0.88207   0.00000  Uiso   1.00
O924   O     0.79620   0.06545   0.95885   0.00000  Uiso   1.00
C925   C     0.16657   0.42078   0.83350   0.00000  Uiso   1.00
C926   C     0.18348   0.35445   0.87481   0.00000  Uiso   1.00
C927   C     0.16704   0.62387   0.83307   0.00000  Uiso   1.00
C928   C     0.16655   0.37612   0.83356   0.00000  Uiso   1.00
C929   C     0.14230   0.46927   0.68962   0.00000  Uiso   1.00
C930   C     0.19087   0.53080   0.97701   0.00000  Uiso   1.00
C931   C     0.14196   0.46899   0.97368   0.00000  Uiso   1.00
C932   C     0.19139   0.53102   0.69296   0.00000  Uiso   1.00
C933   C     0.11470   0.43370   0.94918   0.00000  Uiso   1.00
C934   C     0.21912   0.56625   0.71728   0.00000  Uiso   1.00
C935   C     0.16684   0.57922   0.83317   0.00000  Uiso   1.00
C936   C     0.06805   0.49992   0.82139   0.00000  Uiso   1.00
C937   C     0.26528   0.50021   0.84527   0.00000  Uiso   1.00
C938   C     0.01281   0.49957   0.81480   0.00000  Uiso   1.00
C939   C     0.32051   0.50081   0.85183   0.00000  Uiso   1.00
C940   C     0.15011   0.35490   0.79199   0.00000  Uiso   1.00
C941   C     0.18357   0.64509   0.87462   0.00000  Uiso   1.00
C942   C     0.15027   0.64554   0.79178   0.00000  Uiso   1.00
Cu943  Cu    0.16667   0.50001   0.88022   0.00000  Uiso   1.00
Cu944  Cu    0.16667   0.49999   0.78645   0.00000  Uiso   1.00
H945   H     0.13665   0.37123   0.75981   0.00000  Uiso   1.00
H946   H     0.22849   0.62812   0.72082   0.00000  Uiso   1.00
H947   H     0.19706   0.62875   0.90679   0.00000  Uiso   1.00
H948   H     0.13660   0.62954   0.75962   0.00000  Uiso   1.00
H949   H     0.19738   0.37044   0.90691   0.00000  Uiso   1.00
H950   H     0.12252   0.44488   0.70677   0.00000  Uiso   1.00
H951   H     0.21064   0.55518   0.95982   0.00000  Uiso   1.00
H952   H     0.32648   0.49811   0.77919   0.00000  Uiso   1.00
H953   H     0.00682   0.50241   0.88743   0.00000  Uiso   1.00
H954   H     0.05432   0.41271   0.90447   0.00000  Uiso   1.00
N955   N     0.16668   0.50001   0.95069   0.00000  Uiso   1.00
N956   N     0.16665   0.49999   0.71597   0.00000  Uiso   1.00
O957   O     0.16666   0.43989   0.87291   0.00000  Uiso   1.00
O958   O     0.06979   0.43953   0.91826   0.00000  Uiso   1.00
O959   O     0.25557   0.56073   0.74749   0.00000  Uiso   1.00
O960   O     0.20606   0.60634   0.70261   0.00000  Uiso   1.00
O961   O     0.16667   0.56011   0.79375   0.00000  Uiso   1.00
O962   O     0.16666   0.43988   0.79372   0.00000  Uiso   1.00
O963   O     0.16667   0.56012   0.87294   0.00000  Uiso   1.00
O964   O     0.09161   0.50000   0.86379   0.00000  Uiso   1.00
O965   O     0.24172   0.50000   0.80288   0.00000  Uiso   1.00
O966   O     0.09161   0.49999   0.78460   0.00000  Uiso   1.00
O967   O     0.24172   0.50001   0.88207   0.00000  Uiso   1.00
O968   O     0.12953   0.39878   0.95885   0.00000  Uiso   1.00
C969   C     0.49991   0.42078   0.83350   0.00000  Uiso   1.00
C970   C     0.51681   0.35445   0.87481   0.00000  Uiso   1.00
C971   C     0.50037   0.62387   0.83307   0.00000  Uiso   1.00
C972   C     0.49988   0.37612   0.83356   0.00000  Uiso   1.00
C973   C     0.47564   0.46927   0.68962   0.00000  Uiso   1.00
C974   C     0.52420   0.53080   0.97701   0.00000  Uiso   1.00
C975   C     0.47529   0.46899   0.97368   0.00000  Uiso   1.00
C976   C     0.52473   0.53102   0.69296   0.00000  Uiso   1.00
C977   C     0.44804   0.43370   0.94918   0.00000  Uiso   1.00
C978   C     0.55246   0.56625   0.71728   0.00000  Uiso   1.00
C979   C     0.50017   0.57922   0.83317   0.00000  Uiso   1.00
C980   C     0.40139   0.49992   0.82139   0.00000  Uiso   1.00
C981   C     0.59861   0.50021   0.84527   0.00000  Uiso   1.00
C982   C     0.34614   0.49957   0.81480   0.00000  Uiso   1.00
C983   C     0.65384   0.50081   0.85183   0.00000  Uiso   1.00
C984   C     0.48344   0.35490   0.79199   0.00000  Uiso   1.00
C985   C     0.51690   0.64509   0.87462   0.00000  Uiso   1.00
C986   C     0.48360   0.64554   0.79178   0.00000  Uiso   1.00
Cu987  Cu    0.50000   0.50001   0.88022   0.00000  Uiso   1.00
Cu988  Cu    0.50000   0.49999   0.78645   0.00000  Uiso   1.00
H989   H     0.46998   0.37123   0.75981   0.00000  Uiso   1.00
H990   H     0.56182   0.62812   0.72082   0.00000  Uiso   1.00
H991   H     0.53040   0.62875   0.90679   0.00000  Uiso   1.00
H992   H     0.46993   0.62954   0.75962   0.00000  Uiso   1.00
H993   H     0.53071   0.37044   0.90691   0.00000  Uiso   1.00
H994   H     0.45586   0.44488   0.70677   0.00000  Uiso   1.00
H995   H     0.54397   0.55518   0.95982   0.00000  Uiso   1.00
H996   H     0.65981   0.49811   0.77919   0.00000  Uiso   1.00
H997   H     0.34016   0.50241   0.88743   0.00000  Uiso   1.00
H998   H     0.38765   0.41271   0.90447   0.00000  Uiso   1.00
N999   N     0.50001   0.50001   0.95069   0.00000  Uiso   1.00
N1000  N     0.49999   0.49999   0.71597   0.00000  Uiso   1.00
O1001  O     0.50000   0.43989   0.87291   0.00000  Uiso   1.00
O1002  O     0.40313   0.43953   0.91826   0.00000  Uiso   1.00
O1003  O     0.58890   0.56073   0.74749   0.00000  Uiso   1.00
O1004  O     0.53940   0.60634   0.70261   0.00000  Uiso   1.00
O1005  O     0.50000   0.56011   0.79375   0.00000  Uiso   1.00
O1006  O     0.50000   0.43988   0.79372   0.00000  Uiso   1.00
O1007  O     0.50000   0.56012   0.87294   0.00000  Uiso   1.00
O1008  O     0.42495   0.50000   0.86379   0.00000  Uiso   1.00
O1009  O     0.57505   0.50000   0.80288   0.00000  Uiso   1.00
O1010  O     0.42494   0.49999   0.78460   0.00000  Uiso   1.00
O1011  O     0.57506   0.50001   0.88207   0.00000  Uiso   1.00
O1012  O     0.46286   0.39878   0.95885   0.00000  Uiso   1.00
C1013  C     0.83324   0.42078   0.83350   0.00000  Uiso   1.00
C1014  C     0.85015   0.35445   0.87481   0.00000  Uiso   1.00
C1015  C     0.83370   0.62387   0.83307   0.00000  Uiso   1.00
C1016  C     0.83322   0.37612   0.83356   0.00000  Uiso   1.00
C1017  C     0.80897   0.46927   0.68962   0.00000  Uiso   1.00
C1018  C     0.85754   0.53080   0.97701   0.00000  Uiso   1.00
C1019  C     0.80863   0.46899   0.97368   0.00000  Uiso   1.00
C1020  C     0.85806   0.53102   0.69296   0.00000  Uiso   1.00
C1021  C     0.78137   0.43370   0.94918   0.00000  Uiso   1.00
C1022  C     0.88579   0.56625   0.71728   0.00000  Uiso   1.00
C1023  C     0.83350   0.57922   0.83317   0.00000  Uiso   1.00
C1024  C     0.73472   0.49992   0.82139   0.00000  Uiso   1.00
C1025  C     0.93194   0.50021   0.84527   0.00000  Uiso   1.00
C1026  C     0.67948   0.49957   0.81480   0.00000  Uiso   1.00
C1027  C     0.98718   0.50081   0.85183   0.00000  Uiso   1.00
C1028  C     0.81678   0.35490   0.79199   0.00000  Uiso   1.00
C1029  C     0.85023   0.64509   0.87462   0.00000  Uiso   1.00
C1030  C     0.81694   0.64554   0.79178   0.00000  Uiso   1.00
Cu1031 Cu    0.83333   0.50001   0.88022   0.00000  Uiso   1.00
Cu1032 Cu    0.83333   0.49999   0.78645   0.00000  Uiso   1.00
H1033  H     0.80331   0.37123   0.75981   0.00000  Uiso   1.00
H1034  H     0.89515   0.62812   0.72082   0.00000  Uiso   1.00
H1035  H     0.86373   0.62875   0.90679   0.00000  Uiso   1.00
H1036  H     0.80327   0.62954   0.75962   0.00000  Uiso   1.00
H1037  H     0.86405   0.37044   0.90691   0.00000  Uiso   1.00
H1038  H     0.78919   0.44488   0.70677   0.00000  Uiso   1.00
H1039  H     0.87730   0.55518   0.95982   0.00000  Uiso   1.00
H1040  H     0.99314   0.49811   0.77919   0.00000  Uiso   1.00
H1041  H     0.67349   0.50241   0.88743   0.00000  Uiso   1.00
H1042  H     0.72099   0.41271   0.90447   0.00000  Uiso   1.00
N1043  N     0.83335   0.50001   0.95069   0.00000  Uiso   1.00
N1044  N     0.83332   0.49999   0.71597   0.00000  Uiso   1.00
O1045  O     0.83333   0.43989   0.87291   0.00000  Uiso   1.00
O1046  O     0.73646   0.43953   0.91826   0.00000  Uiso   1.00
O1047  O     0.92224   0.56073   0.74749   0.00000  Uiso   1.00
O1048  O     0.87273   0.60634   0.70261   0.00000  Uiso   1.00
O1049  O     0.83334   0.56011   0.79375   0.00000  Uiso   1.00
O1050  O     0.83333   0.43988   0.79372   0.00000  Uiso   1.00
O1051  O     0.83334   0.56012   0.87294   0.00000  Uiso   1.00
O1052  O     0.75828   0.50000   0.86379   0.00000  Uiso   1.00
O1053  O     0.90839   0.50000   0.80288   0.00000  Uiso   1.00
O1054  O     0.75828   0.49999   0.78460   0.00000  Uiso   1.00
O1055  O     0.90839   0.50001   0.88207   0.00000  Uiso   1.00
O1056  O     0.79620   0.39878   0.95885   0.00000  Uiso   1.00
C1057  C     0.16657   0.75411   0.83350   0.00000  Uiso   1.00
C1058  C     0.18348   0.68778   0.87481   0.00000  Uiso   1.00
C1059  C     0.16704   0.95720   0.83307   0.00000  Uiso   1.00
C1060  C     0.16655   0.70945   0.83356   0.00000  Uiso   1.00
C1061  C     0.14230   0.80261   0.68962   0.00000  Uiso   1.00
C1062  C     0.19087   0.86413   0.97701   0.00000  Uiso   1.00
C1063  C     0.14196   0.80233   0.97368   0.00000  Uiso   1.00
C1064  C     0.19139   0.86436   0.69296   0.00000  Uiso   1.00
C1065  C     0.11470   0.76703   0.94918   0.00000  Uiso   1.00
C1066  C     0.21912   0.89958   0.71728   0.00000  Uiso   1.00
C1067  C     0.16684   0.91255   0.83317   0.00000  Uiso   1.00
C1068  C     0.06805   0.83326   0.82139   0.00000  Uiso   1.00
C1069  C     0.26528   0.83354   0.84527   0.00000  Uiso   1.00
C1070  C     0.01281   0.83291   0.81480   0.00000  Uiso   1.00
C1071  C     0.32051   0.83414   0.85183   0.00000  Uiso   1.00
C1072  C     0.15011   0.68823   0.79199   0.00000  Uiso   1.00
C1073  C     0.18357   0.97843   0.87462   0.00000  Uiso   1.00
C1074  C     0.15027   0.97888   0.79178   0.00000  Uiso   1.00
Cu1075 Cu    0.16667   0.83334   0.88022   0.00000  Uiso   1.00
Cu1076 Cu    0.16667   0.83333   0.78645   0.00000  Uiso   1.00
H1077  H     0.13665   0.70456   0.75981   0.00000  Uiso   1.00
H1078  H     0.22849   0.96146   0.72082   0.00000  Uiso   1.00
H1079  H     0.19706   0.96209   0.90679   0.00000  Uiso   1.00
H1080  H     0.13660   0.96287   0.75962   0.00000  Uiso   1.00
H1081  H     0.19738   0.70377   0.90691   0.00000  Uiso   1.00
H1082  H     0.12252   0.77821   0.70677   0.00000  Uiso   1.00
H1083  H     0.21064   0.88851   0.95982   0.00000  Uiso   1.00
H1084  H     0.32648   0.83144   0.77919   0.00000  Uiso   1.00
H1085  H     0.00682   0.83574   0.88743   0.00000  Uiso   1.00
H1086  H     0.05432   0.74605   0.90447   0.00000  Uiso   1.00
N1087  N     0.16668   0.83334   0.95069   0.00000  Uiso   1.00
N1088  N     0.16665   0.83332   0.71597   0.00000  Uiso   1.00
O1089  O     0.16666   0.77322   0.87291   0.00000  Uiso   1.00
O1090  O     0.06979   0.77286   0.91826   0.00000  Uiso   1.00
O1091  O     0.25557   0.89406   0.74749   0.00000  Uiso   1.00
O1092  O     0.20606   0.93968   0.70261   0.00000  Uiso   1.00
O1093  O     0.16667   0.89345   0.79375   0.00000  Uiso   1.00
O1094  O     0.16666   0.77321   0.79372   0.00000  Uiso   1.00
O1095  O     0.16667   0.89346   0.87294   0.00000  Uiso   1.00
O1096  O     0.09161   0.83334   0.86379   0.00000  Uiso   1.00
O1097  O     0.24172   0.83333   0.80288   0.00000  Uiso   1.00
O1098  O     0.09161   0.83333   0.78460   0.00000  Uiso   1.00
O1099  O     0.24172   0.83334   0.88207   0.00000  Uiso   1.00
O1100  O     0.12953   0.73211   0.95885   0.00000  Uiso   1.00
C1101  C     0.49991   0.75411   0.83350   0.00000  Uiso   1.00
C1102  C     0.51681   0.68778   0.87481   0.00000  Uiso   1.00
C1103  C     0.50037   0.95720   0.83307   0.00000  Uiso   1.00
C1104  C     0.49988   0.70945   0.83356   0.00000  Uiso   1.00
C1105  C     0.47564   0.80261   0.68962   0.00000  Uiso   1.00
C1106  C     0.52420   0.86413   0.97701   0.00000  Uiso   1.00
C1107  C     0.47529   0.80233   0.97368   0.00000  Uiso   1.00
C1108  C     0.52473   0.86436   0.69296   0.00000  Uiso   1.00
C1109  C     0.44804   0.76703   0.94918   0.00000  Uiso   1.00
C1110  C     0.55246   0.89958   0.71728   0.00000  Uiso   1.00
C1111  C     0.50017   0.91255   0.83317   0.00000  Uiso   1.00
C1112  C     0.40139   0.83326   0.82139   0.00000  Uiso   1.00
C1113  C     0.59861   0.83354   0.84527   0.00000  Uiso   1.00
C1114  C     0.34614   0.83291   0.81480   0.00000  Uiso   1.00
C1115  C     0.65384   0.83414   0.85183   0.00000  Uiso   1.00
C1116  C     0.48344   0.68823   0.79199   0.00000  Uiso   1.00
C1117  C     0.51690   0.97843   0.87462   0.00000  Uiso   1.00
C1118  C     0.48360   0.97888   0.79178   0.00000  Uiso   1.00
Cu1119 Cu    0.50000   0.83334   0.88022   0.00000  Uiso   1.00
Cu1120 Cu    0.50000   0.83333   0.78645   0.00000  Uiso   1.00
H1121  H     0.46998   0.70456   0.75981   0.00000  Uiso   1.00
H1122  H     0.56182   0.96146   0.72082   0.00000  Uiso   1.00
H1123  H     0.53040   0.96209   0.90679   0.00000  Uiso   1.00
H1124  H     0.46993   0.96287   0.75962   0.00000  Uiso   1.00
H1125  H     0.53071   0.70377   0.90691   0.00000  Uiso   1.00
H1126  H     0.45586   0.77821   0.70677   0.00000  Uiso   1.00
H1127  H     0.54397   0.88851   0.95982   0.00000  Uiso   1.00
H1128  H     0.65981   0.83144   0.77919   0.00000  Uiso   1.00
H1129  H     0.34016   0.83574   0.88743   0.00000  Uiso   1.00
H1130  H     0.38765   0.74605   0.90447   0.00000  Uiso   1.00
N1131  N     0.50001   0.83334   0.95069   0.00000  Uiso   1.00
N1132  N     0.49999   0.83332   0.71597   0.00000  Uiso   1.00
O1133  O     0.50000   0.77322   0.87291   0.00000  Uiso   1.00
O1134  O     0.40313   0.77286   0.91826   0.00000  Uiso   1.00
O1135  O     0.58890   0.89406   0.74749   0.00000  Uiso   1.00
O1136  O     0.53940   0.93968   0.70261   0.00000  Uiso   1.00
O1137  O     0.50000   0.89345   0.79375   0.00000  Uiso   1.00
O1138  O     0.50000   0.77321   0.79372   0.00000  Uiso   1.00
O1139  O     0.50000   0.89346   0.87294   0.00000  Uiso   1.00
O1140  O     0.42495   0.83334   0.86379   0.00000  Uiso   1.00
O1141  O     0.57505   0.83333   0.80288   0.00000  Uiso   1.00
O1142  O     0.42494   0.83333   0.78460   0.00000  Uiso   1.00
O1143  O     0.57506   0.83334   0.88207   0.00000  Uiso   1.00
O1144  O     0.46286   0.73211   0.95885   0.00000  Uiso   1.00
C1145  C     0.83324   0.75411   0.83350   0.00000  Uiso   1.00
C1146  C     0.85015   0.68778   0.87481   0.00000  Uiso   1.00
C1147  C     0.83370   0.95720   0.83307   0.00000  Uiso   1.00
C1148  C     0.83322   0.70945   0.83356   0.00000  Uiso   1.00
C1149  C     0.80897   0.80261   0.68962   0.00000  Uiso   1.00
C1150  C     0.85754   0.86413   0.97701   0.00000  Uiso   1.00
C1151  C     0.80863   0.80233   0.97368   0.00000  Uiso   1.00
C1152  C     0.85806   0.86436   0.69296   0.00000  Uiso   1.00
C1153  C     0.78137   0.76703   0.94918   0.00000  Uiso   1.00
C1154  C     0.88579   0.89958   0.71728   0.00000  Uiso   1.00
C1155  C     0.83350   0.91255   0.83317   0.00000  Uiso   1.00
C1156  C     0.73472   0.83326   0.82139   0.00000  Uiso   1.00
C1157  C     0.93194   0.83354   0.84527   0.00000  Uiso   1.00
C1158  C     0.67948   0.83291   0.81480   0.00000  Uiso   1.00
C1159  C     0.98718   0.83414   0.85183   0.00000  Uiso   1.00
C1160  C     0.81678   0.68823   0.79199   0.00000  Uiso   1.00
C1161  C     0.85023   0.97843   0.87462   0.00000  Uiso   1.00
C1162  C     0.81694   0.97888   0.79178   0.00000  Uiso   1.00
Cu1163 Cu    0.83333   0.83334   0.88022   0.00000  Uiso   1.00
Cu1164 Cu    0.83333   0.83333   0.78645   0.00000  Uiso   1.00
H1165  H     0.80331   0.70456   0.75981   0.00000  Uiso   1.00
H1166  H     0.89515   0.96146   0.72082   0.00000  Uiso   1.00
H1167  H     0.86373   0.96209   0.90679   0.00000  Uiso   1.00
H1168  H     0.80327   0.96287   0.75962   0.00000  Uiso   1.00
H1169  H     0.86405   0.70377   0.90691   0.00000  Uiso   1.00
H1170  H     0.78919   0.77821   0.70677   0.00000  Uiso   1.00
H1171  H     0.87730   0.88851   0.95982   0.00000  Uiso   1.00
H1172  H     0.99314   0.83144   0.77919   0.00000  Uiso   1.00
H1173  H     0.67349   0.83574   0.88743   0.00000  Uiso   1.00
H1174  H     0.72099   0.74605   0.90447   0.00000  Uiso   1.00
N1175  N     0.83335   0.83334   0.95069   0.00000  Uiso   1.00
N1176  N     0.83332   0.83332   0.71597   0.00000  Uiso   1.00
O1177  O     0.83333   0.77322   0.87291   0.00000  Uiso   1.00
O1178  O     0.73646   0.77286   0.91826   0.00000  Uiso   1.00
O1179  O     0.92224   0.89406   0.74749   0.00000  Uiso   1.00
O1180  O     0.87273   0.93968   0.70261   0.00000  Uiso   1.00
O1181  O     0.83334   0.89345   0.79375   0.00000  Uiso   1.00
O1182  O     0.83333   0.77321   0.79372   0.00000  Uiso   1.00
O1183  O     0.83334   0.89346   0.87294   0.00000  Uiso   1.00
O1184  O     0.75828   0.83334   0.86379   0.00000  Uiso   1.00
O1185  O     0.90839   0.83333   0.80288   0.00000  Uiso   1.00
O1186  O     0.75828   0.83333   0.78460   0.00000  Uiso   1.00
O1187  O     0.90839   0.83334   0.88207   0.00000  Uiso   1.00
O1188  O     0.79620   0.73211   0.95885   0.00000  Uiso   1.00
loop_
_geom_bond_atom_site_label_1
_geom_bond_atom_site_label_2
_geom_bond_distance
_geom_bond_site_symmetry_2
_ccdc_geom_bond_type
C1     C4      1.448   .     S
C1     O33     1.300   .     A
C1     O38     1.294   .     A
C2     C4      1.399   .     A
C2     H25     1.083   .     S
C2     C281    1.384   1_545 S
C3     C17     1.402   .     A
C3     C11     1.448   .     S
C3     C18     1.399   .     A
C4     C16     1.402   .     A
C5     N32     1.356   .     A
C5     H26     1.083   .     S
C5     C799    1.418   1_554 S
C6     H27     1.083   .     S
C6     N31     1.355   .     A
C6     C404    1.417   .     S
C7     C9      1.472   .     S
C7     N31     1.389   .     A
C7     C401    1.418   .     S
C8     C10     1.473   .     S
C8     N32     1.390   .     A
C8     C798    1.417   1_554 S
C9     O34     1.394   .     S
C9     O44     1.223   .     D
C10    O35     1.220   .     D
C10    O36     1.398   .     S
C11    O39     1.295   .     A
C11    O37     1.300   .     A
C12    O40     1.294   .     A
C12    C14     1.433   .     S
C12    O42     1.292   .     A
C13    O41     1.294   .     A
C13    C15     1.433   .     S
C13    O43     1.292   .     A
C14    C103    1.332   1_455 S
C14    H116    1.087   1_455 S
C15    C58     1.332   .     S
C15    H73     1.087   .     S
C16    H21     1.083   .     S
C16    C282    1.384   1_545 S
C17    H23     1.083   .     S
C17    C134    1.384   .     S
C18    H24     1.083   .     S
C18    C148    1.384   .     S
Cu19   N31     2.029   .     S
Cu19   O39     1.958   .     S
Cu19   O40     1.960   .     S
Cu19   O33     1.964   .     S
Cu19   Cu20    2.699   .     S
Cu19   O43     1.958   .     S
Cu20   O42     1.958   .     S
Cu20   O38     1.958   .     S
Cu20   O41     1.960   .     S
Cu20   O37     1.964   .     S
Cu20   N32     2.029   .     S
H22    O36     1.014   .     S
H28    C58     1.087   .     S
H29    C103    1.087   1_455 S
H30    O34     1.014   .     S
C45    C48     1.448   .     S
C45    O77     1.300   .     A
C45    O82     1.294   .     A
C46    C48     1.399   .     A
C46    H69     1.083   .     S
C46    C325    1.384   1_545 S
C47    C61     1.402   .     A
C47    C55     1.448   .     S
C47    C62     1.399   .     A
C48    C60     1.402   .     A
C49    N76     1.356   .     A
C49    H70     1.083   .     S
C49    C843    1.418   1_554 S
C50    H71     1.083   .     S
C50    N75     1.355   .     A
C50    C448    1.417   .     S
C51    C53     1.472   .     S
C51    N75     1.389   .     A
C51    C445    1.418   .     S
C52    C54     1.473   .     S
C52    N76     1.390   .     A
C52    C842    1.417   1_554 S
C53    O78     1.394   .     S
C53    O88     1.223   .     D
C54    O79     1.220   .     D
C54    O80     1.398   .     S
C55    O83     1.295   .     A
C55    O81     1.300   .     A
C56    O84     1.294   .     A
C56    C58     1.433   .     S
C56    O86     1.292   .     A
C57    O85     1.294   .     A
C57    C59     1.433   .     S
C57    O87     1.292   .     A
C59    C102    1.332   .     S
C59    H117    1.087   .     S
C60    H65     1.083   .     S
C60    C326    1.384   1_545 S
C61    H67     1.083   .     S
C61    C178    1.384   .     S
C62    H68     1.083   .     S
C62    C192    1.384   .     S
Cu63   N75     2.029   .     S
Cu63   O83     1.958   .     S
Cu63   O84     1.960   .     S
Cu63   O77     1.964   .     S
Cu63   Cu64    2.699   .     S
Cu63   O87     1.958   .     S
Cu64   O86     1.958   .     S
Cu64   O82     1.958   .     S
Cu64   O85     1.960   .     S
Cu64   O81     1.964   .     S
Cu64   N76     2.029   .     S
H66    O80     1.014   .     S
H72    C102    1.087   .     S
H74    O78     1.014   .     S
C89    C92     1.448   .     S
C89    O121    1.300   .     A
C89    O126    1.294   .     A
C90    C92     1.399   .     A
C90    H113    1.083   .     S
C90    C369    1.384   1_545 S
C91    C105    1.402   .     A
C91    C99     1.448   .     S
C91    C106    1.399   .     A
C92    C104    1.402   .     A
C93    N120    1.356   .     A
C93    H114    1.083   .     S
C93    C887    1.418   1_554 S
C94    H115    1.083   .     S
C94    N119    1.355   .     A
C94    C492    1.417   .     S
C95    C97     1.472   .     S
C95    N119    1.389   .     A
C95    C489    1.418   .     S
C96    C98     1.473   .     S
C96    N120    1.390   .     A
C96    C886    1.417   1_554 S
C97    O122    1.394   .     S
C97    O132    1.223   .     D
C98    O123    1.220   .     D
C98    O124    1.398   .     S
C99    O127    1.295   .     A
C99    O125    1.300   .     A
C100   O128    1.294   .     A
C100   C102    1.433   .     S
C100   O130    1.292   .     A
C101   O129    1.294   .     A
C101   C103    1.433   .     S
C101   O131    1.292   .     A
C103   C14     1.332   1_655 S
C103   H29     1.087   1_655 S
C104   H109    1.083   .     S
C104   C370    1.384   1_545 S
C105   H111    1.083   .     S
C105   C222    1.384   .     S
C106   H112    1.083   .     S
C106   C236    1.384   .     S
Cu107  N119    2.029   .     S
Cu107  O127    1.958   .     S
Cu107  O128    1.960   .     S
Cu107  O121    1.964   .     S
Cu107  Cu108   2.699   .     S
Cu107  O131    1.958   .     S
Cu108  O130    1.958   .     S
Cu108  O126    1.958   .     S
Cu108  O129    1.960   .     S
Cu108  O125    1.964   .     S
Cu108  N120    2.029   .     S
H110   O124    1.014   .     S
H116   C14     1.087   1_655 S
H118   O122    1.014   .     S
C133   C136    1.448   .     S
C133   O165    1.300   .     A
C133   O170    1.294   .     A
C134   C136    1.399   .     A
C134   H157    1.083   .     S
C135   C149    1.402   .     A
C135   C143    1.448   .     S
C135   C150    1.399   .     A
C136   C148    1.402   .     A
C137   N164    1.356   .     A
C137   H158    1.083   .     S
C137   C931    1.418   1_554 S
C138   H159    1.083   .     S
C138   N163    1.355   .     A
C138   C536    1.417   .     S
C139   C141    1.472   .     S
C139   N163    1.389   .     A
C139   C533    1.418   .     S
C140   C142    1.473   .     S
C140   N164    1.390   .     A
C140   C930    1.417   1_554 S
C141   O166    1.394   .     S
C141   O176    1.223   .     D
C142   O167    1.220   .     D
C142   O168    1.398   .     S
C143   O171    1.295   .     A
C143   O169    1.300   .     A
C144   O172    1.294   .     A
C144   C146    1.433   .     S
C144   O174    1.292   .     A
C145   O173    1.294   .     A
C145   C147    1.433   .     S
C145   O175    1.292   .     A
C146   C235    1.332   1_455 S
C146   H248    1.087   1_455 S
C147   C190    1.332   .     S
C147   H205    1.087   .     S
C148   H153    1.083   .     S
C149   H155    1.083   .     S
C149   C266    1.384   .     S
C150   H156    1.083   .     S
C150   C280    1.384   .     S
Cu151  N163    2.029   .     S
Cu151  O171    1.958   .     S
Cu151  O172    1.960   .     S
Cu151  O165    1.964   .     S
Cu151  Cu152   2.699   .     S
Cu151  O175    1.958   .     S
Cu152  O174    1.958   .     S
Cu152  O170    1.958   .     S
Cu152  O173    1.960   .     S
Cu152  O169    1.964   .     S
Cu152  N164    2.029   .     S
H154   O168    1.014   .     S
H160   C190    1.087   .     S
H161   C235    1.087   1_455 S
H162   O166    1.014   .     S
C177   C180    1.448   .     S
C177   O209    1.300   .     A
C177   O214    1.294   .     A
C178   C180    1.399   .     A
C178   H201    1.083   .     S
C179   C193    1.402   .     A
C179   C187    1.448   .     S
C179   C194    1.399   .     A
C180   C192    1.402   .     A
C181   N208    1.356   .     A
C181   H202    1.083   .     S
C181   C975    1.418   1_554 S
C182   H203    1.083   .     S
C182   N207    1.355   .     A
C182   C580    1.417   .     S
C183   C185    1.472   .     S
C183   N207    1.389   .     A
C183   C577    1.418   .     S
C184   C186    1.473   .     S
C184   N208    1.390   .     A
C184   C974    1.417   1_554 S
C185   O210    1.394   .     S
C185   O220    1.223   .     D
C186   O211    1.220   .     D
C186   O212    1.398   .     S
C187   O215    1.295   .     A
C187   O213    1.300   .     A
C188   O216    1.294   .     A
C188   C190    1.433   .     S
C188   O218    1.292   .     A
C189   O217    1.294   .     A
C189   C191    1.433   .     S
C189   O219    1.292   .     A
C191   C234    1.332   .     S
C191   H249    1.087   .     S
C192   H197    1.083   .     S
C193   H199    1.083   .     S
C193   C310    1.384   .     S
C194   H200    1.083   .     S
C194   C324    1.384   .     S
Cu195  N207    2.029   .     S
Cu195  O215    1.958   .     S
Cu195  O216    1.960   .     S
Cu195  O209    1.964   .     S
Cu195  Cu196   2.699   .     S
Cu195  O219    1.958   .     S
Cu196  O218    1.958   .     S
Cu196  O214    1.958   .     S
Cu196  O217    1.960   .     S
Cu196  O213    1.964   .     S
Cu196  N208    2.029   .     S
H198   O212    1.014   .     S
H204   C234    1.087   .     S
H206   O210    1.014   .     S
C221   C224    1.448   .     S
C221   O253    1.300   .     A
C221   O258    1.294   .     A
C222   C224    1.399   .     A
C222   H245    1.083   .     S
C223   C237    1.402   .     A
C223   C231    1.448   .     S
C223   C238    1.399   .     A
C224   C236    1.402   .     A
C225   N252    1.356   .     A
C225   H246    1.083   .     S
C225   C1019   1.418   1_554 S
C226   H247    1.083   .     S
C226   N251    1.355   .     A
C226   C624    1.417   .     S
C227   C229    1.472   .     S
C227   N251    1.389   .     A
C227   C621    1.418   .     S
C228   C230    1.473   .     S
C228   N252    1.390   .     A
C228   C1018   1.417   1_554 S
C229   O254    1.394   .     S
C229   O264    1.223   .     D
C230   O255    1.220   .     D
C230   O256    1.398   .     S
C231   O259    1.295   .     A
C231   O257    1.300   .     A
C232   O260    1.294   .     A
C232   C234    1.433   .     S
C232   O262    1.292   .     A
C233   O261    1.294   .     A
C233   C235    1.433   .     S
C233   O263    1.292   .     A
C235   C146    1.332   1_655 S
C235   H161    1.087   1_655 S
C236   H241    1.083   .     S
C237   H243    1.083   .     S
C237   C354    1.384   .     S
C238   H244    1.083   .     S
C238   C368    1.384   .     S
Cu239  N251    2.029   .     S
Cu239  O259    1.958   .     S
Cu239  O260    1.960   .     S
Cu239  O253    1.964   .     S
Cu239  Cu240   2.699   .     S
Cu239  O263    1.958   .     S
Cu240  O262    1.958   .     S
Cu240  O258    1.958   .     S
Cu240  O261    1.960   .     S
Cu240  O257    1.964   .     S
Cu240  N252    2.029   .     S
H242   O256    1.014   .     S
H248   C146    1.087   1_655 S
H250   O254    1.014   .     S
C265   C268    1.448   .     S
C265   O297    1.300   .     A
C265   O302    1.294   .     A
C266   C268    1.399   .     A
C266   H289    1.083   .     S
C267   C281    1.402   .     A
C267   C275    1.448   .     S
C267   C282    1.399   .     A
C268   C280    1.402   .     A
C269   N296    1.356   .     A
C269   H290    1.083   .     S
C269   C1063   1.418   1_554 S
C270   H291    1.083   .     S
C270   N295    1.355   .     A
C270   C668    1.417   .     S
C271   C273    1.472   .     S
C271   N295    1.389   .     A
C271   C665    1.418   .     S
C272   C274    1.473   .     S
C272   N296    1.390   .     A
C272   C1062   1.417   1_554 S
C273   O298    1.394   .     S
C273   O308    1.223   .     D
C274   O299    1.220   .     D
C274   O300    1.398   .     S
C275   O303    1.295   .     A
C275   O301    1.300   .     A
C276   O304    1.294   .     A
C276   C278    1.433   .     S
C276   O306    1.292   .     A
C277   O305    1.294   .     A
C277   C279    1.433   .     S
C277   O307    1.292   .     A
C278   C367    1.332   1_455 S
C278   H380    1.087   1_455 S
C279   C322    1.332   .     S
C279   H337    1.087   .     S
C280   H285    1.083   .     S
C281   H287    1.083   .     S
C281   C2      1.384   1_565 S
C282   H288    1.083   .     S
C282   C16     1.384   1_565 S
Cu283  N295    2.029   .     S
Cu283  O303    1.958   .     S
Cu283  O304    1.960   .     S
Cu283  O297    1.964   .     S
Cu283  Cu284   2.699   .     S
Cu283  O307    1.958   .     S
Cu284  O306    1.958   .     S
Cu284  O302    1.958   .     S
Cu284  O305    1.960   .     S
Cu284  O301    1.964   .     S
Cu284  N296    2.029   .     S
H286   O300    1.014   .     S
H292   C322    1.087   .     S
H293   C367    1.087   1_455 S
H294   O298    1.014   .     S
C309   C312    1.448   .     S
C309   O341    1.300   .     A
C309   O346    1.294   .     A
C310   C312    1.399   .     A
C310   H333    1.083   .     S
C311   C325    1.402   .     A
C311   C319    1.448   .     S
C311   C326    1.399   .     A
C312   C324    1.402   .     A
C313   N340    1.356   .     A
C313   H334    1.083   .     S
C313   C1107   1.418   1_554 S
C314   H335    1.083   .     S
C314   N339    1.355   .     A
C314   C712    1.417   .     S
C315   C317    1.472   .     S
C315   N339    1.389   .     A
C315   C709    1.418   .     S
C316   C318    1.473   .     S
C316   N340    1.390   .     A
C316   C1106   1.417   1_554 S
C317   O342    1.394   .     S
C317   O352    1.223   .     D
C318   O343    1.220   .     D
C318   O344    1.398   .     S
C319   O347    1.295   .     A
C319   O345    1.300   .     A
C320   O348    1.294   .     A
C320   C322    1.433   .     S
C320   O350    1.292   .     A
C321   O349    1.294   .     A
C321   C323    1.433   .     S
C321   O351    1.292   .     A
C323   C366    1.332   .     S
C323   H381    1.087   .     S
C324   H329    1.083   .     S
C325   H331    1.083   .     S
C325   C46     1.384   1_565 S
C326   H332    1.083   .     S
C326   C60     1.384   1_565 S
Cu327  N339    2.029   .     S
Cu327  O347    1.958   .     S
Cu327  O348    1.960   .     S
Cu327  O341    1.964   .     S
Cu327  Cu328   2.699   .     S
Cu327  O351    1.958   .     S
Cu328  O350    1.958   .     S
Cu328  O346    1.958   .     S
Cu328  O349    1.960   .     S
Cu328  O345    1.964   .     S
Cu328  N340    2.029   .     S
H330   O344    1.014   .     S
H336   C366    1.087   .     S
H338   O342    1.014   .     S
C353   C356    1.448   .     S
C353   O385    1.300   .     A
C353   O390    1.294   .     A
C354   C356    1.399   .     A
C354   H377    1.083   .     S
C355   C369    1.402   .     A
C355   C363    1.448   .     S
C355   C370    1.399   .     A
C356   C368    1.402   .     A
C357   N384    1.356   .     A
C357   H378    1.083   .     S
C357   C1151   1.418   1_554 S
C358   H379    1.083   .     S
C358   N383    1.355   .     A
C358   C756    1.417   .     S
C359   C361    1.472   .     S
C359   N383    1.389   .     A
C359   C753    1.418   .     S
C360   C362    1.473   .     S
C360   N384    1.390   .     A
C360   C1150   1.417   1_554 S
C361   O386    1.394   .     S
C361   O396    1.223   .     D
C362   O387    1.220   .     D
C362   O388    1.398   .     S
C363   O391    1.295   .     A
C363   O389    1.300   .     A
C364   O392    1.294   .     A
C364   C366    1.433   .     S
C364   O394    1.292   .     A
C365   O393    1.294   .     A
C365   C367    1.433   .     S
C365   O395    1.292   .     A
C367   C278    1.332   1_655 S
C367   H293    1.087   1_655 S
C368   H373    1.083   .     S
C369   H375    1.083   .     S
C369   C90     1.384   1_565 S
C370   H376    1.083   .     S
C370   C104    1.384   1_565 S
Cu371  N383    2.029   .     S
Cu371  O391    1.958   .     S
Cu371  O392    1.960   .     S
Cu371  O385    1.964   .     S
Cu371  Cu372   2.699   .     S
Cu371  O395    1.958   .     S
Cu372  O394    1.958   .     S
Cu372  O390    1.958   .     S
Cu372  O393    1.960   .     S
Cu372  O389    1.964   .     S
Cu372  N384    2.029   .     S
H374   O388    1.014   .     S
H380   C278    1.087   1_655 S
H382   O386    1.014   .     S
C397   C400    1.448   .     S
C397   O429    1.300   .     A
C397   O434    1.294   .     A
C398   C400    1.399   .     A
C398   H421    1.083   .     S
C398   C677    1.384   1_545 S
C399   C413    1.402   .     A
C399   C407    1.448   .     S
C399   C414    1.399   .     A
C400   C412    1.402   .     A
C401   N428    1.356   .     A
C401   H422    1.083   .     S
C402   H423    1.083   .     S
C402   N427    1.355   .     A
C402   C800    1.417   .     S
C403   C405    1.472   .     S
C403   N427    1.389   .     A
C403   C797    1.418   .     S
C404   C406    1.473   .     S
C404   N428    1.390   .     A
C405   O430    1.394   .     S
C405   O440    1.223   .     D
C406   O431    1.220   .     D
C406   O432    1.398   .     S
C407   O435    1.295   .     A
C407   O433    1.300   .     A
C408   O436    1.294   .     A
C408   C410    1.433   .     S
C408   O438    1.292   .     A
C409   O437    1.294   .     A
C409   C411    1.433   .     S
C409   O439    1.292   .     A
C410   C499    1.332   1_455 S
C410   H512    1.087   1_455 S
C411   C454    1.332   .     S
C411   H469    1.087   .     S
C412   H417    1.083   .     S
C412   C678    1.384   1_545 S
C413   H419    1.083   .     S
C413   C530    1.384   .     S
C414   H420    1.083   .     S
C414   C544    1.384   .     S
Cu415  N427    2.029   .     S
Cu415  O435    1.958   .     S
Cu415  O436    1.960   .     S
Cu415  O429    1.964   .     S
Cu415  Cu416   2.699   .     S
Cu415  O439    1.958   .     S
Cu416  O438    1.958   .     S
Cu416  O434    1.958   .     S
Cu416  O437    1.960   .     S
Cu416  O433    1.964   .     S
Cu416  N428    2.029   .     S
H418   O432    1.014   .     S
H424   C454    1.087   .     S
H425   C499    1.087   1_455 S
H426   O430    1.014   .     S
C441   C444    1.448   .     S
C441   O473    1.300   .     A
C441   O478    1.294   .     A
C442   C444    1.399   .     A
C442   H465    1.083   .     S
C442   C721    1.384   1_545 S
C443   C457    1.402   .     A
C443   C451    1.448   .     S
C443   C458    1.399   .     A
C444   C456    1.402   .     A
C445   N472    1.356   .     A
C445   H466    1.083   .     S
C446   H467    1.083   .     S
C446   N471    1.355   .     A
C446   C844    1.417   .     S
C447   C449    1.472   .     S
C447   N471    1.389   .     A
C447   C841    1.418   .     S
C448   C450    1.473   .     S
C448   N472    1.390   .     A
C449   O474    1.394   .     S
C449   O484    1.223   .     D
C450   O475    1.220   .     D
C450   O476    1.398   .     S
C451   O479    1.295   .     A
C451   O477    1.300   .     A
C452   O480    1.294   .     A
C452   C454    1.433   .     S
C452   O482    1.292   .     A
C453   O481    1.294   .     A
C453   C455    1.433   .     S
C453   O483    1.292   .     A
C455   C498    1.332   .     S
C455   H513    1.087   .     S
C456   H461    1.083   .     S
C456   C722    1.384   1_545 S
C457   H463    1.083   .     S
C457   C574    1.384   .     S
C458   H464    1.083   .     S
C458   C588    1.384   .     S
Cu459  N471    2.029   .     S
Cu459  O479    1.958   .     S
Cu459  O480    1.960   .     S
Cu459  O473    1.964   .     S
Cu459  Cu460   2.699   .     S
Cu459  O483    1.958   .     S
Cu460  O482    1.958   .     S
Cu460  O478    1.958   .     S
Cu460  O481    1.960   .     S
Cu460  O477    1.964   .     S
Cu460  N472    2.029   .     S
H462   O476    1.014   .     S
H468   C498    1.087   .     S
H470   O474    1.014   .     S
C485   C488    1.448   .     S
C485   O517    1.300   .     A
C485   O522    1.294   .     A
C486   C488    1.399   .     A
C486   H509    1.083   .     S
C486   C765    1.384   1_545 S
C487   C501    1.402   .     A
C487   C495    1.448   .     S
C487   C502    1.399   .     A
C488   C500    1.402   .     A
C489   N516    1.356   .     A
C489   H510    1.083   .     S
C490   H511    1.083   .     S
C490   N515    1.355   .     A
C490   C888    1.417   .     S
C491   C493    1.472   .     S
C491   N515    1.389   .     A
C491   C885    1.418   .     S
C492   C494    1.473   .     S
C492   N516    1.390   .     A
C493   O518    1.394   .     S
C493   O528    1.223   .     D
C494   O519    1.220   .     D
C494   O520    1.398   .     S
C495   O523    1.295   .     A
C495   O521    1.300   .     A
C496   O524    1.294   .     A
C496   C498    1.433   .     S
C496   O526    1.292   .     A
C497   O525    1.294   .     A
C497   C499    1.433   .     S
C497   O527    1.292   .     A
C499   C410    1.332   1_655 S
C499   H425    1.087   1_655 S
C500   H505    1.083   .     S
C500   C766    1.384   1_545 S
C501   H507    1.083   .     S
C501   C618    1.384   .     S
C502   H508    1.083   .     S
C502   C632    1.384   .     S
Cu503  N515    2.029   .     S
Cu503  O523    1.958   .     S
Cu503  O524    1.960   .     S
Cu503  O517    1.964   .     S
Cu503  Cu504   2.699   .     S
Cu503  O527    1.958   .     S
Cu504  O526    1.958   .     S
Cu504  O522    1.958   .     S
Cu504  O525    1.960   .     S
Cu504  O521    1.964   .     S
Cu504  N516    2.029   .     S
H506   O520    1.014   .     S
H512   C410    1.087   1_655 S
H514   O518    1.014   .     S
C529   C532    1.448   .     S
C529   O561    1.300   .     A
C529   O566    1.294   .     A
C530   C532    1.399   .     A
C530   H553    1.083   .     S
C531   C545    1.402   .     A
C531   C539    1.448   .     S
C531   C546    1.399   .     A
C532   C544    1.402   .     A
C533   N560    1.356   .     A
C533   H554    1.083   .     S
C534   H555    1.083   .     S
C534   N559    1.355   .     A
C534   C932    1.417   .     S
C535   C537    1.472   .     S
C535   N559    1.389   .     A
C535   C929    1.418   .     S
C536   C538    1.473   .     S
C536   N560    1.390   .     A
C537   O562    1.394   .     S
C537   O572    1.223   .     D
C538   O563    1.220   .     D
C538   O564    1.398   .     S
C539   O567    1.295   .     A
C539   O565    1.300   .     A
C540   O568    1.294   .     A
C540   C542    1.433   .     S
C540   O570    1.292   .     A
C541   O569    1.294   .     A
C541   C543    1.433   .     S
C541   O571    1.292   .     A
C542   C631    1.332   1_455 S
C542   H644    1.087   1_455 S
C543   C586    1.332   .     S
C543   H601    1.087   .     S
C544   H549    1.083   .     S
C545   H551    1.083   .     S
C545   C662    1.384   .     S
C546   H552    1.083   .     S
C546   C676    1.384   .     S
Cu547  N559    2.029   .     S
Cu547  O567    1.958   .     S
Cu547  O568    1.960   .     S
Cu547  O561    1.964   .     S
Cu547  Cu548   2.699   .     S
Cu547  O571    1.958   .     S
Cu548  O570    1.958   .     S
Cu548  O566    1.958   .     S
Cu548  O569    1.960   .     S
Cu548  O565    1.964   .     S
Cu548  N560    2.029   .     S
H550   O564    1.014   .     S
H556   C586    1.087   .     S
H557   C631    1.087   1_455 S
H558   O562    1.014   .     S
C573   C576    1.448   .     S
C573   O605    1.300   .     A
C573   O610    1.294   .     A
C574   C576    1.399   .     A
C574   H597    1.083   .     S
C575   C589    1.402   .     A
C575   C583    1.448   .     S
C575   C590    1.399   .     A
C576   C588    1.402   .     A
C577   N604    1.356   .     A
C577   H598    1.083   .     S
C578   H599    1.083   .     S
C578   N603    1.355   .     A
C578   C976    1.417   .     S
C579   C581    1.472   .     S
C579   N603    1.389   .     A
C579   C973    1.418   .     S
C580   C582    1.473   .     S
C580   N604    1.390   .     A
C581   O606    1.394   .     S
C581   O616    1.223   .     D
C582   O607    1.220   .     D
C582   O608    1.398   .     S
C583   O611    1.295   .     A
C583   O609    1.300   .     A
C584   O612    1.294   .     A
C584   C586    1.433   .     S
C584   O614    1.292   .     A
C585   O613    1.294   .     A
C585   C587    1.433   .     S
C585   O615    1.292   .     A
C587   C630    1.332   .     S
C587   H645    1.087   .     S
C588   H593    1.083   .     S
C589   H595    1.083   .     S
C589   C706    1.384   .     S
C590   H596    1.083   .     S
C590   C720    1.384   .     S
Cu591  N603    2.029   .     S
Cu591  O611    1.958   .     S
Cu591  O612    1.960   .     S
Cu591  O605    1.964   .     S
Cu591  Cu592   2.699   .     S
Cu591  O615    1.958   .     S
Cu592  O614    1.958   .     S
Cu592  O610    1.958   .     S
Cu592  O613    1.960   .     S
Cu592  O609    1.964   .     S
Cu592  N604    2.029   .     S
H594   O608    1.014   .     S
H600   C630    1.087   .     S
H602   O606    1.014   .     S
C617   C620    1.448   .     S
C617   O649    1.300   .     A
C617   O654    1.294   .     A
C618   C620    1.399   .     A
C618   H641    1.083   .     S
C619   C633    1.402   .     A
C619   C627    1.448   .     S
C619   C634    1.399   .     A
C620   C632    1.402   .     A
C621   N648    1.356   .     A
C621   H642    1.083   .     S
C622   H643    1.083   .     S
C622   N647    1.355   .     A
C622   C1020   1.417   .     S
C623   C625    1.472   .     S
C623   N647    1.389   .     A
C623   C1017   1.418   .     S
C624   C626    1.473   .     S
C624   N648    1.390   .     A
C625   O650    1.394   .     S
C625   O660    1.223   .     D
C626   O651    1.220   .     D
C626   O652    1.398   .     S
C627   O655    1.295   .     A
C627   O653    1.300   .     A
C628   O656    1.294   .     A
C628   C630    1.433   .     S
C628   O658    1.292   .     A
C629   O657    1.294   .     A
C629   C631    1.433   .     S
C629   O659    1.292   .     A
C631   C542    1.332   1_655 S
C631   H557    1.087   1_655 S
C632   H637    1.083   .     S
C633   H639    1.083   .     S
C633   C750    1.384   .     S
C634   H640    1.083   .     S
C634   C764    1.384   .     S
Cu635  N647    2.029   .     S
Cu635  O655    1.958   .     S
Cu635  O656    1.960   .     S
Cu635  O649    1.964   .     S
Cu635  Cu636   2.699   .     S
Cu635  O659    1.958   .     S
Cu636  O658    1.958   .     S
Cu636  O654    1.958   .     S
Cu636  O657    1.960   .     S
Cu636  O653    1.964   .     S
Cu636  N648    2.029   .     S
H638   O652    1.014   .     S
H644   C542    1.087   1_655 S
H646   O650    1.014   .     S
C661   C664    1.448   .     S
C661   O693    1.300   .     A
C661   O698    1.294   .     A
C662   C664    1.399   .     A
C662   H685    1.083   .     S
C663   C677    1.402   .     A
C663   C671    1.448   .     S
C663   C678    1.399   .     A
C664   C676    1.402   .     A
C665   N692    1.356   .     A
C665   H686    1.083   .     S
C666   H687    1.083   .     S
C666   N691    1.355   .     A
C666   C1064   1.417   .     S
C667   C669    1.472   .     S
C667   N691    1.389   .     A
C667   C1061   1.418   .     S
C668   C670    1.473   .     S
C668   N692    1.390   .     A
C669   O694    1.394   .     S
C669   O704    1.223   .     D
C670   O695    1.220   .     D
C670   O696    1.398   .     S
C671   O699    1.295   .     A
C671   O697    1.300   .     A
C672   O700    1.294   .     A
C672   C674    1.433   .     S
C672   O702    1.292   .     A
C673   O701    1.294   .     A
C673   C675    1.433   .     S
C673   O703    1.292   .     A
C674   C763    1.332   1_455 S
C674   H776    1.087   1_455 S
C675   C718    1.332   .     S
C675   H733    1.087   .     S
C676   H681    1.083   .     S
C677   H683    1.083   .     S
C677   C398    1.384   1_565 S
C678   H684    1.083   .     S
C678   C412    1.384   1_565 S
Cu679  N691    2.029   .     S
Cu679  O699    1.958   .     S
Cu679  O700    1.960   .     S
Cu679  O693    1.964   .     S
Cu679  Cu680   2.699   .     S
Cu679  O703    1.958   .     S
Cu680  O702    1.958   .     S
Cu680  O698    1.958   .     S
Cu680  O701    1.960   .     S
Cu680  O697    1.964   .     S
Cu680  N692    2.029   .     S
H682   O696    1.014   .     S
H688   C718    1.087   .     S
H689   C763    1.087   1_455 S
H690   O694    1.014   .     S
C705   C708    1.448   .     S
C705   O737    1.300   .     A
C705   O742    1.294   .     A
C706   C708    1.399   .     A
C706   H729    1.083   .     S
C707   C721    1.402   .     A
C707   C715    1.448   .     S
C707   C722    1.399   .     A
C708   C720    1.402   .     A
C709   N736    1.356   .     A
C709   H730    1.083   .     S
C710   H731    1.083   .     S
C710   N735    1.355   .     A
C710   C1108   1.417   .     S
C711   C713    1.472   .     S
C711   N735    1.389   .     A
C711   C1105   1.418   .     S
C712   C714    1.473   .     S
C712   N736    1.390   .     A
C713   O738    1.394   .     S
C713   O748    1.223   .     D
C714   O739    1.220   .     D
C714   O740    1.398   .     S
C715   O743    1.295   .     A
C715   O741    1.300   .     A
C716   O744    1.294   .     A
C716   C718    1.433   .     S
C716   O746    1.292   .     A
C717   O745    1.294   .     A
C717   C719    1.433   .     S
C717   O747    1.292   .     A
C719   C762    1.332   .     S
C719   H777    1.087   .     S
C720   H725    1.083   .     S
C721   H727    1.083   .     S
C721   C442    1.384   1_565 S
C722   H728    1.083   .     S
C722   C456    1.384   1_565 S
Cu723  N735    2.029   .     S
Cu723  O743    1.958   .     S
Cu723  O744    1.960   .     S
Cu723  O737    1.964   .     S
Cu723  Cu724   2.699   .     S
Cu723  O747    1.958   .     S
Cu724  O746    1.958   .     S
Cu724  O742    1.958   .     S
Cu724  O745    1.960   .     S
Cu724  O741    1.964   .     S
Cu724  N736    2.029   .     S
H726   O740    1.014   .     S
H732   C762    1.087   .     S
H734   O738    1.014   .     S
C749   C752    1.448   .     S
C749   O781    1.300   .     A
C749   O786    1.294   .     A
C750   C752    1.399   .     A
C750   H773    1.083   .     S
C751   C765    1.402   .     A
C751   C759    1.448   .     S
C751   C766    1.399   .     A
C752   C764    1.402   .     A
C753   N780    1.356   .     A
C753   H774    1.083   .     S
C754   H775    1.083   .     S
C754   N779    1.355   .     A
C754   C1152   1.417   .     S
C755   C757    1.472   .     S
C755   N779    1.389   .     A
C755   C1149   1.418   .     S
C756   C758    1.473   .     S
C756   N780    1.390   .     A
C757   O782    1.394   .     S
C757   O792    1.223   .     D
C758   O783    1.220   .     D
C758   O784    1.398   .     S
C759   O787    1.295   .     A
C759   O785    1.300   .     A
C760   O788    1.294   .     A
C760   C762    1.433   .     S
C760   O790    1.292   .     A
C761   O789    1.294   .     A
C761   C763    1.433   .     S
C761   O791    1.292   .     A
C763   C674    1.332   1_655 S
C763   H689    1.087   1_655 S
C764   H769    1.083   .     S
C765   H771    1.083   .     S
C765   C486    1.384   1_565 S
C766   H772    1.083   .     S
C766   C500    1.384   1_565 S
Cu767  N779    2.029   .     S
Cu767  O787    1.958   .     S
Cu767  O788    1.960   .     S
Cu767  O781    1.964   .     S
Cu767  Cu768   2.699   .     S
Cu767  O791    1.958   .     S
Cu768  O790    1.958   .     S
Cu768  O786    1.958   .     S
Cu768  O789    1.960   .     S
Cu768  O785    1.964   .     S
Cu768  N780    2.029   .     S
H770   O784    1.014   .     S
H776   C674    1.087   1_655 S
H778   O782    1.014   .     S
C793   C796    1.448   .     S
C793   O825    1.300   .     A
C793   O830    1.294   .     A
C794   C796    1.399   .     A
C794   H817    1.083   .     S
C794   C1073   1.384   1_545 S
C795   C809    1.402   .     A
C795   C803    1.448   .     S
C795   C810    1.399   .     A
C796   C808    1.402   .     A
C797   N824    1.356   .     A
C797   H818    1.083   .     S
C798   H819    1.083   .     S
C798   N823    1.355   .     A
C798   C8      1.417   1_556 S
C799   C801    1.472   .     S
C799   N823    1.389   .     A
C799   C5      1.418   1_556 S
C800   C802    1.473   .     S
C800   N824    1.390   .     A
C801   O826    1.394   .     S
C801   O836    1.223   .     D
C802   O827    1.220   .     D
C802   O828    1.398   .     S
C803   O831    1.295   .     A
C803   O829    1.300   .     A
C804   O832    1.294   .     A
C804   C806    1.433   .     S
C804   O834    1.292   .     A
C805   O833    1.294   .     A
C805   C807    1.433   .     S
C805   O835    1.292   .     A
C806   C895    1.332   1_455 S
C806   H908    1.087   1_455 S
C807   C850    1.332   .     S
C807   H865    1.087   .     S
C808   H813    1.083   .     S
C808   C1074   1.384   1_545 S
C809   H815    1.083   .     S
C809   C926    1.384   .     S
C810   H816    1.083   .     S
C810   C940    1.384   .     S
Cu811  N823    2.029   .     S
Cu811  O831    1.958   .     S
Cu811  O832    1.960   .     S
Cu811  O825    1.964   .     S
Cu811  Cu812   2.699   .     S
Cu811  O835    1.958   .     S
Cu812  O834    1.958   .     S
Cu812  O830    1.958   .     S
Cu812  O833    1.960   .     S
Cu812  O829    1.964   .     S
Cu812  N824    2.029   .     S
H814   O828    1.014   .     S
H820   C850    1.087   .     S
H821   C895    1.087   1_455 S
H822   O826    1.014   .     S
C837   C840    1.448   .     S
C837   O869    1.300   .     A
C837   O874    1.294   .     A
C838   C840    1.399   .     A
C838   H861    1.083   .     S
C838   C1117   1.384   1_545 S
C839   C853    1.402   .     A
C839   C847    1.448   .     S
C839   C854    1.399   .     A
C840   C852    1.402   .     A
C841   N868    1.356   .     A
C841   H862    1.083   .     S
C842   H863    1.083   .     S
C842   N867    1.355   .     A
C842   C52     1.417   1_556 S
C843   C845    1.472   .     S
C843   N867    1.389   .     A
C843   C49     1.418   1_556 S
C844   C846    1.473   .     S
C844   N868    1.390   .     A
C845   O870    1.394   .     S
C845   O880    1.223   .     D
C846   O871    1.220   .     D
C846   O872    1.398   .     S
C847   O875    1.295   .     A
C847   O873    1.300   .     A
C848   O876    1.294   .     A
C848   C850    1.433   .     S
C848   O878    1.292   .     A
C849   O877    1.294   .     A
C849   C851    1.433   .     S
C849   O879    1.292   .     A
C851   C894    1.332   .     S
C851   H909    1.087   .     S
C852   H857    1.083   .     S
C852   C1118   1.384   1_545 S
C853   H859    1.083   .     S
C853   C970    1.384   .     S
C854   H860    1.083   .     S
C854   C984    1.384   .     S
Cu855  N867    2.029   .     S
Cu855  O875    1.958   .     S
Cu855  O876    1.960   .     S
Cu855  O869    1.964   .     S
Cu855  Cu856   2.699   .     S
Cu855  O879    1.958   .     S
Cu856  O878    1.958   .     S
Cu856  O874    1.958   .     S
Cu856  O877    1.960   .     S
Cu856  O873    1.964   .     S
Cu856  N868    2.029   .     S
H858   O872    1.014   .     S
H864   C894    1.087   .     S
H866   O870    1.014   .     S
C881   C884    1.448   .     S
C881   O913    1.300   .     A
C881   O918    1.294   .     A
C882   C884    1.399   .     A
C882   H905    1.083   .     S
C882   C1161   1.384   1_545 S
C883   C897    1.402   .     A
C883   C891    1.448   .     S
C883   C898    1.399   .     A
C884   C896    1.402   .     A
C885   N912    1.356   .     A
C885   H906    1.083   .     S
C886   H907    1.083   .     S
C886   N911    1.355   .     A
C886   C96     1.417   1_556 S
C887   C889    1.472   .     S
C887   N911    1.389   .     A
C887   C93     1.418   1_556 S
C888   C890    1.473   .     S
C888   N912    1.390   .     A
C889   O914    1.394   .     S
C889   O924    1.223   .     D
C890   O915    1.220   .     D
C890   O916    1.398   .     S
C891   O919    1.295   .     A
C891   O917    1.300   .     A
C892   O920    1.294   .     A
C892   C894    1.433   .     S
C892   O922    1.292   .     A
C893   O921    1.294   .     A
C893   C895    1.433   .     S
C893   O923    1.292   .     A
C895   C806    1.332   1_655 S
C895   H821    1.087   1_655 S
C896   H901    1.083   .     S
C896   C1162   1.384   1_545 S
C897   H903    1.083   .     S
C897   C1014   1.384   .     S
C898   H904    1.083   .     S
C898   C1028   1.384   .     S
Cu899  N911    2.029   .     S
Cu899  O919    1.958   .     S
Cu899  O920    1.960   .     S
Cu899  O913    1.964   .     S
Cu899  Cu900   2.699   .     S
Cu899  O923    1.958   .     S
Cu900  O922    1.958   .     S
Cu900  O918    1.958   .     S
Cu900  O921    1.960   .     S
Cu900  O917    1.964   .     S
Cu900  N912    2.029   .     S
H902   O916    1.014   .     S
H908   C806    1.087   1_655 S
H910   O914    1.014   .     S
C925   C928    1.448   .     S
C925   O957    1.300   .     A
C925   O962    1.294   .     A
C926   C928    1.399   .     A
C926   H949    1.083   .     S
C927   C941    1.402   .     A
C927   C935    1.448   .     S
C927   C942    1.399   .     A
C928   C940    1.402   .     A
C929   N956    1.356   .     A
C929   H950    1.083   .     S
C930   H951    1.083   .     S
C930   N955    1.355   .     A
C930   C140    1.417   1_556 S
C931   C933    1.472   .     S
C931   N955    1.389   .     A
C931   C137    1.418   1_556 S
C932   C934    1.473   .     S
C932   N956    1.390   .     A
C933   O958    1.394   .     S
C933   O968    1.223   .     D
C934   O959    1.220   .     D
C934   O960    1.398   .     S
C935   O963    1.295   .     A
C935   O961    1.300   .     A
C936   O964    1.294   .     A
C936   C938    1.433   .     S
C936   O966    1.292   .     A
C937   O965    1.294   .     A
C937   C939    1.433   .     S
C937   O967    1.292   .     A
C938   C1027   1.332   1_455 S
C938   H1040   1.087   1_455 S
C939   C982    1.332   .     S
C939   H997    1.087   .     S
C940   H945    1.083   .     S
C941   H947    1.083   .     S
C941   C1058   1.384   .     S
C942   H948    1.083   .     S
C942   C1072   1.384   .     S
Cu943  N955    2.029   .     S
Cu943  O963    1.958   .     S
Cu943  O964    1.960   .     S
Cu943  O957    1.964   .     S
Cu943  Cu944   2.699   .     S
Cu943  O967    1.958   .     S
Cu944  O966    1.958   .     S
Cu944  O962    1.958   .     S
Cu944  O965    1.960   .     S
Cu944  O961    1.964   .     S
Cu944  N956    2.029   .     S
H946   O960    1.014   .     S
H952   C982    1.087   .     S
H953   C1027   1.087   1_455 S
H954   O958    1.014   .     S
C969   C972    1.448   .     S
C969   O1001   1.300   .     A
C969   O1006   1.294   .     A
C970   C972    1.399   .     A
C970   H993    1.083   .     S
C971   C985    1.402   .     A
C971   C979    1.448   .     S
C971   C986    1.399   .     A
C972   C984    1.402   .     A
C973   N1000   1.356   .     A
C973   H994    1.083   .     S
C974   H995    1.083   .     S
C974   N999    1.355   .     A
C974   C184    1.417   1_556 S
C975   C977    1.472   .     S
C975   N999    1.389   .     A
C975   C181    1.418   1_556 S
C976   C978    1.473   .     S
C976   N1000   1.390   .     A
C977   O1002   1.394   .     S
C977   O1012   1.223   .     D
C978   O1003   1.220   .     D
C978   O1004   1.398   .     S
C979   O1007   1.295   .     A
C979   O1005   1.300   .     A
C980   O1008   1.294   .     A
C980   C982    1.433   .     S
C980   O1010   1.292   .     A
C981   O1009   1.294   .     A
C981   C983    1.433   .     S
C981   O1011   1.292   .     A
C983   C1026   1.332   .     S
C983   H1041   1.087   .     S
C984   H989    1.083   .     S
C985   H991    1.083   .     S
C985   C1102   1.384   .     S
C986   H992    1.083   .     S
C986   C1116   1.384   .     S
Cu987  N999    2.029   .     S
Cu987  O1007   1.958   .     S
Cu987  O1008   1.960   .     S
Cu987  O1001   1.964   .     S
Cu987  Cu988   2.699   .     S
Cu987  O1011   1.958   .     S
Cu988  O1010   1.958   .     S
Cu988  O1006   1.958   .     S
Cu988  O1009   1.960   .     S
Cu988  O1005   1.964   .     S
Cu988  N1000   2.029   .     S
H990   O1004   1.014   .     S
H996   C1026   1.087   .     S
H998   O1002   1.014   .     S
C1013  C1016   1.448   .     S
C1013  O1045   1.300   .     A
C1013  O1050   1.294   .     A
C1014  C1016   1.399   .     A
C1014  H1037   1.083   .     S
C1015  C1029   1.402   .     A
C1015  C1023   1.448   .     S
C1015  C1030   1.399   .     A
C1016  C1028   1.402   .     A
C1017  N1044   1.356   .     A
C1017  H1038   1.083   .     S
C1018  H1039   1.083   .     S
C1018  N1043   1.355   .     A
C1018  C228    1.417   1_556 S
C1019  C1021   1.472   .     S
C1019  N1043   1.389   .     A
C1019  C225    1.418   1_556 S
C1020  C1022   1.473   .     S
C1020  N1044   1.390   .     A
C1021  O1046   1.394   .     S
C1021  O1056   1.223   .     D
C1022  O1047   1.220   .     D
C1022  O1048   1.398   .     S
C1023  O1051   1.295   .     A
C1023  O1049   1.300   .     A
C1024  O1052   1.294   .     A
C1024  C1026   1.433   .     S
C1024  O1054   1.292   .     A
C1025  O1053   1.294   .     A
C1025  C1027   1.433   .     S
C1025  O1055   1.292   .     A
C1027  C938    1.332   1_655 S
C1027  H953    1.087   1_655 S
C1028  H1033   1.083   .     S
C1029  H1035   1.083   .     S
C1029  C1146   1.384   .     S
C1030  H1036   1.083   .     S
C1030  C1160   1.384   .     S
Cu1031 N1043   2.029   .     S
Cu1031 O1051   1.958   .     S
Cu1031 O1052   1.960   .     S
Cu1031 O1045   1.964   .     S
Cu1031 Cu1032  2.699   .     S
Cu1031 O1055   1.958   .     S
Cu1032 O1054   1.958   .     S
Cu1032 O1050   1.958   .     S
Cu1032 O1053   1.960   .     S
Cu1032 O1049   1.964   .     S
Cu1032 N1044   2.029   .     S
H1034  O1048   1.014   .     S
H1040  C938    1.087   1_655 S
H1042  O1046   1.014   .     S
C1057  C1060   1.448   .     S
C1057  O1089   1.300   .     A
C1057  O1094   1.294   .     A
C1058  C1060   1.399   .     A
C1058  H1081   1.083   .     S
C1059  C1073   1.402   .     A
C1059  C1067   1.448   .     S
C1059  C1074   1.399   .     A
C1060  C1072   1.402   .     A
C1061  N1088   1.356   .     A
C1061  H1082   1.083   .     S
C1062  H1083   1.083   .     S
C1062  N1087   1.355   .     A
C1062  C272    1.417   1_556 S
C1063  C1065   1.472   .     S
C1063  N1087   1.389   .     A
C1063  C269    1.418   1_556 S
C1064  C1066   1.473   .     S
C1064  N1088   1.390   .     A
C1065  O1090   1.394   .     S
C1065  O1100   1.223   .     D
C1066  O1091   1.220   .     D
C1066  O1092   1.398   .     S
C1067  O1095   1.295   .     A
C1067  O1093   1.300   .     A
C1068  O1096   1.294   .     A
C1068  C1070   1.433   .     S
C1068  O1098   1.292   .     A
C1069  O1097   1.294   .     A
C1069  C1071   1.433   .     S
C1069  O1099   1.292   .     A
C1070  C1159   1.332   1_455 S
C1070  H1172   1.087   1_455 S
C1071  C1114   1.332   .     S
C1071  H1129   1.087   .     S
C1072  H1077   1.083   .     S
C1073  H1079   1.083   .     S
C1073  C794    1.384   1_565 S
C1074  H1080   1.083   .     S
C1074  C808    1.384   1_565 S
Cu1075 N1087   2.029   .     S
Cu1075 O1095   1.958   .     S
Cu1075 O1096   1.960   .     S
Cu1075 O1089   1.964   .     S
Cu1075 Cu1076  2.699   .     S
Cu1075 O1099   1.958   .     S
Cu1076 O1098   1.958   .     S
Cu1076 O1094   1.958   .     S
Cu1076 O1097   1.960   .     S
Cu1076 O1093   1.964   .     S
Cu1076 N1088   2.029   .     S
H1078  O1092   1.014   .     S
H1084  C1114   1.087   .     S
H1085  C1159   1.087   1_455 S
H1086  O1090   1.014   .     S
C1101  C1104   1.448   .     S
C1101  O1133   1.300   .     A
C1101  O1138   1.294   .     A
C1102  C1104   1.399   .     A
C1102  H1125   1.083   .     S
C1103  C1117   1.402   .     A
C1103  C1111   1.448   .     S
C1103  C1118   1.399   .     A
C1104  C1116   1.402   .     A
C1105  N1132   1.356   .     A
C1105  H1126   1.083   .     S
C1106  H1127   1.083   .     S
C1106  N1131   1.355   .     A
C1106  C316    1.417   1_556 S
C1107  C1109   1.472   .     S
C1107  N1131   1.389   .     A
C1107  C313    1.418   1_556 S
C1108  C1110   1.473   .     S
C1108  N1132   1.390   .     A
C1109  O1134   1.394   .     S
C1109  O1144   1.223   .     D
C1110  O1135   1.220   .     D
C1110  O1136   1.398   .     S
C1111  O1139   1.295   .     A
C1111  O1137   1.300   .     A
C1112  O1140   1.294   .     A
C1112  C1114   1.433   .     S
C1112  O1142   1.292   .     A
C1113  O1141   1.294   .     A
C1113  C1115   1.433   .     S
C1113  O1143   1.292   .     A
C1115  C1158   1.332   .     S
C1115  H1173   1.087   .     S
C1116  H1121   1.083   .     S
C1117  H1123   1.083   .     S
C1117  C838    1.384   1_565 S
C1118  H1124   1.083   .     S
C1118  C852    1.384   1_565 S
Cu1119 N1131   2.029   .     S
Cu1119 O1139   1.958   .     S
Cu1119 O1140   1.960   .     S
Cu1119 O1133   1.964   .     S
Cu1119 Cu1120  2.699   .     S
Cu1119 O1143   1.958   .     S
Cu1120 O1142   1.958   .     S
Cu1120 O1138   1.958   .     S
Cu1120 O1141   1.960   .     S
Cu1120 O1137   1.964   .     S
Cu1120 N1132   2.029   .     S
H1122  O1136   1.014   .     S
H1128  C1158   1.087   .     S
H1130  O1134   1.014   .     S
C1145  C1148   1.448   .     S
C1145  O1177   1.300   .     A
C1145  O1182   1.294   .     A
C1146  C1148   1.399   .     A
C1146  H1169   1.083   .     S
C1147  C1161   1.402   .     A
C1147  C1155   1.448   .     S
C1147  C1162   1.399   .     A
C1148  C1160   1.402   .     A
C1149  N1176   1.356   .     A
C1149  H1170   1.083   .     S
C1150  H1171   1.083   .     S
C1150  N1175   1.355   .     A
C1150  C360    1.417   1_556 S
C1151  C1153   1.472   .     S
C1151  N1175   1.389   .     A
C1151  C357    1.418   1_556 S
C1152  C1154   1.473   .     S
C1152  N1176   1.390   .     A
C1153  O1178   1.394   .     S
C1153  O1188   1.223   .     D
C1154  O1179   1.220   .     D
C1154  O1180   1.398   .     S
C1155  O1183   1.295   .     A
C1155  O1181   1.300   .     A
C1156  O1184   1.294   .     A
C1156  C1158   1.433   .     S
C1156  O1186   1.292   .     A
C1157  O1185   1.294   .     A
C1157  C1159   1.433   .     S
C1157  O1187   1.292   .     A
C1159  C1070   1.332   1_655 S
C1159  H1085   1.087   1_655 S
C1160  H1165   1.083   .     S
C1161  H1167   1.083   .     S
C1161  C882    1.384   1_565 S
C1162  H1168   1.083   .     S
C1162  C896    1.384   1_565 S
Cu1163 N1175   2.029   .     S
Cu1163 O1183   1.958   .     S
Cu1163 O1184   1.960   .     S
Cu1163 O1177   1.964   .     S
Cu1163 Cu1164  2.699   .     S
Cu1163 O1187   1.958   .     S
Cu1164 O1186   1.958   .     S
Cu1164 O1182   1.958   .     S
Cu1164 O1185   1.960   .     S
Cu1164 O1181   1.964   .     S
Cu1164 N1176   2.029   .     S
H1166  O1180   1.014   .     S
H1172  C1070   1.087   1_655 S
H1174  O1178   1.014   .     S
