data_str_m2_o1_o1_pcu_sym.30
_audit_creation_date              2020-01-03
_audit_creation_method            'Materials Studio'
_symmetry_space_group_name_H-M    'P1'
_symmetry_Int_Tables_number       1
_symmetry_cell_setting            triclinic
loop_
_symmetry_equiv_pos_as_xyz
  x,y,z
_cell_length_a                    31.6444
_cell_length_b                    29.5762
_cell_length_c                    28.9617
_cell_angle_alpha                 90.0000
_cell_angle_beta                  90.0000
_cell_angle_gamma                 90.0000
loop_
_atom_site_label
_atom_site_type_symbol
_atom_site_fract_x
_atom_site_fract_y
_atom_site_fract_z
_atom_site_U_iso_or_equiv
_atom_site_adp_type
_atom_site_occupancy
C1     C     0.05948   0.19072   0.16667   0.00000  Uiso   1.00
C2     C    -0.00000   0.28995   0.30865   0.00000  Uiso   1.00
C3     C    -0.00000   0.28995   0.02469   0.00000  Uiso   1.00
C4     C    -0.00000   0.21005   0.30865   0.00000  Uiso   1.00
C5     C     0.25000   0.46005   0.02469   0.00000  Uiso   1.00
C6     C     0.25000   0.03995   0.30864   0.00000  Uiso   1.00
C7     C     0.25000   0.03995   0.02469   0.00000  Uiso   1.00
C8     C     0.25000   0.46005   0.30865   0.00000  Uiso   1.00
C9     C     0.39081   0.14114   0.12474   0.00000  Uiso   1.00
C10    C     0.10919   0.35886   0.20860   0.00000  Uiso   1.00
C11    C     0.10919   0.35886   0.12474   0.00000  Uiso   1.00
C12    C     0.44052   0.30928   0.16667   0.00000  Uiso   1.00
C13    C     0.39081   0.14114   0.20860   0.00000  Uiso   1.00
C14    C     0.10919   0.14114   0.20860   0.00000  Uiso   1.00
C15    C     0.39081   0.35886   0.12474   0.00000  Uiso   1.00
C16    C     0.39081   0.35886   0.20860   0.00000  Uiso   1.00
C17    C     0.10919   0.14114   0.12474   0.00000  Uiso   1.00
C18    C     0.14081   0.39114   0.12474   0.00000  Uiso   1.00
C19    C     0.35919   0.10886   0.20860   0.00000  Uiso   1.00
C20    C     0.35919   0.10886   0.12474   0.00000  Uiso   1.00
C21    C     0.14081   0.39114   0.20860   0.00000  Uiso   1.00
C22    C     0.35919   0.39114   0.20860   0.00000  Uiso   1.00
C23    C     0.44052   0.19072   0.16667   0.00000  Uiso   1.00
C24    C     0.14081   0.10886   0.12474   0.00000  Uiso   1.00
C25    C     0.14081   0.10886   0.20860   0.00000  Uiso   1.00
C26    C     0.35919   0.39114   0.12474   0.00000  Uiso   1.00
C27    C     0.09308   0.34269   0.16667   0.00000  Uiso   1.00
C28    C     0.40692   0.15731   0.16667   0.00000  Uiso   1.00
C29    C     0.40692   0.34269   0.16667   0.00000  Uiso   1.00
C30    C     0.09308   0.15731   0.16667   0.00000  Uiso   1.00
C31    C     0.34308   0.09269   0.16667   0.00000  Uiso   1.00
C32    C     0.15692   0.40731   0.16667   0.00000  Uiso   1.00
C33    C     0.15692   0.09269   0.16667   0.00000  Uiso   1.00
C34    C     0.05948   0.30928   0.16667   0.00000  Uiso   1.00
C35    C     0.34308   0.40731   0.16667   0.00000  Uiso   1.00
C36    C     0.30948   0.44072   0.16667   0.00000  Uiso   1.00
C37    C     0.19052   0.05928   0.16667   0.00000  Uiso   1.00
C38    C     0.19052   0.44072   0.16667   0.00000  Uiso   1.00
C39    C     0.30948   0.05928   0.16667   0.00000  Uiso   1.00
C40    C    -0.00000   0.21005   0.02469   0.00000  Uiso   1.00
Cu41   Cu   -0.00000   0.25000   0.21355   0.00000  Uiso   1.00
Cu42   Cu   -0.00000   0.25000   0.11978   0.00000  Uiso   1.00
Cu43   Cu    0.25000   0.00000   0.21355   0.00000  Uiso   1.00
Cu44   Cu    0.25000   0.00000   0.11978   0.00000  Uiso   1.00
H45    H     0.40254   0.15334   0.09191   0.00000  Uiso   1.00
H46    H     0.34746   0.09666   0.24143   0.00000  Uiso   1.00
H47    H     0.34746   0.09666   0.09191   0.00000  Uiso   1.00
H48    H     0.15254   0.40334   0.24143   0.00000  Uiso   1.00
H49    H     0.34746   0.40334   0.24143   0.00000  Uiso   1.00
H50    H     0.15254   0.09666   0.09191   0.00000  Uiso   1.00
H51    H     0.15254   0.09666   0.24143   0.00000  Uiso   1.00
H52    H     0.34746   0.40334   0.09191   0.00000  Uiso   1.00
H53    H     0.09746   0.34666   0.24143   0.00000  Uiso   1.00
H54    H     0.09746   0.34666   0.09191   0.00000  Uiso   1.00
H55    H     0.40254   0.15334   0.24143   0.00000  Uiso   1.00
H56    H     0.09746   0.15334   0.24143   0.00000  Uiso   1.00
H57    H     0.40254   0.34666   0.09191   0.00000  Uiso   1.00
H58    H     0.40254   0.34666   0.24143   0.00000  Uiso   1.00
H59    H     0.09746   0.15334   0.09191   0.00000  Uiso   1.00
H60    H     0.15254   0.40334   0.09191   0.00000  Uiso   1.00
I61    I    -0.00000   0.14580   0.05939   0.00000  Uiso   1.00
I62    I    -0.00000   0.35420   0.27395   0.00000  Uiso   1.00
I63    I    -0.00000   0.35420   0.05939   0.00000  Uiso   1.00
I64    I    -0.00000   0.14580   0.27395   0.00000  Uiso   1.00
I65    I     0.25000   0.39580   0.05939   0.00000  Uiso   1.00
I66    I     0.25000   0.10420   0.27395   0.00000  Uiso   1.00
I67    I     0.25000   0.10420   0.05939   0.00000  Uiso   1.00
I68    I     0.25000   0.39580   0.27395   0.00000  Uiso   1.00
N69    N    -0.00000   0.25000   0.28402   0.00000  Uiso   1.00
N70    N    -0.00000   0.25000   0.04931   0.00000  Uiso   1.00
N71    N     0.25000   0.00000   0.28402   0.00000  Uiso   1.00
N72    N     0.25000   0.00000   0.04931   0.00000  Uiso   1.00
O73    O     0.04508   0.20491   0.20625   0.00000  Uiso   1.00
O74    O     0.20491   0.04509   0.12709   0.00000  Uiso   1.00
O75    O     0.20491   0.04509   0.20625   0.00000  Uiso   1.00
O76    O     0.29508   0.45491   0.12709   0.00000  Uiso   1.00
O77    O     0.20491   0.45491   0.12709   0.00000  Uiso   1.00
O78    O     0.29508   0.04509   0.20625   0.00000  Uiso   1.00
O79    O     0.29508   0.04509   0.12709   0.00000  Uiso   1.00
O80    O     0.20491   0.45491   0.20625   0.00000  Uiso   1.00
O81    O     0.45491   0.29509   0.12709   0.00000  Uiso   1.00
O82    O     0.45491   0.29509   0.20625   0.00000  Uiso   1.00
O83    O     0.04508   0.20491   0.12709   0.00000  Uiso   1.00
O84    O     0.45491   0.20491   0.12709   0.00000  Uiso   1.00
O85    O     0.04508   0.29509   0.20625   0.00000  Uiso   1.00
O86    O     0.04508   0.29509   0.12709   0.00000  Uiso   1.00
O87    O     0.45491   0.20491   0.20625   0.00000  Uiso   1.00
O88    O     0.29508   0.45491   0.20625   0.00000  Uiso   1.00
C89    C     0.55948   0.19072   0.16667   0.00000  Uiso   1.00
C90    C     0.50000   0.28995   0.30865   0.00000  Uiso   1.00
C91    C     0.50000   0.28995   0.02469   0.00000  Uiso   1.00
C92    C     0.50000   0.21005   0.30865   0.00000  Uiso   1.00
C93    C     0.75000   0.46005   0.02469   0.00000  Uiso   1.00
C94    C     0.75000   0.03995   0.30864   0.00000  Uiso   1.00
C95    C     0.75000   0.03995   0.02469   0.00000  Uiso   1.00
C96    C     0.75000   0.46005   0.30865   0.00000  Uiso   1.00
C97    C     0.89081   0.14114   0.12474   0.00000  Uiso   1.00
C98    C     0.60919   0.35886   0.20860   0.00000  Uiso   1.00
C99    C     0.60919   0.35886   0.12474   0.00000  Uiso   1.00
C100   C     0.94052   0.30928   0.16667   0.00000  Uiso   1.00
C101   C     0.89081   0.14114   0.20860   0.00000  Uiso   1.00
C102   C     0.60919   0.14114   0.20860   0.00000  Uiso   1.00
C103   C     0.89081   0.35886   0.12474   0.00000  Uiso   1.00
C104   C     0.89081   0.35886   0.20860   0.00000  Uiso   1.00
C105   C     0.60919   0.14114   0.12474   0.00000  Uiso   1.00
C106   C     0.64081   0.39114   0.12474   0.00000  Uiso   1.00
C107   C     0.85919   0.10886   0.20860   0.00000  Uiso   1.00
C108   C     0.85919   0.10886   0.12474   0.00000  Uiso   1.00
C109   C     0.64081   0.39114   0.20860   0.00000  Uiso   1.00
C110   C     0.85919   0.39114   0.20860   0.00000  Uiso   1.00
C111   C     0.94052   0.19072   0.16667   0.00000  Uiso   1.00
C112   C     0.64081   0.10886   0.12474   0.00000  Uiso   1.00
C113   C     0.64081   0.10886   0.20860   0.00000  Uiso   1.00
C114   C     0.85919   0.39114   0.12474   0.00000  Uiso   1.00
C115   C     0.59308   0.34269   0.16667   0.00000  Uiso   1.00
C116   C     0.90692   0.15731   0.16667   0.00000  Uiso   1.00
C117   C     0.90692   0.34269   0.16667   0.00000  Uiso   1.00
C118   C     0.59308   0.15731   0.16667   0.00000  Uiso   1.00
C119   C     0.84308   0.09269   0.16667   0.00000  Uiso   1.00
C120   C     0.65692   0.40731   0.16667   0.00000  Uiso   1.00
C121   C     0.65692   0.09269   0.16667   0.00000  Uiso   1.00
C122   C     0.55948   0.30928   0.16667   0.00000  Uiso   1.00
C123   C     0.84308   0.40731   0.16667   0.00000  Uiso   1.00
C124   C     0.80948   0.44072   0.16667   0.00000  Uiso   1.00
C125   C     0.69052   0.05928   0.16667   0.00000  Uiso   1.00
C126   C     0.69052   0.44072   0.16667   0.00000  Uiso   1.00
C127   C     0.80948   0.05928   0.16667   0.00000  Uiso   1.00
C128   C     0.50000   0.21005   0.02469   0.00000  Uiso   1.00
Cu129  Cu    0.50000   0.25000   0.21355   0.00000  Uiso   1.00
Cu130  Cu    0.50000   0.25000   0.11978   0.00000  Uiso   1.00
Cu131  Cu    0.75000   0.00000   0.21355   0.00000  Uiso   1.00
Cu132  Cu    0.75000   0.00000   0.11978   0.00000  Uiso   1.00
H133   H     0.90254   0.15334   0.09191   0.00000  Uiso   1.00
H134   H     0.84746   0.09666   0.24143   0.00000  Uiso   1.00
H135   H     0.84746   0.09666   0.09191   0.00000  Uiso   1.00
H136   H     0.65254   0.40334   0.24143   0.00000  Uiso   1.00
H137   H     0.84746   0.40334   0.24143   0.00000  Uiso   1.00
H138   H     0.65254   0.09666   0.09191   0.00000  Uiso   1.00
H139   H     0.65254   0.09666   0.24143   0.00000  Uiso   1.00
H140   H     0.84746   0.40334   0.09191   0.00000  Uiso   1.00
H141   H     0.59746   0.34666   0.24143   0.00000  Uiso   1.00
H142   H     0.59746   0.34666   0.09191   0.00000  Uiso   1.00
H143   H     0.90254   0.15334   0.24143   0.00000  Uiso   1.00
H144   H     0.59746   0.15334   0.24143   0.00000  Uiso   1.00
H145   H     0.90254   0.34666   0.09191   0.00000  Uiso   1.00
H146   H     0.90254   0.34666   0.24143   0.00000  Uiso   1.00
H147   H     0.59746   0.15334   0.09191   0.00000  Uiso   1.00
H148   H     0.65254   0.40334   0.09191   0.00000  Uiso   1.00
I149   I     0.50000   0.14580   0.05939   0.00000  Uiso   1.00
I150   I     0.50000   0.35420   0.27395   0.00000  Uiso   1.00
I151   I     0.50000   0.35420   0.05939   0.00000  Uiso   1.00
I152   I     0.50000   0.14580   0.27395   0.00000  Uiso   1.00
I153   I     0.75000   0.39580   0.05939   0.00000  Uiso   1.00
I154   I     0.75000   0.10420   0.27395   0.00000  Uiso   1.00
I155   I     0.75000   0.10420   0.05939   0.00000  Uiso   1.00
I156   I     0.75000   0.39580   0.27395   0.00000  Uiso   1.00
N157   N     0.50000   0.25000   0.28402   0.00000  Uiso   1.00
N158   N     0.50000   0.25000   0.04931   0.00000  Uiso   1.00
N159   N     0.75000   0.00000   0.28402   0.00000  Uiso   1.00
N160   N     0.75000   0.00000   0.04931   0.00000  Uiso   1.00
O161   O     0.54508   0.20491   0.20625   0.00000  Uiso   1.00
O162   O     0.70491   0.04509   0.12709   0.00000  Uiso   1.00
O163   O     0.70491   0.04509   0.20625   0.00000  Uiso   1.00
O164   O     0.79508   0.45491   0.12709   0.00000  Uiso   1.00
O165   O     0.70491   0.45491   0.12709   0.00000  Uiso   1.00
O166   O     0.79508   0.04509   0.20625   0.00000  Uiso   1.00
O167   O     0.79508   0.04509   0.12709   0.00000  Uiso   1.00
O168   O     0.70491   0.45491   0.20625   0.00000  Uiso   1.00
O169   O     0.95491   0.29509   0.12709   0.00000  Uiso   1.00
O170   O     0.95491   0.29509   0.20625   0.00000  Uiso   1.00
O171   O     0.54508   0.20491   0.12709   0.00000  Uiso   1.00
O172   O     0.95491   0.20491   0.12709   0.00000  Uiso   1.00
O173   O     0.54508   0.29509   0.20625   0.00000  Uiso   1.00
O174   O     0.54508   0.29509   0.12709   0.00000  Uiso   1.00
O175   O     0.95491   0.20491   0.20625   0.00000  Uiso   1.00
O176   O     0.79508   0.45491   0.20625   0.00000  Uiso   1.00
C177   C     0.05948   0.69072   0.16667   0.00000  Uiso   1.00
C178   C    -0.00000   0.78995   0.30865   0.00000  Uiso   1.00
C179   C    -0.00000   0.78995   0.02469   0.00000  Uiso   1.00
C180   C    -0.00000   0.71005   0.30865   0.00000  Uiso   1.00
C181   C     0.25000   0.96005   0.02469   0.00000  Uiso   1.00
C182   C     0.25000   0.53995   0.30864   0.00000  Uiso   1.00
C183   C     0.25000   0.53995   0.02469   0.00000  Uiso   1.00
C184   C     0.25000   0.96005   0.30865   0.00000  Uiso   1.00
C185   C     0.39081   0.64114   0.12474   0.00000  Uiso   1.00
C186   C     0.10919   0.85886   0.20860   0.00000  Uiso   1.00
C187   C     0.10919   0.85886   0.12474   0.00000  Uiso   1.00
C188   C     0.44052   0.80928   0.16667   0.00000  Uiso   1.00
C189   C     0.39081   0.64114   0.20860   0.00000  Uiso   1.00
C190   C     0.10919   0.64114   0.20860   0.00000  Uiso   1.00
C191   C     0.39081   0.85886   0.12474   0.00000  Uiso   1.00
C192   C     0.39081   0.85886   0.20860   0.00000  Uiso   1.00
C193   C     0.10919   0.64114   0.12474   0.00000  Uiso   1.00
C194   C     0.14081   0.89114   0.12474   0.00000  Uiso   1.00
C195   C     0.35919   0.60886   0.20860   0.00000  Uiso   1.00
C196   C     0.35919   0.60886   0.12474   0.00000  Uiso   1.00
C197   C     0.14081   0.89114   0.20860   0.00000  Uiso   1.00
C198   C     0.35919   0.89114   0.20860   0.00000  Uiso   1.00
C199   C     0.44052   0.69072   0.16667   0.00000  Uiso   1.00
C200   C     0.14081   0.60886   0.12474   0.00000  Uiso   1.00
C201   C     0.14081   0.60886   0.20860   0.00000  Uiso   1.00
C202   C     0.35919   0.89114   0.12474   0.00000  Uiso   1.00
C203   C     0.09308   0.84269   0.16667   0.00000  Uiso   1.00
C204   C     0.40692   0.65731   0.16667   0.00000  Uiso   1.00
C205   C     0.40692   0.84269   0.16667   0.00000  Uiso   1.00
C206   C     0.09308   0.65731   0.16667   0.00000  Uiso   1.00
C207   C     0.34308   0.59269   0.16667   0.00000  Uiso   1.00
C208   C     0.15692   0.90731   0.16667   0.00000  Uiso   1.00
C209   C     0.15692   0.59269   0.16667   0.00000  Uiso   1.00
C210   C     0.05948   0.80928   0.16667   0.00000  Uiso   1.00
C211   C     0.34308   0.90731   0.16667   0.00000  Uiso   1.00
C212   C     0.30948   0.94072   0.16667   0.00000  Uiso   1.00
C213   C     0.19052   0.55928   0.16667   0.00000  Uiso   1.00
C214   C     0.19052   0.94072   0.16667   0.00000  Uiso   1.00
C215   C     0.30948   0.55928   0.16667   0.00000  Uiso   1.00
C216   C    -0.00000   0.71005   0.02469   0.00000  Uiso   1.00
Cu217  Cu   -0.00000   0.75000   0.21355   0.00000  Uiso   1.00
Cu218  Cu   -0.00000   0.75000   0.11978   0.00000  Uiso   1.00
Cu219  Cu    0.25000   0.50000   0.21355   0.00000  Uiso   1.00
Cu220  Cu    0.25000   0.50000   0.11978   0.00000  Uiso   1.00
H221   H     0.40254   0.65334   0.09191   0.00000  Uiso   1.00
H222   H     0.34746   0.59666   0.24143   0.00000  Uiso   1.00
H223   H     0.34746   0.59666   0.09191   0.00000  Uiso   1.00
H224   H     0.15254   0.90334   0.24143   0.00000  Uiso   1.00
H225   H     0.34746   0.90334   0.24143   0.00000  Uiso   1.00
H226   H     0.15254   0.59666   0.09191   0.00000  Uiso   1.00
H227   H     0.15254   0.59666   0.24143   0.00000  Uiso   1.00
H228   H     0.34746   0.90334   0.09191   0.00000  Uiso   1.00
H229   H     0.09746   0.84666   0.24143   0.00000  Uiso   1.00
H230   H     0.09746   0.84666   0.09191   0.00000  Uiso   1.00
H231   H     0.40254   0.65334   0.24143   0.00000  Uiso   1.00
H232   H     0.09746   0.65334   0.24143   0.00000  Uiso   1.00
H233   H     0.40254   0.84666   0.09191   0.00000  Uiso   1.00
H234   H     0.40254   0.84666   0.24143   0.00000  Uiso   1.00
H235   H     0.09746   0.65334   0.09191   0.00000  Uiso   1.00
H236   H     0.15254   0.90334   0.09191   0.00000  Uiso   1.00
I237   I    -0.00000   0.64580   0.05939   0.00000  Uiso   1.00
I238   I    -0.00000   0.85420   0.27395   0.00000  Uiso   1.00
I239   I    -0.00000   0.85420   0.05939   0.00000  Uiso   1.00
I240   I    -0.00000   0.64580   0.27395   0.00000  Uiso   1.00
I241   I     0.25000   0.89580   0.05939   0.00000  Uiso   1.00
I242   I     0.25000   0.60420   0.27395   0.00000  Uiso   1.00
I243   I     0.25000   0.60420   0.05939   0.00000  Uiso   1.00
I244   I     0.25000   0.89580   0.27395   0.00000  Uiso   1.00
N245   N    -0.00000   0.75000   0.28402   0.00000  Uiso   1.00
N246   N    -0.00000   0.75000   0.04931   0.00000  Uiso   1.00
N247   N     0.25000   0.50000   0.28402   0.00000  Uiso   1.00
N248   N     0.25000   0.50000   0.04931   0.00000  Uiso   1.00
O249   O     0.04508   0.70491   0.20625   0.00000  Uiso   1.00
O250   O     0.20491   0.54509   0.12709   0.00000  Uiso   1.00
O251   O     0.20491   0.54509   0.20625   0.00000  Uiso   1.00
O252   O     0.29508   0.95491   0.12709   0.00000  Uiso   1.00
O253   O     0.20491   0.95491   0.12709   0.00000  Uiso   1.00
O254   O     0.29508   0.54509   0.20625   0.00000  Uiso   1.00
O255   O     0.29508   0.54509   0.12709   0.00000  Uiso   1.00
O256   O     0.20491   0.95491   0.20625   0.00000  Uiso   1.00
O257   O     0.45491   0.79509   0.12709   0.00000  Uiso   1.00
O258   O     0.45491   0.79509   0.20625   0.00000  Uiso   1.00
O259   O     0.04508   0.70491   0.12709   0.00000  Uiso   1.00
O260   O     0.45491   0.70491   0.12709   0.00000  Uiso   1.00
O261   O     0.04508   0.79509   0.20625   0.00000  Uiso   1.00
O262   O     0.04508   0.79509   0.12709   0.00000  Uiso   1.00
O263   O     0.45491   0.70491   0.20625   0.00000  Uiso   1.00
O264   O     0.29508   0.95491   0.20625   0.00000  Uiso   1.00
C265   C     0.55948   0.69072   0.16667   0.00000  Uiso   1.00
C266   C     0.50000   0.78995   0.30865   0.00000  Uiso   1.00
C267   C     0.50000   0.78995   0.02469   0.00000  Uiso   1.00
C268   C     0.50000   0.71005   0.30865   0.00000  Uiso   1.00
C269   C     0.75000   0.96005   0.02469   0.00000  Uiso   1.00
C270   C     0.75000   0.53995   0.30864   0.00000  Uiso   1.00
C271   C     0.75000   0.53995   0.02469   0.00000  Uiso   1.00
C272   C     0.75000   0.96005   0.30865   0.00000  Uiso   1.00
C273   C     0.89081   0.64114   0.12474   0.00000  Uiso   1.00
C274   C     0.60919   0.85886   0.20860   0.00000  Uiso   1.00
C275   C     0.60919   0.85886   0.12474   0.00000  Uiso   1.00
C276   C     0.94052   0.80928   0.16667   0.00000  Uiso   1.00
C277   C     0.89081   0.64114   0.20860   0.00000  Uiso   1.00
C278   C     0.60919   0.64114   0.20860   0.00000  Uiso   1.00
C279   C     0.89081   0.85886   0.12474   0.00000  Uiso   1.00
C280   C     0.89081   0.85886   0.20860   0.00000  Uiso   1.00
C281   C     0.60919   0.64114   0.12474   0.00000  Uiso   1.00
C282   C     0.64081   0.89114   0.12474   0.00000  Uiso   1.00
C283   C     0.85919   0.60886   0.20860   0.00000  Uiso   1.00
C284   C     0.85919   0.60886   0.12474   0.00000  Uiso   1.00
C285   C     0.64081   0.89114   0.20860   0.00000  Uiso   1.00
C286   C     0.85919   0.89114   0.20860   0.00000  Uiso   1.00
C287   C     0.94052   0.69072   0.16667   0.00000  Uiso   1.00
C288   C     0.64081   0.60886   0.12474   0.00000  Uiso   1.00
C289   C     0.64081   0.60886   0.20860   0.00000  Uiso   1.00
C290   C     0.85919   0.89114   0.12474   0.00000  Uiso   1.00
C291   C     0.59308   0.84269   0.16667   0.00000  Uiso   1.00
C292   C     0.90692   0.65731   0.16667   0.00000  Uiso   1.00
C293   C     0.90692   0.84269   0.16667   0.00000  Uiso   1.00
C294   C     0.59308   0.65731   0.16667   0.00000  Uiso   1.00
C295   C     0.84308   0.59269   0.16667   0.00000  Uiso   1.00
C296   C     0.65692   0.90731   0.16667   0.00000  Uiso   1.00
C297   C     0.65692   0.59269   0.16667   0.00000  Uiso   1.00
C298   C     0.55948   0.80928   0.16667   0.00000  Uiso   1.00
C299   C     0.84308   0.90731   0.16667   0.00000  Uiso   1.00
C300   C     0.80948   0.94072   0.16667   0.00000  Uiso   1.00
C301   C     0.69052   0.55928   0.16667   0.00000  Uiso   1.00
C302   C     0.69052   0.94072   0.16667   0.00000  Uiso   1.00
C303   C     0.80948   0.55928   0.16667   0.00000  Uiso   1.00
C304   C     0.50000   0.71005   0.02469   0.00000  Uiso   1.00
Cu305  Cu    0.50000   0.75000   0.21355   0.00000  Uiso   1.00
Cu306  Cu    0.50000   0.75000   0.11978   0.00000  Uiso   1.00
Cu307  Cu    0.75000   0.50000   0.21355   0.00000  Uiso   1.00
Cu308  Cu    0.75000   0.50000   0.11978   0.00000  Uiso   1.00
H309   H     0.90254   0.65334   0.09191   0.00000  Uiso   1.00
H310   H     0.84746   0.59666   0.24143   0.00000  Uiso   1.00
H311   H     0.84746   0.59666   0.09191   0.00000  Uiso   1.00
H312   H     0.65254   0.90334   0.24143   0.00000  Uiso   1.00
H313   H     0.84746   0.90334   0.24143   0.00000  Uiso   1.00
H314   H     0.65254   0.59666   0.09191   0.00000  Uiso   1.00
H315   H     0.65254   0.59666   0.24143   0.00000  Uiso   1.00
H316   H     0.84746   0.90334   0.09191   0.00000  Uiso   1.00
H317   H     0.59746   0.84666   0.24143   0.00000  Uiso   1.00
H318   H     0.59746   0.84666   0.09191   0.00000  Uiso   1.00
H319   H     0.90254   0.65334   0.24143   0.00000  Uiso   1.00
H320   H     0.59746   0.65334   0.24143   0.00000  Uiso   1.00
H321   H     0.90254   0.84666   0.09191   0.00000  Uiso   1.00
H322   H     0.90254   0.84666   0.24143   0.00000  Uiso   1.00
H323   H     0.59746   0.65334   0.09191   0.00000  Uiso   1.00
H324   H     0.65254   0.90334   0.09191   0.00000  Uiso   1.00
I325   I     0.50000   0.64580   0.05939   0.00000  Uiso   1.00
I326   I     0.50000   0.85420   0.27395   0.00000  Uiso   1.00
I327   I     0.50000   0.85420   0.05939   0.00000  Uiso   1.00
I328   I     0.50000   0.64580   0.27395   0.00000  Uiso   1.00
I329   I     0.75000   0.89580   0.05939   0.00000  Uiso   1.00
I330   I     0.75000   0.60420   0.27395   0.00000  Uiso   1.00
I331   I     0.75000   0.60420   0.05939   0.00000  Uiso   1.00
I332   I     0.75000   0.89580   0.27395   0.00000  Uiso   1.00
N333   N     0.50000   0.75000   0.28402   0.00000  Uiso   1.00
N334   N     0.50000   0.75000   0.04931   0.00000  Uiso   1.00
N335   N     0.75000   0.50000   0.28402   0.00000  Uiso   1.00
N336   N     0.75000   0.50000   0.04931   0.00000  Uiso   1.00
O337   O     0.54508   0.70491   0.20625   0.00000  Uiso   1.00
O338   O     0.70491   0.54509   0.12709   0.00000  Uiso   1.00
O339   O     0.70491   0.54509   0.20625   0.00000  Uiso   1.00
O340   O     0.79508   0.95491   0.12709   0.00000  Uiso   1.00
O341   O     0.70491   0.95491   0.12709   0.00000  Uiso   1.00
O342   O     0.79508   0.54509   0.20625   0.00000  Uiso   1.00
O343   O     0.79508   0.54509   0.12709   0.00000  Uiso   1.00
O344   O     0.70491   0.95491   0.20625   0.00000  Uiso   1.00
O345   O     0.95491   0.79509   0.12709   0.00000  Uiso   1.00
O346   O     0.95491   0.79509   0.20625   0.00000  Uiso   1.00
O347   O     0.54508   0.70491   0.12709   0.00000  Uiso   1.00
O348   O     0.95491   0.70491   0.12709   0.00000  Uiso   1.00
O349   O     0.54508   0.79509   0.20625   0.00000  Uiso   1.00
O350   O     0.54508   0.79509   0.12709   0.00000  Uiso   1.00
O351   O     0.95491   0.70491   0.20625   0.00000  Uiso   1.00
O352   O     0.79508   0.95491   0.20625   0.00000  Uiso   1.00
C353   C     0.05948   0.19072   0.50000   0.00000  Uiso   1.00
C354   C    -0.00000   0.28995   0.64198   0.00000  Uiso   1.00
C355   C    -0.00000   0.28995   0.35802   0.00000  Uiso   1.00
C356   C    -0.00000   0.21005   0.64198   0.00000  Uiso   1.00
C357   C     0.25000   0.46005   0.35802   0.00000  Uiso   1.00
C358   C     0.25000   0.03995   0.64198   0.00000  Uiso   1.00
C359   C     0.25000   0.03995   0.35802   0.00000  Uiso   1.00
C360   C     0.25000   0.46005   0.64198   0.00000  Uiso   1.00
C361   C     0.39081   0.14114   0.45807   0.00000  Uiso   1.00
C362   C     0.10919   0.35886   0.54193   0.00000  Uiso   1.00
C363   C     0.10919   0.35886   0.45807   0.00000  Uiso   1.00
C364   C     0.44052   0.30928   0.50000   0.00000  Uiso   1.00
C365   C     0.39081   0.14114   0.54193   0.00000  Uiso   1.00
C366   C     0.10919   0.14114   0.54193   0.00000  Uiso   1.00
C367   C     0.39081   0.35886   0.45807   0.00000  Uiso   1.00
C368   C     0.39081   0.35886   0.54193   0.00000  Uiso   1.00
C369   C     0.10919   0.14114   0.45807   0.00000  Uiso   1.00
C370   C     0.14081   0.39114   0.45807   0.00000  Uiso   1.00
C371   C     0.35919   0.10886   0.54193   0.00000  Uiso   1.00
C372   C     0.35919   0.10886   0.45807   0.00000  Uiso   1.00
C373   C     0.14081   0.39114   0.54193   0.00000  Uiso   1.00
C374   C     0.35919   0.39114   0.54193   0.00000  Uiso   1.00
C375   C     0.44052   0.19072   0.50000   0.00000  Uiso   1.00
C376   C     0.14081   0.10886   0.45807   0.00000  Uiso   1.00
C377   C     0.14081   0.10886   0.54193   0.00000  Uiso   1.00
C378   C     0.35919   0.39114   0.45807   0.00000  Uiso   1.00
C379   C     0.09308   0.34269   0.50000   0.00000  Uiso   1.00
C380   C     0.40692   0.15731   0.50000   0.00000  Uiso   1.00
C381   C     0.40692   0.34269   0.50000   0.00000  Uiso   1.00
C382   C     0.09308   0.15731   0.50000   0.00000  Uiso   1.00
C383   C     0.34308   0.09269   0.50000   0.00000  Uiso   1.00
C384   C     0.15692   0.40731   0.50000   0.00000  Uiso   1.00
C385   C     0.15692   0.09269   0.50000   0.00000  Uiso   1.00
C386   C     0.05948   0.30928   0.50000   0.00000  Uiso   1.00
C387   C     0.34308   0.40731   0.50000   0.00000  Uiso   1.00
C388   C     0.30948   0.44072   0.50000   0.00000  Uiso   1.00
C389   C     0.19052   0.05928   0.50000   0.00000  Uiso   1.00
C390   C     0.19052   0.44072   0.50000   0.00000  Uiso   1.00
C391   C     0.30948   0.05928   0.50000   0.00000  Uiso   1.00
C392   C    -0.00000   0.21005   0.35802   0.00000  Uiso   1.00
Cu393  Cu   -0.00000   0.25000   0.54689   0.00000  Uiso   1.00
Cu394  Cu   -0.00000   0.25000   0.45311   0.00000  Uiso   1.00
Cu395  Cu    0.25000   0.00000   0.54689   0.00000  Uiso   1.00
Cu396  Cu    0.25000   0.00000   0.45311   0.00000  Uiso   1.00
H397   H     0.40254   0.15334   0.42524   0.00000  Uiso   1.00
H398   H     0.34746   0.09666   0.57476   0.00000  Uiso   1.00
H399   H     0.34746   0.09666   0.42524   0.00000  Uiso   1.00
H400   H     0.15254   0.40334   0.57476   0.00000  Uiso   1.00
H401   H     0.34746   0.40334   0.57476   0.00000  Uiso   1.00
H402   H     0.15254   0.09666   0.42524   0.00000  Uiso   1.00
H403   H     0.15254   0.09666   0.57476   0.00000  Uiso   1.00
H404   H     0.34746   0.40334   0.42524   0.00000  Uiso   1.00
H405   H     0.09746   0.34666   0.57476   0.00000  Uiso   1.00
H406   H     0.09746   0.34666   0.42524   0.00000  Uiso   1.00
H407   H     0.40254   0.15334   0.57476   0.00000  Uiso   1.00
H408   H     0.09746   0.15334   0.57476   0.00000  Uiso   1.00
H409   H     0.40254   0.34666   0.42524   0.00000  Uiso   1.00
H410   H     0.40254   0.34666   0.57476   0.00000  Uiso   1.00
H411   H     0.09746   0.15334   0.42524   0.00000  Uiso   1.00
H412   H     0.15254   0.40334   0.42524   0.00000  Uiso   1.00
I413   I    -0.00000   0.14580   0.39272   0.00000  Uiso   1.00
I414   I    -0.00000   0.35420   0.60728   0.00000  Uiso   1.00
I415   I    -0.00000   0.35420   0.39272   0.00000  Uiso   1.00
I416   I    -0.00000   0.14580   0.60728   0.00000  Uiso   1.00
I417   I     0.25000   0.39580   0.39272   0.00000  Uiso   1.00
I418   I     0.25000   0.10420   0.60728   0.00000  Uiso   1.00
I419   I     0.25000   0.10420   0.39272   0.00000  Uiso   1.00
I420   I     0.25000   0.39580   0.60728   0.00000  Uiso   1.00
N421   N    -0.00000   0.25000   0.61736   0.00000  Uiso   1.00
N422   N    -0.00000   0.25000   0.38264   0.00000  Uiso   1.00
N423   N     0.25000   0.00000   0.61736   0.00000  Uiso   1.00
N424   N     0.25000   0.00000   0.38264   0.00000  Uiso   1.00
O425   O     0.04508   0.20491   0.53958   0.00000  Uiso   1.00
O426   O     0.20491   0.04509   0.46042   0.00000  Uiso   1.00
O427   O     0.20491   0.04509   0.53958   0.00000  Uiso   1.00
O428   O     0.29508   0.45491   0.46042   0.00000  Uiso   1.00
O429   O     0.20491   0.45491   0.46042   0.00000  Uiso   1.00
O430   O     0.29508   0.04509   0.53958   0.00000  Uiso   1.00
O431   O     0.29508   0.04509   0.46042   0.00000  Uiso   1.00
O432   O     0.20491   0.45491   0.53958   0.00000  Uiso   1.00
O433   O     0.45491   0.29509   0.46042   0.00000  Uiso   1.00
O434   O     0.45491   0.29509   0.53958   0.00000  Uiso   1.00
O435   O     0.04508   0.20491   0.46042   0.00000  Uiso   1.00
O436   O     0.45491   0.20491   0.46042   0.00000  Uiso   1.00
O437   O     0.04508   0.29509   0.53958   0.00000  Uiso   1.00
O438   O     0.04508   0.29509   0.46042   0.00000  Uiso   1.00
O439   O     0.45491   0.20491   0.53958   0.00000  Uiso   1.00
O440   O     0.29508   0.45491   0.53958   0.00000  Uiso   1.00
C441   C     0.55948   0.19072   0.50000   0.00000  Uiso   1.00
C442   C     0.50000   0.28995   0.64198   0.00000  Uiso   1.00
C443   C     0.50000   0.28995   0.35802   0.00000  Uiso   1.00
C444   C     0.50000   0.21005   0.64198   0.00000  Uiso   1.00
C445   C     0.75000   0.46005   0.35802   0.00000  Uiso   1.00
C446   C     0.75000   0.03995   0.64198   0.00000  Uiso   1.00
C447   C     0.75000   0.03995   0.35802   0.00000  Uiso   1.00
C448   C     0.75000   0.46005   0.64198   0.00000  Uiso   1.00
C449   C     0.89081   0.14114   0.45807   0.00000  Uiso   1.00
C450   C     0.60919   0.35886   0.54193   0.00000  Uiso   1.00
C451   C     0.60919   0.35886   0.45807   0.00000  Uiso   1.00
C452   C     0.94052   0.30928   0.50000   0.00000  Uiso   1.00
C453   C     0.89081   0.14114   0.54193   0.00000  Uiso   1.00
C454   C     0.60919   0.14114   0.54193   0.00000  Uiso   1.00
C455   C     0.89081   0.35886   0.45807   0.00000  Uiso   1.00
C456   C     0.89081   0.35886   0.54193   0.00000  Uiso   1.00
C457   C     0.60919   0.14114   0.45807   0.00000  Uiso   1.00
C458   C     0.64081   0.39114   0.45807   0.00000  Uiso   1.00
C459   C     0.85919   0.10886   0.54193   0.00000  Uiso   1.00
C460   C     0.85919   0.10886   0.45807   0.00000  Uiso   1.00
C461   C     0.64081   0.39114   0.54193   0.00000  Uiso   1.00
C462   C     0.85919   0.39114   0.54193   0.00000  Uiso   1.00
C463   C     0.94052   0.19072   0.50000   0.00000  Uiso   1.00
C464   C     0.64081   0.10886   0.45807   0.00000  Uiso   1.00
C465   C     0.64081   0.10886   0.54193   0.00000  Uiso   1.00
C466   C     0.85919   0.39114   0.45807   0.00000  Uiso   1.00
C467   C     0.59308   0.34269   0.50000   0.00000  Uiso   1.00
C468   C     0.90692   0.15731   0.50000   0.00000  Uiso   1.00
C469   C     0.90692   0.34269   0.50000   0.00000  Uiso   1.00
C470   C     0.59308   0.15731   0.50000   0.00000  Uiso   1.00
C471   C     0.84308   0.09269   0.50000   0.00000  Uiso   1.00
C472   C     0.65692   0.40731   0.50000   0.00000  Uiso   1.00
C473   C     0.65692   0.09269   0.50000   0.00000  Uiso   1.00
C474   C     0.55948   0.30928   0.50000   0.00000  Uiso   1.00
C475   C     0.84308   0.40731   0.50000   0.00000  Uiso   1.00
C476   C     0.80948   0.44072   0.50000   0.00000  Uiso   1.00
C477   C     0.69052   0.05928   0.50000   0.00000  Uiso   1.00
C478   C     0.69052   0.44072   0.50000   0.00000  Uiso   1.00
C479   C     0.80948   0.05928   0.50000   0.00000  Uiso   1.00
C480   C     0.50000   0.21005   0.35802   0.00000  Uiso   1.00
Cu481  Cu    0.50000   0.25000   0.54689   0.00000  Uiso   1.00
Cu482  Cu    0.50000   0.25000   0.45311   0.00000  Uiso   1.00
Cu483  Cu    0.75000   0.00000   0.54689   0.00000  Uiso   1.00
Cu484  Cu    0.75000   0.00000   0.45311   0.00000  Uiso   1.00
H485   H     0.90254   0.15334   0.42524   0.00000  Uiso   1.00
H486   H     0.84746   0.09666   0.57476   0.00000  Uiso   1.00
H487   H     0.84746   0.09666   0.42524   0.00000  Uiso   1.00
H488   H     0.65254   0.40334   0.57476   0.00000  Uiso   1.00
H489   H     0.84746   0.40334   0.57476   0.00000  Uiso   1.00
H490   H     0.65254   0.09666   0.42524   0.00000  Uiso   1.00
H491   H     0.65254   0.09666   0.57476   0.00000  Uiso   1.00
H492   H     0.84746   0.40334   0.42524   0.00000  Uiso   1.00
H493   H     0.59746   0.34666   0.57476   0.00000  Uiso   1.00
H494   H     0.59746   0.34666   0.42524   0.00000  Uiso   1.00
H495   H     0.90254   0.15334   0.57476   0.00000  Uiso   1.00
H496   H     0.59746   0.15334   0.57476   0.00000  Uiso   1.00
H497   H     0.90254   0.34666   0.42524   0.00000  Uiso   1.00
H498   H     0.90254   0.34666   0.57476   0.00000  Uiso   1.00
H499   H     0.59746   0.15334   0.42524   0.00000  Uiso   1.00
H500   H     0.65254   0.40334   0.42524   0.00000  Uiso   1.00
I501   I     0.50000   0.14580   0.39272   0.00000  Uiso   1.00
I502   I     0.50000   0.35420   0.60728   0.00000  Uiso   1.00
I503   I     0.50000   0.35420   0.39272   0.00000  Uiso   1.00
I504   I     0.50000   0.14580   0.60728   0.00000  Uiso   1.00
I505   I     0.75000   0.39580   0.39272   0.00000  Uiso   1.00
I506   I     0.75000   0.10420   0.60728   0.00000  Uiso   1.00
I507   I     0.75000   0.10420   0.39272   0.00000  Uiso   1.00
I508   I     0.75000   0.39580   0.60728   0.00000  Uiso   1.00
N509   N     0.50000   0.25000   0.61736   0.00000  Uiso   1.00
N510   N     0.50000   0.25000   0.38264   0.00000  Uiso   1.00
N511   N     0.75000   0.00000   0.61736   0.00000  Uiso   1.00
N512   N     0.75000   0.00000   0.38264   0.00000  Uiso   1.00
O513   O     0.54508   0.20491   0.53958   0.00000  Uiso   1.00
O514   O     0.70491   0.04509   0.46042   0.00000  Uiso   1.00
O515   O     0.70491   0.04509   0.53958   0.00000  Uiso   1.00
O516   O     0.79508   0.45491   0.46042   0.00000  Uiso   1.00
O517   O     0.70491   0.45491   0.46042   0.00000  Uiso   1.00
O518   O     0.79508   0.04509   0.53958   0.00000  Uiso   1.00
O519   O     0.79508   0.04509   0.46042   0.00000  Uiso   1.00
O520   O     0.70491   0.45491   0.53958   0.00000  Uiso   1.00
O521   O     0.95491   0.29509   0.46042   0.00000  Uiso   1.00
O522   O     0.95491   0.29509   0.53958   0.00000  Uiso   1.00
O523   O     0.54508   0.20491   0.46042   0.00000  Uiso   1.00
O524   O     0.95491   0.20491   0.46042   0.00000  Uiso   1.00
O525   O     0.54508   0.29509   0.53958   0.00000  Uiso   1.00
O526   O     0.54508   0.29509   0.46042   0.00000  Uiso   1.00
O527   O     0.95491   0.20491   0.53958   0.00000  Uiso   1.00
O528   O     0.79508   0.45491   0.53958   0.00000  Uiso   1.00
C529   C     0.05948   0.69072   0.50000   0.00000  Uiso   1.00
C530   C    -0.00000   0.78995   0.64198   0.00000  Uiso   1.00
C531   C    -0.00000   0.78995   0.35802   0.00000  Uiso   1.00
C532   C    -0.00000   0.71005   0.64198   0.00000  Uiso   1.00
C533   C     0.25000   0.96005   0.35802   0.00000  Uiso   1.00
C534   C     0.25000   0.53995   0.64198   0.00000  Uiso   1.00
C535   C     0.25000   0.53995   0.35802   0.00000  Uiso   1.00
C536   C     0.25000   0.96005   0.64198   0.00000  Uiso   1.00
C537   C     0.39081   0.64114   0.45807   0.00000  Uiso   1.00
C538   C     0.10919   0.85886   0.54193   0.00000  Uiso   1.00
C539   C     0.10919   0.85886   0.45807   0.00000  Uiso   1.00
C540   C     0.44052   0.80928   0.50000   0.00000  Uiso   1.00
C541   C     0.39081   0.64114   0.54193   0.00000  Uiso   1.00
C542   C     0.10919   0.64114   0.54193   0.00000  Uiso   1.00
C543   C     0.39081   0.85886   0.45807   0.00000  Uiso   1.00
C544   C     0.39081   0.85886   0.54193   0.00000  Uiso   1.00
C545   C     0.10919   0.64114   0.45807   0.00000  Uiso   1.00
C546   C     0.14081   0.89114   0.45807   0.00000  Uiso   1.00
C547   C     0.35919   0.60886   0.54193   0.00000  Uiso   1.00
C548   C     0.35919   0.60886   0.45807   0.00000  Uiso   1.00
C549   C     0.14081   0.89114   0.54193   0.00000  Uiso   1.00
C550   C     0.35919   0.89114   0.54193   0.00000  Uiso   1.00
C551   C     0.44052   0.69072   0.50000   0.00000  Uiso   1.00
C552   C     0.14081   0.60886   0.45807   0.00000  Uiso   1.00
C553   C     0.14081   0.60886   0.54193   0.00000  Uiso   1.00
C554   C     0.35919   0.89114   0.45807   0.00000  Uiso   1.00
C555   C     0.09308   0.84269   0.50000   0.00000  Uiso   1.00
C556   C     0.40692   0.65731   0.50000   0.00000  Uiso   1.00
C557   C     0.40692   0.84269   0.50000   0.00000  Uiso   1.00
C558   C     0.09308   0.65731   0.50000   0.00000  Uiso   1.00
C559   C     0.34308   0.59269   0.50000   0.00000  Uiso   1.00
C560   C     0.15692   0.90731   0.50000   0.00000  Uiso   1.00
C561   C     0.15692   0.59269   0.50000   0.00000  Uiso   1.00
C562   C     0.05948   0.80928   0.50000   0.00000  Uiso   1.00
C563   C     0.34308   0.90731   0.50000   0.00000  Uiso   1.00
C564   C     0.30948   0.94072   0.50000   0.00000  Uiso   1.00
C565   C     0.19052   0.55928   0.50000   0.00000  Uiso   1.00
C566   C     0.19052   0.94072   0.50000   0.00000  Uiso   1.00
C567   C     0.30948   0.55928   0.50000   0.00000  Uiso   1.00
C568   C    -0.00000   0.71005   0.35802   0.00000  Uiso   1.00
Cu569  Cu   -0.00000   0.75000   0.54689   0.00000  Uiso   1.00
Cu570  Cu   -0.00000   0.75000   0.45311   0.00000  Uiso   1.00
Cu571  Cu    0.25000   0.50000   0.54689   0.00000  Uiso   1.00
Cu572  Cu    0.25000   0.50000   0.45311   0.00000  Uiso   1.00
H573   H     0.40254   0.65334   0.42524   0.00000  Uiso   1.00
H574   H     0.34746   0.59666   0.57476   0.00000  Uiso   1.00
H575   H     0.34746   0.59666   0.42524   0.00000  Uiso   1.00
H576   H     0.15254   0.90334   0.57476   0.00000  Uiso   1.00
H577   H     0.34746   0.90334   0.57476   0.00000  Uiso   1.00
H578   H     0.15254   0.59666   0.42524   0.00000  Uiso   1.00
H579   H     0.15254   0.59666   0.57476   0.00000  Uiso   1.00
H580   H     0.34746   0.90334   0.42524   0.00000  Uiso   1.00
H581   H     0.09746   0.84666   0.57476   0.00000  Uiso   1.00
H582   H     0.09746   0.84666   0.42524   0.00000  Uiso   1.00
H583   H     0.40254   0.65334   0.57476   0.00000  Uiso   1.00
H584   H     0.09746   0.65334   0.57476   0.00000  Uiso   1.00
H585   H     0.40254   0.84666   0.42524   0.00000  Uiso   1.00
H586   H     0.40254   0.84666   0.57476   0.00000  Uiso   1.00
H587   H     0.09746   0.65334   0.42524   0.00000  Uiso   1.00
H588   H     0.15254   0.90334   0.42524   0.00000  Uiso   1.00
I589   I    -0.00000   0.64580   0.39272   0.00000  Uiso   1.00
I590   I    -0.00000   0.85420   0.60728   0.00000  Uiso   1.00
I591   I    -0.00000   0.85420   0.39272   0.00000  Uiso   1.00
I592   I    -0.00000   0.64580   0.60728   0.00000  Uiso   1.00
I593   I     0.25000   0.89580   0.39272   0.00000  Uiso   1.00
I594   I     0.25000   0.60420   0.60728   0.00000  Uiso   1.00
I595   I     0.25000   0.60420   0.39272   0.00000  Uiso   1.00
I596   I     0.25000   0.89580   0.60728   0.00000  Uiso   1.00
N597   N    -0.00000   0.75000   0.61736   0.00000  Uiso   1.00
N598   N    -0.00000   0.75000   0.38264   0.00000  Uiso   1.00
N599   N     0.25000   0.50000   0.61736   0.00000  Uiso   1.00
N600   N     0.25000   0.50000   0.38264   0.00000  Uiso   1.00
O601   O     0.04508   0.70491   0.53958   0.00000  Uiso   1.00
O602   O     0.20491   0.54509   0.46042   0.00000  Uiso   1.00
O603   O     0.20491   0.54509   0.53958   0.00000  Uiso   1.00
O604   O     0.29508   0.95491   0.46042   0.00000  Uiso   1.00
O605   O     0.20491   0.95491   0.46042   0.00000  Uiso   1.00
O606   O     0.29508   0.54509   0.53958   0.00000  Uiso   1.00
O607   O     0.29508   0.54509   0.46042   0.00000  Uiso   1.00
O608   O     0.20491   0.95491   0.53958   0.00000  Uiso   1.00
O609   O     0.45491   0.79509   0.46042   0.00000  Uiso   1.00
O610   O     0.45491   0.79509   0.53958   0.00000  Uiso   1.00
O611   O     0.04508   0.70491   0.46042   0.00000  Uiso   1.00
O612   O     0.45491   0.70491   0.46042   0.00000  Uiso   1.00
O613   O     0.04508   0.79509   0.53958   0.00000  Uiso   1.00
O614   O     0.04508   0.79509   0.46042   0.00000  Uiso   1.00
O615   O     0.45491   0.70491   0.53958   0.00000  Uiso   1.00
O616   O     0.29508   0.95491   0.53958   0.00000  Uiso   1.00
C617   C     0.55948   0.69072   0.50000   0.00000  Uiso   1.00
C618   C     0.50000   0.78995   0.64198   0.00000  Uiso   1.00
C619   C     0.50000   0.78995   0.35802   0.00000  Uiso   1.00
C620   C     0.50000   0.71005   0.64198   0.00000  Uiso   1.00
C621   C     0.75000   0.96005   0.35802   0.00000  Uiso   1.00
C622   C     0.75000   0.53995   0.64198   0.00000  Uiso   1.00
C623   C     0.75000   0.53995   0.35802   0.00000  Uiso   1.00
C624   C     0.75000   0.96005   0.64198   0.00000  Uiso   1.00
C625   C     0.89081   0.64114   0.45807   0.00000  Uiso   1.00
C626   C     0.60919   0.85886   0.54193   0.00000  Uiso   1.00
C627   C     0.60919   0.85886   0.45807   0.00000  Uiso   1.00
C628   C     0.94052   0.80928   0.50000   0.00000  Uiso   1.00
C629   C     0.89081   0.64114   0.54193   0.00000  Uiso   1.00
C630   C     0.60919   0.64114   0.54193   0.00000  Uiso   1.00
C631   C     0.89081   0.85886   0.45807   0.00000  Uiso   1.00
C632   C     0.89081   0.85886   0.54193   0.00000  Uiso   1.00
C633   C     0.60919   0.64114   0.45807   0.00000  Uiso   1.00
C634   C     0.64081   0.89114   0.45807   0.00000  Uiso   1.00
C635   C     0.85919   0.60886   0.54193   0.00000  Uiso   1.00
C636   C     0.85919   0.60886   0.45807   0.00000  Uiso   1.00
C637   C     0.64081   0.89114   0.54193   0.00000  Uiso   1.00
C638   C     0.85919   0.89114   0.54193   0.00000  Uiso   1.00
C639   C     0.94052   0.69072   0.50000   0.00000  Uiso   1.00
C640   C     0.64081   0.60886   0.45807   0.00000  Uiso   1.00
C641   C     0.64081   0.60886   0.54193   0.00000  Uiso   1.00
C642   C     0.85919   0.89114   0.45807   0.00000  Uiso   1.00
C643   C     0.59308   0.84269   0.50000   0.00000  Uiso   1.00
C644   C     0.90692   0.65731   0.50000   0.00000  Uiso   1.00
C645   C     0.90692   0.84269   0.50000   0.00000  Uiso   1.00
C646   C     0.59308   0.65731   0.50000   0.00000  Uiso   1.00
C647   C     0.84308   0.59269   0.50000   0.00000  Uiso   1.00
C648   C     0.65692   0.90731   0.50000   0.00000  Uiso   1.00
C649   C     0.65692   0.59269   0.50000   0.00000  Uiso   1.00
C650   C     0.55948   0.80928   0.50000   0.00000  Uiso   1.00
C651   C     0.84308   0.90731   0.50000   0.00000  Uiso   1.00
C652   C     0.80948   0.94072   0.50000   0.00000  Uiso   1.00
C653   C     0.69052   0.55928   0.50000   0.00000  Uiso   1.00
C654   C     0.69052   0.94072   0.50000   0.00000  Uiso   1.00
C655   C     0.80948   0.55928   0.50000   0.00000  Uiso   1.00
C656   C     0.50000   0.71005   0.35802   0.00000  Uiso   1.00
Cu657  Cu    0.50000   0.75000   0.54689   0.00000  Uiso   1.00
Cu658  Cu    0.50000   0.75000   0.45311   0.00000  Uiso   1.00
Cu659  Cu    0.75000   0.50000   0.54689   0.00000  Uiso   1.00
Cu660  Cu    0.75000   0.50000   0.45311   0.00000  Uiso   1.00
H661   H     0.90254   0.65334   0.42524   0.00000  Uiso   1.00
H662   H     0.84746   0.59666   0.57476   0.00000  Uiso   1.00
H663   H     0.84746   0.59666   0.42524   0.00000  Uiso   1.00
H664   H     0.65254   0.90334   0.57476   0.00000  Uiso   1.00
H665   H     0.84746   0.90334   0.57476   0.00000  Uiso   1.00
H666   H     0.65254   0.59666   0.42524   0.00000  Uiso   1.00
H667   H     0.65254   0.59666   0.57476   0.00000  Uiso   1.00
H668   H     0.84746   0.90334   0.42524   0.00000  Uiso   1.00
H669   H     0.59746   0.84666   0.57476   0.00000  Uiso   1.00
H670   H     0.59746   0.84666   0.42524   0.00000  Uiso   1.00
H671   H     0.90254   0.65334   0.57476   0.00000  Uiso   1.00
H672   H     0.59746   0.65334   0.57476   0.00000  Uiso   1.00
H673   H     0.90254   0.84666   0.42524   0.00000  Uiso   1.00
H674   H     0.90254   0.84666   0.57476   0.00000  Uiso   1.00
H675   H     0.59746   0.65334   0.42524   0.00000  Uiso   1.00
H676   H     0.65254   0.90334   0.42524   0.00000  Uiso   1.00
I677   I     0.50000   0.64580   0.39272   0.00000  Uiso   1.00
I678   I     0.50000   0.85420   0.60728   0.00000  Uiso   1.00
I679   I     0.50000   0.85420   0.39272   0.00000  Uiso   1.00
I680   I     0.50000   0.64580   0.60728   0.00000  Uiso   1.00
I681   I     0.75000   0.89580   0.39272   0.00000  Uiso   1.00
I682   I     0.75000   0.60420   0.60728   0.00000  Uiso   1.00
I683   I     0.75000   0.60420   0.39272   0.00000  Uiso   1.00
I684   I     0.75000   0.89580   0.60728   0.00000  Uiso   1.00
N685   N     0.50000   0.75000   0.61736   0.00000  Uiso   1.00
N686   N     0.50000   0.75000   0.38264   0.00000  Uiso   1.00
N687   N     0.75000   0.50000   0.61736   0.00000  Uiso   1.00
N688   N     0.75000   0.50000   0.38264   0.00000  Uiso   1.00
O689   O     0.54508   0.70491   0.53958   0.00000  Uiso   1.00
O690   O     0.70491   0.54509   0.46042   0.00000  Uiso   1.00
O691   O     0.70491   0.54509   0.53958   0.00000  Uiso   1.00
O692   O     0.79508   0.95491   0.46042   0.00000  Uiso   1.00
O693   O     0.70491   0.95491   0.46042   0.00000  Uiso   1.00
O694   O     0.79508   0.54509   0.53958   0.00000  Uiso   1.00
O695   O     0.79508   0.54509   0.46042   0.00000  Uiso   1.00
O696   O     0.70491   0.95491   0.53958   0.00000  Uiso   1.00
O697   O     0.95491   0.79509   0.46042   0.00000  Uiso   1.00
O698   O     0.95491   0.79509   0.53958   0.00000  Uiso   1.00
O699   O     0.54508   0.70491   0.46042   0.00000  Uiso   1.00
O700   O     0.95491   0.70491   0.46042   0.00000  Uiso   1.00
O701   O     0.54508   0.79509   0.53958   0.00000  Uiso   1.00
O702   O     0.54508   0.79509   0.46042   0.00000  Uiso   1.00
O703   O     0.95491   0.70491   0.53958   0.00000  Uiso   1.00
O704   O     0.79508   0.95491   0.53958   0.00000  Uiso   1.00
C705   C     0.05948   0.19072   0.83333   0.00000  Uiso   1.00
C706   C    -0.00000   0.28995   0.97531   0.00000  Uiso   1.00
C707   C    -0.00000   0.28995   0.69136   0.00000  Uiso   1.00
C708   C    -0.00000   0.21005   0.97531   0.00000  Uiso   1.00
C709   C     0.25000   0.46005   0.69136   0.00000  Uiso   1.00
C710   C     0.25000   0.03995   0.97531   0.00000  Uiso   1.00
C711   C     0.25000   0.03995   0.69136   0.00000  Uiso   1.00
C712   C     0.25000   0.46005   0.97531   0.00000  Uiso   1.00
C713   C     0.39081   0.14114   0.79140   0.00000  Uiso   1.00
C714   C     0.10919   0.35886   0.87526   0.00000  Uiso   1.00
C715   C     0.10919   0.35886   0.79140   0.00000  Uiso   1.00
C716   C     0.44052   0.30928   0.83333   0.00000  Uiso   1.00
C717   C     0.39081   0.14114   0.87526   0.00000  Uiso   1.00
C718   C     0.10919   0.14114   0.87526   0.00000  Uiso   1.00
C719   C     0.39081   0.35886   0.79140   0.00000  Uiso   1.00
C720   C     0.39081   0.35886   0.87526   0.00000  Uiso   1.00
C721   C     0.10919   0.14114   0.79140   0.00000  Uiso   1.00
C722   C     0.14081   0.39114   0.79140   0.00000  Uiso   1.00
C723   C     0.35919   0.10886   0.87526   0.00000  Uiso   1.00
C724   C     0.35919   0.10886   0.79140   0.00000  Uiso   1.00
C725   C     0.14081   0.39114   0.87526   0.00000  Uiso   1.00
C726   C     0.35919   0.39114   0.87526   0.00000  Uiso   1.00
C727   C     0.44052   0.19072   0.83333   0.00000  Uiso   1.00
C728   C     0.14081   0.10886   0.79140   0.00000  Uiso   1.00
C729   C     0.14081   0.10886   0.87526   0.00000  Uiso   1.00
C730   C     0.35919   0.39114   0.79140   0.00000  Uiso   1.00
C731   C     0.09308   0.34269   0.83333   0.00000  Uiso   1.00
C732   C     0.40692   0.15731   0.83333   0.00000  Uiso   1.00
C733   C     0.40692   0.34269   0.83333   0.00000  Uiso   1.00
C734   C     0.09308   0.15731   0.83333   0.00000  Uiso   1.00
C735   C     0.34308   0.09269   0.83333   0.00000  Uiso   1.00
C736   C     0.15692   0.40731   0.83333   0.00000  Uiso   1.00
C737   C     0.15692   0.09269   0.83333   0.00000  Uiso   1.00
C738   C     0.05948   0.30928   0.83333   0.00000  Uiso   1.00
C739   C     0.34308   0.40731   0.83333   0.00000  Uiso   1.00
C740   C     0.30948   0.44072   0.83333   0.00000  Uiso   1.00
C741   C     0.19052   0.05928   0.83333   0.00000  Uiso   1.00
C742   C     0.19052   0.44072   0.83333   0.00000  Uiso   1.00
C743   C     0.30948   0.05928   0.83333   0.00000  Uiso   1.00
C744   C    -0.00000   0.21005   0.69136   0.00000  Uiso   1.00
Cu745  Cu   -0.00000   0.25000   0.88022   0.00000  Uiso   1.00
Cu746  Cu   -0.00000   0.25000   0.78645   0.00000  Uiso   1.00
Cu747  Cu    0.25000   0.00000   0.88022   0.00000  Uiso   1.00
Cu748  Cu    0.25000   0.00000   0.78645   0.00000  Uiso   1.00
H749   H     0.40254   0.15334   0.75857   0.00000  Uiso   1.00
H750   H     0.34746   0.09666   0.90809   0.00000  Uiso   1.00
H751   H     0.34746   0.09666   0.75857   0.00000  Uiso   1.00
H752   H     0.15254   0.40334   0.90809   0.00000  Uiso   1.00
H753   H     0.34746   0.40334   0.90809   0.00000  Uiso   1.00
H754   H     0.15254   0.09666   0.75857   0.00000  Uiso   1.00
H755   H     0.15254   0.09666   0.90809   0.00000  Uiso   1.00
H756   H     0.34746   0.40334   0.75857   0.00000  Uiso   1.00
H757   H     0.09746   0.34666   0.90809   0.00000  Uiso   1.00
H758   H     0.09746   0.34666   0.75857   0.00000  Uiso   1.00
H759   H     0.40254   0.15334   0.90809   0.00000  Uiso   1.00
H760   H     0.09746   0.15334   0.90809   0.00000  Uiso   1.00
H761   H     0.40254   0.34666   0.75857   0.00000  Uiso   1.00
H762   H     0.40254   0.34666   0.90809   0.00000  Uiso   1.00
H763   H     0.09746   0.15334   0.75857   0.00000  Uiso   1.00
H764   H     0.15254   0.40334   0.75857   0.00000  Uiso   1.00
I765   I    -0.00000   0.14580   0.72605   0.00000  Uiso   1.00
I766   I    -0.00000   0.35420   0.94061   0.00000  Uiso   1.00
I767   I    -0.00000   0.35420   0.72605   0.00000  Uiso   1.00
I768   I    -0.00000   0.14580   0.94061   0.00000  Uiso   1.00
I769   I     0.25000   0.39580   0.72605   0.00000  Uiso   1.00
I770   I     0.25000   0.10420   0.94061   0.00000  Uiso   1.00
I771   I     0.25000   0.10420   0.72605   0.00000  Uiso   1.00
I772   I     0.25000   0.39580   0.94061   0.00000  Uiso   1.00
N773   N    -0.00000   0.25000   0.95069   0.00000  Uiso   1.00
N774   N    -0.00000   0.25000   0.71598   0.00000  Uiso   1.00
N775   N     0.25000   0.00000   0.95069   0.00000  Uiso   1.00
N776   N     0.25000   0.00000   0.71598   0.00000  Uiso   1.00
O777   O     0.04508   0.20491   0.87291   0.00000  Uiso   1.00
O778   O     0.20491   0.04509   0.79375   0.00000  Uiso   1.00
O779   O     0.20491   0.04509   0.87291   0.00000  Uiso   1.00
O780   O     0.29508   0.45491   0.79375   0.00000  Uiso   1.00
O781   O     0.20491   0.45491   0.79375   0.00000  Uiso   1.00
O782   O     0.29508   0.04509   0.87291   0.00000  Uiso   1.00
O783   O     0.29508   0.04509   0.79375   0.00000  Uiso   1.00
O784   O     0.20491   0.45491   0.87291   0.00000  Uiso   1.00
O785   O     0.45491   0.29509   0.79375   0.00000  Uiso   1.00
O786   O     0.45491   0.29509   0.87291   0.00000  Uiso   1.00
O787   O     0.04508   0.20491   0.79375   0.00000  Uiso   1.00
O788   O     0.45491   0.20491   0.79375   0.00000  Uiso   1.00
O789   O     0.04508   0.29509   0.87291   0.00000  Uiso   1.00
O790   O     0.04508   0.29509   0.79375   0.00000  Uiso   1.00
O791   O     0.45491   0.20491   0.87291   0.00000  Uiso   1.00
O792   O     0.29508   0.45491   0.87291   0.00000  Uiso   1.00
C793   C     0.55948   0.19072   0.83333   0.00000  Uiso   1.00
C794   C     0.50000   0.28995   0.97531   0.00000  Uiso   1.00
C795   C     0.50000   0.28995   0.69136   0.00000  Uiso   1.00
C796   C     0.50000   0.21005   0.97531   0.00000  Uiso   1.00
C797   C     0.75000   0.46005   0.69136   0.00000  Uiso   1.00
C798   C     0.75000   0.03995   0.97531   0.00000  Uiso   1.00
C799   C     0.75000   0.03995   0.69136   0.00000  Uiso   1.00
C800   C     0.75000   0.46005   0.97531   0.00000  Uiso   1.00
C801   C     0.89081   0.14114   0.79140   0.00000  Uiso   1.00
C802   C     0.60919   0.35886   0.87526   0.00000  Uiso   1.00
C803   C     0.60919   0.35886   0.79140   0.00000  Uiso   1.00
C804   C     0.94052   0.30928   0.83333   0.00000  Uiso   1.00
C805   C     0.89081   0.14114   0.87526   0.00000  Uiso   1.00
C806   C     0.60919   0.14114   0.87526   0.00000  Uiso   1.00
C807   C     0.89081   0.35886   0.79140   0.00000  Uiso   1.00
C808   C     0.89081   0.35886   0.87526   0.00000  Uiso   1.00
C809   C     0.60919   0.14114   0.79140   0.00000  Uiso   1.00
C810   C     0.64081   0.39114   0.79140   0.00000  Uiso   1.00
C811   C     0.85919   0.10886   0.87526   0.00000  Uiso   1.00
C812   C     0.85919   0.10886   0.79140   0.00000  Uiso   1.00
C813   C     0.64081   0.39114   0.87526   0.00000  Uiso   1.00
C814   C     0.85919   0.39114   0.87526   0.00000  Uiso   1.00
C815   C     0.94052   0.19072   0.83333   0.00000  Uiso   1.00
C816   C     0.64081   0.10886   0.79140   0.00000  Uiso   1.00
C817   C     0.64081   0.10886   0.87526   0.00000  Uiso   1.00
C818   C     0.85919   0.39114   0.79140   0.00000  Uiso   1.00
C819   C     0.59308   0.34269   0.83333   0.00000  Uiso   1.00
C820   C     0.90692   0.15731   0.83333   0.00000  Uiso   1.00
C821   C     0.90692   0.34269   0.83333   0.00000  Uiso   1.00
C822   C     0.59308   0.15731   0.83333   0.00000  Uiso   1.00
C823   C     0.84308   0.09269   0.83333   0.00000  Uiso   1.00
C824   C     0.65692   0.40731   0.83333   0.00000  Uiso   1.00
C825   C     0.65692   0.09269   0.83333   0.00000  Uiso   1.00
C826   C     0.55948   0.30928   0.83333   0.00000  Uiso   1.00
C827   C     0.84308   0.40731   0.83333   0.00000  Uiso   1.00
C828   C     0.80948   0.44072   0.83333   0.00000  Uiso   1.00
C829   C     0.69052   0.05928   0.83333   0.00000  Uiso   1.00
C830   C     0.69052   0.44072   0.83333   0.00000  Uiso   1.00
C831   C     0.80948   0.05928   0.83333   0.00000  Uiso   1.00
C832   C     0.50000   0.21005   0.69136   0.00000  Uiso   1.00
Cu833  Cu    0.50000   0.25000   0.88022   0.00000  Uiso   1.00
Cu834  Cu    0.50000   0.25000   0.78645   0.00000  Uiso   1.00
Cu835  Cu    0.75000   0.00000   0.88022   0.00000  Uiso   1.00
Cu836  Cu    0.75000   0.00000   0.78645   0.00000  Uiso   1.00
H837   H     0.90254   0.15334   0.75857   0.00000  Uiso   1.00
H838   H     0.84746   0.09666   0.90809   0.00000  Uiso   1.00
H839   H     0.84746   0.09666   0.75857   0.00000  Uiso   1.00
H840   H     0.65254   0.40334   0.90809   0.00000  Uiso   1.00
H841   H     0.84746   0.40334   0.90809   0.00000  Uiso   1.00
H842   H     0.65254   0.09666   0.75857   0.00000  Uiso   1.00
H843   H     0.65254   0.09666   0.90809   0.00000  Uiso   1.00
H844   H     0.84746   0.40334   0.75857   0.00000  Uiso   1.00
H845   H     0.59746   0.34666   0.90809   0.00000  Uiso   1.00
H846   H     0.59746   0.34666   0.75857   0.00000  Uiso   1.00
H847   H     0.90254   0.15334   0.90809   0.00000  Uiso   1.00
H848   H     0.59746   0.15334   0.90809   0.00000  Uiso   1.00
H849   H     0.90254   0.34666   0.75857   0.00000  Uiso   1.00
H850   H     0.90254   0.34666   0.90809   0.00000  Uiso   1.00
H851   H     0.59746   0.15334   0.75857   0.00000  Uiso   1.00
H852   H     0.65254   0.40334   0.75857   0.00000  Uiso   1.00
I853   I     0.50000   0.14580   0.72605   0.00000  Uiso   1.00
I854   I     0.50000   0.35420   0.94061   0.00000  Uiso   1.00
I855   I     0.50000   0.35420   0.72605   0.00000  Uiso   1.00
I856   I     0.50000   0.14580   0.94061   0.00000  Uiso   1.00
I857   I     0.75000   0.39580   0.72605   0.00000  Uiso   1.00
I858   I     0.75000   0.10420   0.94061   0.00000  Uiso   1.00
I859   I     0.75000   0.10420   0.72605   0.00000  Uiso   1.00
I860   I     0.75000   0.39580   0.94061   0.00000  Uiso   1.00
N861   N     0.50000   0.25000   0.95069   0.00000  Uiso   1.00
N862   N     0.50000   0.25000   0.71598   0.00000  Uiso   1.00
N863   N     0.75000   0.00000   0.95069   0.00000  Uiso   1.00
N864   N     0.75000   0.00000   0.71598   0.00000  Uiso   1.00
O865   O     0.54508   0.20491   0.87291   0.00000  Uiso   1.00
O866   O     0.70491   0.04509   0.79375   0.00000  Uiso   1.00
O867   O     0.70491   0.04509   0.87291   0.00000  Uiso   1.00
O868   O     0.79508   0.45491   0.79375   0.00000  Uiso   1.00
O869   O     0.70491   0.45491   0.79375   0.00000  Uiso   1.00
O870   O     0.79508   0.04509   0.87291   0.00000  Uiso   1.00
O871   O     0.79508   0.04509   0.79375   0.00000  Uiso   1.00
O872   O     0.70491   0.45491   0.87291   0.00000  Uiso   1.00
O873   O     0.95491   0.29509   0.79375   0.00000  Uiso   1.00
O874   O     0.95491   0.29509   0.87291   0.00000  Uiso   1.00
O875   O     0.54508   0.20491   0.79375   0.00000  Uiso   1.00
O876   O     0.95491   0.20491   0.79375   0.00000  Uiso   1.00
O877   O     0.54508   0.29509   0.87291   0.00000  Uiso   1.00
O878   O     0.54508   0.29509   0.79375   0.00000  Uiso   1.00
O879   O     0.95491   0.20491   0.87291   0.00000  Uiso   1.00
O880   O     0.79508   0.45491   0.87291   0.00000  Uiso   1.00
C881   C     0.05948   0.69072   0.83333   0.00000  Uiso   1.00
C882   C    -0.00000   0.78995   0.97531   0.00000  Uiso   1.00
C883   C    -0.00000   0.78995   0.69136   0.00000  Uiso   1.00
C884   C    -0.00000   0.71005   0.97531   0.00000  Uiso   1.00
C885   C     0.25000   0.96005   0.69136   0.00000  Uiso   1.00
C886   C     0.25000   0.53995   0.97531   0.00000  Uiso   1.00
C887   C     0.25000   0.53995   0.69136   0.00000  Uiso   1.00
C888   C     0.25000   0.96005   0.97531   0.00000  Uiso   1.00
C889   C     0.39081   0.64114   0.79140   0.00000  Uiso   1.00
C890   C     0.10919   0.85886   0.87526   0.00000  Uiso   1.00
C891   C     0.10919   0.85886   0.79140   0.00000  Uiso   1.00
C892   C     0.44052   0.80928   0.83333   0.00000  Uiso   1.00
C893   C     0.39081   0.64114   0.87526   0.00000  Uiso   1.00
C894   C     0.10919   0.64114   0.87526   0.00000  Uiso   1.00
C895   C     0.39081   0.85886   0.79140   0.00000  Uiso   1.00
C896   C     0.39081   0.85886   0.87526   0.00000  Uiso   1.00
C897   C     0.10919   0.64114   0.79140   0.00000  Uiso   1.00
C898   C     0.14081   0.89114   0.79140   0.00000  Uiso   1.00
C899   C     0.35919   0.60886   0.87526   0.00000  Uiso   1.00
C900   C     0.35919   0.60886   0.79140   0.00000  Uiso   1.00
C901   C     0.14081   0.89114   0.87526   0.00000  Uiso   1.00
C902   C     0.35919   0.89114   0.87526   0.00000  Uiso   1.00
C903   C     0.44052   0.69072   0.83333   0.00000  Uiso   1.00
C904   C     0.14081   0.60886   0.79140   0.00000  Uiso   1.00
C905   C     0.14081   0.60886   0.87526   0.00000  Uiso   1.00
C906   C     0.35919   0.89114   0.79140   0.00000  Uiso   1.00
C907   C     0.09308   0.84269   0.83333   0.00000  Uiso   1.00
C908   C     0.40692   0.65731   0.83333   0.00000  Uiso   1.00
C909   C     0.40692   0.84269   0.83333   0.00000  Uiso   1.00
C910   C     0.09308   0.65731   0.83333   0.00000  Uiso   1.00
C911   C     0.34308   0.59269   0.83333   0.00000  Uiso   1.00
C912   C     0.15692   0.90731   0.83333   0.00000  Uiso   1.00
C913   C     0.15692   0.59269   0.83333   0.00000  Uiso   1.00
C914   C     0.05948   0.80928   0.83333   0.00000  Uiso   1.00
C915   C     0.34308   0.90731   0.83333   0.00000  Uiso   1.00
C916   C     0.30948   0.94072   0.83333   0.00000  Uiso   1.00
C917   C     0.19052   0.55928   0.83333   0.00000  Uiso   1.00
C918   C     0.19052   0.94072   0.83333   0.00000  Uiso   1.00
C919   C     0.30948   0.55928   0.83333   0.00000  Uiso   1.00
C920   C    -0.00000   0.71005   0.69136   0.00000  Uiso   1.00
Cu921  Cu   -0.00000   0.75000   0.88022   0.00000  Uiso   1.00
Cu922  Cu   -0.00000   0.75000   0.78645   0.00000  Uiso   1.00
Cu923  Cu    0.25000   0.50000   0.88022   0.00000  Uiso   1.00
Cu924  Cu    0.25000   0.50000   0.78645   0.00000  Uiso   1.00
H925   H     0.40254   0.65334   0.75857   0.00000  Uiso   1.00
H926   H     0.34746   0.59666   0.90809   0.00000  Uiso   1.00
H927   H     0.34746   0.59666   0.75857   0.00000  Uiso   1.00
H928   H     0.15254   0.90334   0.90809   0.00000  Uiso   1.00
H929   H     0.34746   0.90334   0.90809   0.00000  Uiso   1.00
H930   H     0.15254   0.59666   0.75857   0.00000  Uiso   1.00
H931   H     0.15254   0.59666   0.90809   0.00000  Uiso   1.00
H932   H     0.34746   0.90334   0.75857   0.00000  Uiso   1.00
H933   H     0.09746   0.84666   0.90809   0.00000  Uiso   1.00
H934   H     0.09746   0.84666   0.75857   0.00000  Uiso   1.00
H935   H     0.40254   0.65334   0.90809   0.00000  Uiso   1.00
H936   H     0.09746   0.65334   0.90809   0.00000  Uiso   1.00
H937   H     0.40254   0.84666   0.75857   0.00000  Uiso   1.00
H938   H     0.40254   0.84666   0.90809   0.00000  Uiso   1.00
H939   H     0.09746   0.65334   0.75857   0.00000  Uiso   1.00
H940   H     0.15254   0.90334   0.75857   0.00000  Uiso   1.00
I941   I    -0.00000   0.64580   0.72605   0.00000  Uiso   1.00
I942   I    -0.00000   0.85420   0.94061   0.00000  Uiso   1.00
I943   I    -0.00000   0.85420   0.72605   0.00000  Uiso   1.00
I944   I    -0.00000   0.64580   0.94061   0.00000  Uiso   1.00
I945   I     0.25000   0.89580   0.72605   0.00000  Uiso   1.00
I946   I     0.25000   0.60420   0.94061   0.00000  Uiso   1.00
I947   I     0.25000   0.60420   0.72605   0.00000  Uiso   1.00
I948   I     0.25000   0.89580   0.94061   0.00000  Uiso   1.00
N949   N    -0.00000   0.75000   0.95069   0.00000  Uiso   1.00
N950   N    -0.00000   0.75000   0.71598   0.00000  Uiso   1.00
N951   N     0.25000   0.50000   0.95069   0.00000  Uiso   1.00
N952   N     0.25000   0.50000   0.71598   0.00000  Uiso   1.00
O953   O     0.04508   0.70491   0.87291   0.00000  Uiso   1.00
O954   O     0.20491   0.54509   0.79375   0.00000  Uiso   1.00
O955   O     0.20491   0.54509   0.87291   0.00000  Uiso   1.00
O956   O     0.29508   0.95491   0.79375   0.00000  Uiso   1.00
O957   O     0.20491   0.95491   0.79375   0.00000  Uiso   1.00
O958   O     0.29508   0.54509   0.87291   0.00000  Uiso   1.00
O959   O     0.29508   0.54509   0.79375   0.00000  Uiso   1.00
O960   O     0.20491   0.95491   0.87291   0.00000  Uiso   1.00
O961   O     0.45491   0.79509   0.79375   0.00000  Uiso   1.00
O962   O     0.45491   0.79509   0.87291   0.00000  Uiso   1.00
O963   O     0.04508   0.70491   0.79375   0.00000  Uiso   1.00
O964   O     0.45491   0.70491   0.79375   0.00000  Uiso   1.00
O965   O     0.04508   0.79509   0.87291   0.00000  Uiso   1.00
O966   O     0.04508   0.79509   0.79375   0.00000  Uiso   1.00
O967   O     0.45491   0.70491   0.87291   0.00000  Uiso   1.00
O968   O     0.29508   0.95491   0.87291   0.00000  Uiso   1.00
C969   C     0.55948   0.69072   0.83333   0.00000  Uiso   1.00
C970   C     0.50000   0.78995   0.97531   0.00000  Uiso   1.00
C971   C     0.50000   0.78995   0.69136   0.00000  Uiso   1.00
C972   C     0.50000   0.71005   0.97531   0.00000  Uiso   1.00
C973   C     0.75000   0.96005   0.69136   0.00000  Uiso   1.00
C974   C     0.75000   0.53995   0.97531   0.00000  Uiso   1.00
C975   C     0.75000   0.53995   0.69136   0.00000  Uiso   1.00
C976   C     0.75000   0.96005   0.97531   0.00000  Uiso   1.00
C977   C     0.89081   0.64114   0.79140   0.00000  Uiso   1.00
C978   C     0.60919   0.85886   0.87526   0.00000  Uiso   1.00
C979   C     0.60919   0.85886   0.79140   0.00000  Uiso   1.00
C980   C     0.94052   0.80928   0.83333   0.00000  Uiso   1.00
C981   C     0.89081   0.64114   0.87526   0.00000  Uiso   1.00
C982   C     0.60919   0.64114   0.87526   0.00000  Uiso   1.00
C983   C     0.89081   0.85886   0.79140   0.00000  Uiso   1.00
C984   C     0.89081   0.85886   0.87526   0.00000  Uiso   1.00
C985   C     0.60919   0.64114   0.79140   0.00000  Uiso   1.00
C986   C     0.64081   0.89114   0.79140   0.00000  Uiso   1.00
C987   C     0.85919   0.60886   0.87526   0.00000  Uiso   1.00
C988   C     0.85919   0.60886   0.79140   0.00000  Uiso   1.00
C989   C     0.64081   0.89114   0.87526   0.00000  Uiso   1.00
C990   C     0.85919   0.89114   0.87526   0.00000  Uiso   1.00
C991   C     0.94052   0.69072   0.83333   0.00000  Uiso   1.00
C992   C     0.64081   0.60886   0.79140   0.00000  Uiso   1.00
C993   C     0.64081   0.60886   0.87526   0.00000  Uiso   1.00
C994   C     0.85919   0.89114   0.79140   0.00000  Uiso   1.00
C995   C     0.59308   0.84269   0.83333   0.00000  Uiso   1.00
C996   C     0.90692   0.65731   0.83333   0.00000  Uiso   1.00
C997   C     0.90692   0.84269   0.83333   0.00000  Uiso   1.00
C998   C     0.59308   0.65731   0.83333   0.00000  Uiso   1.00
C999   C     0.84308   0.59269   0.83333   0.00000  Uiso   1.00
C1000  C     0.65692   0.90731   0.83333   0.00000  Uiso   1.00
C1001  C     0.65692   0.59269   0.83333   0.00000  Uiso   1.00
C1002  C     0.55948   0.80928   0.83333   0.00000  Uiso   1.00
C1003  C     0.84308   0.90731   0.83333   0.00000  Uiso   1.00
C1004  C     0.80948   0.94072   0.83333   0.00000  Uiso   1.00
C1005  C     0.69052   0.55928   0.83333   0.00000  Uiso   1.00
C1006  C     0.69052   0.94072   0.83333   0.00000  Uiso   1.00
C1007  C     0.80948   0.55928   0.83333   0.00000  Uiso   1.00
C1008  C     0.50000   0.71005   0.69136   0.00000  Uiso   1.00
Cu1009 Cu    0.50000   0.75000   0.88022   0.00000  Uiso   1.00
Cu1010 Cu    0.50000   0.75000   0.78645   0.00000  Uiso   1.00
Cu1011 Cu    0.75000   0.50000   0.88022   0.00000  Uiso   1.00
Cu1012 Cu    0.75000   0.50000   0.78645   0.00000  Uiso   1.00
H1013  H     0.90254   0.65334   0.75857   0.00000  Uiso   1.00
H1014  H     0.84746   0.59666   0.90809   0.00000  Uiso   1.00
H1015  H     0.84746   0.59666   0.75857   0.00000  Uiso   1.00
H1016  H     0.65254   0.90334   0.90809   0.00000  Uiso   1.00
H1017  H     0.84746   0.90334   0.90809   0.00000  Uiso   1.00
H1018  H     0.65254   0.59666   0.75857   0.00000  Uiso   1.00
H1019  H     0.65254   0.59666   0.90809   0.00000  Uiso   1.00
H1020  H     0.84746   0.90334   0.75857   0.00000  Uiso   1.00
H1021  H     0.59746   0.84666   0.90809   0.00000  Uiso   1.00
H1022  H     0.59746   0.84666   0.75857   0.00000  Uiso   1.00
H1023  H     0.90254   0.65334   0.90809   0.00000  Uiso   1.00
H1024  H     0.59746   0.65334   0.90809   0.00000  Uiso   1.00
H1025  H     0.90254   0.84666   0.75857   0.00000  Uiso   1.00
H1026  H     0.90254   0.84666   0.90809   0.00000  Uiso   1.00
H1027  H     0.59746   0.65334   0.75857   0.00000  Uiso   1.00
H1028  H     0.65254   0.90334   0.75857   0.00000  Uiso   1.00
I1029  I     0.50000   0.64580   0.72605   0.00000  Uiso   1.00
I1030  I     0.50000   0.85420   0.94061   0.00000  Uiso   1.00
I1031  I     0.50000   0.85420   0.72605   0.00000  Uiso   1.00
I1032  I     0.50000   0.64580   0.94061   0.00000  Uiso   1.00
I1033  I     0.75000   0.89580   0.72605   0.00000  Uiso   1.00
I1034  I     0.75000   0.60420   0.94061   0.00000  Uiso   1.00
I1035  I     0.75000   0.60420   0.72605   0.00000  Uiso   1.00
I1036  I     0.75000   0.89580   0.94061   0.00000  Uiso   1.00
N1037  N     0.50000   0.75000   0.95069   0.00000  Uiso   1.00
N1038  N     0.50000   0.75000   0.71598   0.00000  Uiso   1.00
N1039  N     0.75000   0.50000   0.95069   0.00000  Uiso   1.00
N1040  N     0.75000   0.50000   0.71598   0.00000  Uiso   1.00
O1041  O     0.54508   0.70491   0.87291   0.00000  Uiso   1.00
O1042  O     0.70491   0.54509   0.79375   0.00000  Uiso   1.00
O1043  O     0.70491   0.54509   0.87291   0.00000  Uiso   1.00
O1044  O     0.79508   0.95491   0.79375   0.00000  Uiso   1.00
O1045  O     0.70491   0.95491   0.79375   0.00000  Uiso   1.00
O1046  O     0.79508   0.54509   0.87291   0.00000  Uiso   1.00
O1047  O     0.79508   0.54509   0.79375   0.00000  Uiso   1.00
O1048  O     0.70491   0.95491   0.87291   0.00000  Uiso   1.00
O1049  O     0.95491   0.79509   0.79375   0.00000  Uiso   1.00
O1050  O     0.95491   0.79509   0.87291   0.00000  Uiso   1.00
O1051  O     0.54508   0.70491   0.79375   0.00000  Uiso   1.00
O1052  O     0.95491   0.70491   0.79375   0.00000  Uiso   1.00
O1053  O     0.54508   0.79509   0.87291   0.00000  Uiso   1.00
O1054  O     0.54508   0.79509   0.79375   0.00000  Uiso   1.00
O1055  O     0.95491   0.70491   0.87291   0.00000  Uiso   1.00
O1056  O     0.79508   0.95491   0.87291   0.00000  Uiso   1.00
loop_
_geom_bond_atom_site_label_1
_geom_bond_atom_site_label_2
_geom_bond_distance
_geom_bond_site_symmetry_2
_ccdc_geom_bond_type
C1     O83     1.303   .     A
C1     O73     1.303   .     A
C1     C30     1.452   .     S
C2     N69     1.380   .     A
C2     I62     2.150   .     S
C2     C355    1.430   .     S
C3     N70     1.380   .     A
C3     I63     2.150   .     S
C3     C706    1.430   1_554 S
C4     N69     1.380   .     A
C4     I64     2.150   .     S
C4     C392    1.430   .     S
C5     I65     2.150   .     S
C5     C712    1.430   1_554 S
C5     N248    1.380   .     S
C6     N71     1.380   .     A
C6     I66     2.150   .     S
C6     C359    1.430   .     S
C7     N72     1.380   .     A
C7     I67     2.150   .     S
C7     C710    1.430   1_554 S
C8     I68     2.150   .     S
C8     C357    1.430   .     S
C8     N247    1.380   .     S
C9     H45     1.083   .     S
C9     C20     1.383   .     A
C9     C28     1.401   .     A
C10    C27     1.401   .     A
C10    H53     1.083   .     S
C10    C21     1.383   .     A
C11    C18     1.383   .     A
C11    C27     1.401   .     A
C11    H54     1.083   .     S
C12    C29     1.452   .     S
C12    O82     1.303   .     A
C12    O81     1.303   .     A
C13    C28     1.401   .     A
C13    C19     1.383   .     A
C13    H55     1.083   .     S
C14    H56     1.083   .     S
C14    C30     1.401   .     A
C14    C25     1.383   .     A
C15    H57     1.083   .     S
C15    C29     1.401   .     A
C15    C26     1.383   .     A
C16    C22     1.383   .     A
C16    H58     1.083   .     S
C16    C29     1.401   .     A
C17    C30     1.401   .     A
C17    C24     1.383   .     A
C17    H59     1.083   .     S
C18    H60     1.083   .     S
C18    C32     1.401   .     A
C19    C31     1.401   .     A
C19    H46     1.083   .     S
C20    H47     1.083   .     S
C20    C31     1.401   .     A
C21    H48     1.083   .     S
C21    C32     1.401   .     A
C22    C35     1.401   .     A
C22    H49     1.083   .     S
C23    O87     1.303   .     A
C23    O84     1.303   .     A
C23    C28     1.452   .     S
C24    H50     1.083   .     S
C24    C33     1.401   .     A
C25    H51     1.083   .     S
C25    C33     1.401   .     A
C26    H52     1.083   .     S
C26    C35     1.401   .     A
C27    C34     1.452   .     S
C31    C39     1.452   .     S
C32    C38     1.452   .     S
C33    C37     1.452   .     S
C34    O86     1.303   .     A
C34    O85     1.303   .     A
C35    C36     1.452   .     S
C36    O88     1.303   .     A
C36    O76     1.303   .     A
C37    O74     1.303   .     A
C37    O75     1.303   .     A
C38    O77     1.303   .     A
C38    O80     1.303   .     A
C39    O78     1.303   .     A
C39    O79     1.303   .     A
C40    N70     1.380   .     A
C40    I61     2.150   .     S
C40    C708    1.430   1_554 S
Cu41   Cu42    2.716   .     S
Cu41   O175    1.964   1_455 S
Cu41   N69     2.041   .     S
Cu41   O170    1.964   1_455 S
Cu41   O73     1.964   .     S
Cu41   O85     1.964   .     S
Cu42   N70     2.041   .     S
Cu42   O169    1.964   1_455 S
Cu42   O172    1.964   1_455 S
Cu42   O83     1.964   .     S
Cu42   O86     1.964   .     S
Cu43   O78     1.964   .     S
Cu43   O75     1.964   .     S
Cu43   Cu44    2.716   .     S
Cu43   N71     2.041   .     S
Cu43   O256    1.964   1_545 S
Cu43   O264    1.964   1_545 S
Cu44   O74     1.964   .     S
Cu44   O79     1.964   .     S
Cu44   N72     2.041   .     S
Cu44   O252    1.964   1_545 S
Cu44   O253    1.964   1_545 S
N71    C184    1.380   1_545 S
N72    C181    1.380   1_545 S
O76    Cu220   1.964   .     S
O77    Cu220   1.964   .     S
O80    Cu219   1.964   .     S
O81    Cu130   1.964   .     S
O82    Cu129   1.964   .     S
O84    Cu130   1.964   .     S
O87    Cu129   1.964   .     S
O88    Cu219   1.964   .     S
C89    O171    1.303   .     A
C89    O161    1.303   .     A
C89    C118    1.452   .     S
C90    N157    1.380   .     A
C90    I150    2.150   .     S
C90    C443    1.430   .     S
C91    N158    1.380   .     A
C91    I151    2.150   .     S
C91    C794    1.430   1_554 S
C92    N157    1.380   .     A
C92    I152    2.150   .     S
C92    C480    1.430   .     S
C93    I153    2.150   .     S
C93    C800    1.430   1_554 S
C93    N336    1.380   .     S
C94    N159    1.380   .     A
C94    I154    2.150   .     S
C94    C447    1.430   .     S
C95    N160    1.380   .     A
C95    I155    2.150   .     S
C95    C798    1.430   1_554 S
C96    I156    2.150   .     S
C96    C445    1.430   .     S
C96    N335    1.380   .     S
C97    H133    1.083   .     S
C97    C108    1.383   .     A
C97    C116    1.401   .     A
C98    C115    1.401   .     A
C98    H141    1.083   .     S
C98    C109    1.383   .     A
C99    C106    1.383   .     A
C99    C115    1.401   .     A
C99    H142    1.083   .     S
C100   C117    1.452   .     S
C100   O170    1.303   .     A
C100   O169    1.303   .     A
C101   C116    1.401   .     A
C101   C107    1.383   .     A
C101   H143    1.083   .     S
C102   H144    1.083   .     S
C102   C118    1.401   .     A
C102   C113    1.383   .     A
C103   H145    1.083   .     S
C103   C117    1.401   .     A
C103   C114    1.383   .     A
C104   C110    1.383   .     A
C104   H146    1.083   .     S
C104   C117    1.401   .     A
C105   C118    1.401   .     A
C105   C112    1.383   .     A
C105   H147    1.083   .     S
C106   H148    1.083   .     S
C106   C120    1.401   .     A
C107   C119    1.401   .     A
C107   H134    1.083   .     S
C108   H135    1.083   .     S
C108   C119    1.401   .     A
C109   H136    1.083   .     S
C109   C120    1.401   .     A
C110   C123    1.401   .     A
C110   H137    1.083   .     S
C111   O175    1.303   .     A
C111   O172    1.303   .     A
C111   C116    1.452   .     S
C112   H138    1.083   .     S
C112   C121    1.401   .     A
C113   H139    1.083   .     S
C113   C121    1.401   .     A
C114   H140    1.083   .     S
C114   C123    1.401   .     A
C115   C122    1.452   .     S
C119   C127    1.452   .     S
C120   C126    1.452   .     S
C121   C125    1.452   .     S
C122   O174    1.303   .     A
C122   O173    1.303   .     A
C123   C124    1.452   .     S
C124   O176    1.303   .     A
C124   O164    1.303   .     A
C125   O162    1.303   .     A
C125   O163    1.303   .     A
C126   O165    1.303   .     A
C126   O168    1.303   .     A
C127   O166    1.303   .     A
C127   O167    1.303   .     A
C128   N158    1.380   .     A
C128   I149    2.150   .     S
C128   C796    1.430   1_554 S
Cu129  Cu130   2.716   .     S
Cu129  N157    2.041   .     S
Cu129  O161    1.964   .     S
Cu129  O173    1.964   .     S
Cu130  N158    2.041   .     S
Cu130  O171    1.964   .     S
Cu130  O174    1.964   .     S
Cu131  O166    1.964   .     S
Cu131  O163    1.964   .     S
Cu131  Cu132   2.716   .     S
Cu131  N159    2.041   .     S
Cu131  O344    1.964   1_545 S
Cu131  O352    1.964   1_545 S
Cu132  O162    1.964   .     S
Cu132  O167    1.964   .     S
Cu132  N160    2.041   .     S
Cu132  O340    1.964   1_545 S
Cu132  O341    1.964   1_545 S
N159   C272    1.380   1_545 S
N160   C269    1.380   1_545 S
O164   Cu308   1.964   .     S
O165   Cu308   1.964   .     S
O168   Cu307   1.964   .     S
O169   Cu42    1.964   1_655 S
O170   Cu41    1.964   1_655 S
O172   Cu42    1.964   1_655 S
O175   Cu41    1.964   1_655 S
O176   Cu307   1.964   .     S
C177   O259    1.303   .     A
C177   O249    1.303   .     A
C177   C206    1.452   .     S
C178   N245    1.380   .     A
C178   I238    2.150   .     S
C178   C531    1.430   .     S
C179   N246    1.380   .     A
C179   I239    2.150   .     S
C179   C882    1.430   1_554 S
C180   N245    1.380   .     A
C180   I240    2.150   .     S
C180   C568    1.430   .     S
C181   I241    2.150   .     S
C181   C888    1.430   1_554 S
C181   N72     1.380   1_565 S
C182   N247    1.380   .     A
C182   I242    2.150   .     S
C182   C535    1.430   .     S
C183   N248    1.380   .     A
C183   I243    2.150   .     S
C183   C886    1.430   1_554 S
C184   I244    2.150   .     S
C184   C533    1.430   .     S
C184   N71     1.380   1_565 S
C185   H221    1.083   .     S
C185   C196    1.383   .     A
C185   C204    1.401   .     A
C186   C203    1.401   .     A
C186   H229    1.083   .     S
C186   C197    1.383   .     A
C187   C194    1.383   .     A
C187   C203    1.401   .     A
C187   H230    1.083   .     S
C188   C205    1.452   .     S
C188   O258    1.303   .     A
C188   O257    1.303   .     A
C189   C204    1.401   .     A
C189   C195    1.383   .     A
C189   H231    1.083   .     S
C190   H232    1.083   .     S
C190   C206    1.401   .     A
C190   C201    1.383   .     A
C191   H233    1.083   .     S
C191   C205    1.401   .     A
C191   C202    1.383   .     A
C192   C198    1.383   .     A
C192   H234    1.083   .     S
C192   C205    1.401   .     A
C193   C206    1.401   .     A
C193   C200    1.383   .     A
C193   H235    1.083   .     S
C194   H236    1.083   .     S
C194   C208    1.401   .     A
C195   C207    1.401   .     A
C195   H222    1.083   .     S
C196   H223    1.083   .     S
C196   C207    1.401   .     A
C197   H224    1.083   .     S
C197   C208    1.401   .     A
C198   C211    1.401   .     A
C198   H225    1.083   .     S
C199   O263    1.303   .     A
C199   O260    1.303   .     A
C199   C204    1.452   .     S
C200   H226    1.083   .     S
C200   C209    1.401   .     A
C201   H227    1.083   .     S
C201   C209    1.401   .     A
C202   H228    1.083   .     S
C202   C211    1.401   .     A
C203   C210    1.452   .     S
C207   C215    1.452   .     S
C208   C214    1.452   .     S
C209   C213    1.452   .     S
C210   O262    1.303   .     A
C210   O261    1.303   .     A
C211   C212    1.452   .     S
C212   O264    1.303   .     A
C212   O252    1.303   .     A
C213   O250    1.303   .     A
C213   O251    1.303   .     A
C214   O253    1.303   .     A
C214   O256    1.303   .     A
C215   O254    1.303   .     A
C215   O255    1.303   .     A
C216   N246    1.380   .     A
C216   I237    2.150   .     S
C216   C884    1.430   1_554 S
Cu217  Cu218   2.716   .     S
Cu217  O351    1.964   1_455 S
Cu217  N245    2.041   .     S
Cu217  O346    1.964   1_455 S
Cu217  O249    1.964   .     S
Cu217  O261    1.964   .     S
Cu218  N246    2.041   .     S
Cu218  O345    1.964   1_455 S
Cu218  O348    1.964   1_455 S
Cu218  O259    1.964   .     S
Cu218  O262    1.964   .     S
Cu219  O254    1.964   .     S
Cu219  O251    1.964   .     S
Cu219  Cu220   2.716   .     S
Cu219  N247    2.041   .     S
Cu220  O250    1.964   .     S
Cu220  O255    1.964   .     S
Cu220  N248    2.041   .     S
O252   Cu44    1.964   1_565 S
O253   Cu44    1.964   1_565 S
O256   Cu43    1.964   1_565 S
O257   Cu306   1.964   .     S
O258   Cu305   1.964   .     S
O260   Cu306   1.964   .     S
O263   Cu305   1.964   .     S
O264   Cu43    1.964   1_565 S
C265   O347    1.303   .     A
C265   O337    1.303   .     A
C265   C294    1.452   .     S
C266   N333    1.380   .     A
C266   I326    2.150   .     S
C266   C619    1.430   .     S
C267   N334    1.380   .     A
C267   I327    2.150   .     S
C267   C970    1.430   1_554 S
C268   N333    1.380   .     A
C268   I328    2.150   .     S
C268   C656    1.430   .     S
C269   I329    2.150   .     S
C269   C976    1.430   1_554 S
C269   N160    1.380   1_565 S
C270   N335    1.380   .     A
C270   I330    2.150   .     S
C270   C623    1.430   .     S
C271   N336    1.380   .     A
C271   I331    2.150   .     S
C271   C974    1.430   1_554 S
C272   I332    2.150   .     S
C272   C621    1.430   .     S
C272   N159    1.380   1_565 S
C273   H309    1.083   .     S
C273   C284    1.383   .     A
C273   C292    1.401   .     A
C274   C291    1.401   .     A
C274   H317    1.083   .     S
C274   C285    1.383   .     A
C275   C282    1.383   .     A
C275   C291    1.401   .     A
C275   H318    1.083   .     S
C276   C293    1.452   .     S
C276   O346    1.303   .     A
C276   O345    1.303   .     A
C277   C292    1.401   .     A
C277   C283    1.383   .     A
C277   H319    1.083   .     S
C278   H320    1.083   .     S
C278   C294    1.401   .     A
C278   C289    1.383   .     A
C279   H321    1.083   .     S
C279   C293    1.401   .     A
C279   C290    1.383   .     A
C280   C286    1.383   .     A
C280   H322    1.083   .     S
C280   C293    1.401   .     A
C281   C294    1.401   .     A
C281   C288    1.383   .     A
C281   H323    1.083   .     S
C282   H324    1.083   .     S
C282   C296    1.401   .     A
C283   C295    1.401   .     A
C283   H310    1.083   .     S
C284   H311    1.083   .     S
C284   C295    1.401   .     A
C285   H312    1.083   .     S
C285   C296    1.401   .     A
C286   C299    1.401   .     A
C286   H313    1.083   .     S
C287   O351    1.303   .     A
C287   O348    1.303   .     A
C287   C292    1.452   .     S
C288   H314    1.083   .     S
C288   C297    1.401   .     A
C289   H315    1.083   .     S
C289   C297    1.401   .     A
C290   H316    1.083   .     S
C290   C299    1.401   .     A
C291   C298    1.452   .     S
C295   C303    1.452   .     S
C296   C302    1.452   .     S
C297   C301    1.452   .     S
C298   O350    1.303   .     A
C298   O349    1.303   .     A
C299   C300    1.452   .     S
C300   O352    1.303   .     A
C300   O340    1.303   .     A
C301   O338    1.303   .     A
C301   O339    1.303   .     A
C302   O341    1.303   .     A
C302   O344    1.303   .     A
C303   O342    1.303   .     A
C303   O343    1.303   .     A
C304   N334    1.380   .     A
C304   I325    2.150   .     S
C304   C972    1.430   1_554 S
Cu305  Cu306   2.716   .     S
Cu305  N333    2.041   .     S
Cu305  O337    1.964   .     S
Cu305  O349    1.964   .     S
Cu306  N334    2.041   .     S
Cu306  O347    1.964   .     S
Cu306  O350    1.964   .     S
Cu307  O342    1.964   .     S
Cu307  O339    1.964   .     S
Cu307  Cu308   2.716   .     S
Cu307  N335    2.041   .     S
Cu308  O338    1.964   .     S
Cu308  O343    1.964   .     S
Cu308  N336    2.041   .     S
O340   Cu132   1.964   1_565 S
O341   Cu132   1.964   1_565 S
O344   Cu131   1.964   1_565 S
O345   Cu218   1.964   1_655 S
O346   Cu217   1.964   1_655 S
O348   Cu218   1.964   1_655 S
O351   Cu217   1.964   1_655 S
O352   Cu131   1.964   1_565 S
C353   O435    1.303   .     A
C353   O425    1.303   .     A
C353   C382    1.452   .     S
C354   N421    1.380   .     A
C354   I414    2.150   .     S
C354   C707    1.430   .     S
C355   N422    1.380   .     A
C355   I415    2.150   .     S
C356   N421    1.380   .     A
C356   I416    2.150   .     S
C356   C744    1.430   .     S
C357   I417    2.150   .     S
C357   N600    1.380   .     S
C358   N423    1.380   .     A
C358   I418    2.150   .     S
C358   C711    1.430   .     S
C359   N424    1.380   .     A
C359   I419    2.150   .     S
C360   I420    2.150   .     S
C360   C709    1.430   .     S
C360   N599    1.380   .     S
C361   H397    1.083   .     S
C361   C372    1.383   .     A
C361   C380    1.401   .     A
C362   C379    1.401   .     A
C362   H405    1.083   .     S
C362   C373    1.383   .     A
C363   C370    1.383   .     A
C363   C379    1.401   .     A
C363   H406    1.083   .     S
C364   C381    1.452   .     S
C364   O434    1.303   .     A
C364   O433    1.303   .     A
C365   C380    1.401   .     A
C365   C371    1.383   .     A
C365   H407    1.083   .     S
C366   H408    1.083   .     S
C366   C382    1.401   .     A
C366   C377    1.383   .     A
C367   H409    1.083   .     S
C367   C381    1.401   .     A
C367   C378    1.383   .     A
C368   C374    1.383   .     A
C368   H410    1.083   .     S
C368   C381    1.401   .     A
C369   C382    1.401   .     A
C369   C376    1.383   .     A
C369   H411    1.083   .     S
C370   H412    1.083   .     S
C370   C384    1.401   .     A
C371   C383    1.401   .     A
C371   H398    1.083   .     S
C372   H399    1.083   .     S
C372   C383    1.401   .     A
C373   H400    1.083   .     S
C373   C384    1.401   .     A
C374   C387    1.401   .     A
C374   H401    1.083   .     S
C375   O439    1.303   .     A
C375   O436    1.303   .     A
C375   C380    1.452   .     S
C376   H402    1.083   .     S
C376   C385    1.401   .     A
C377   H403    1.083   .     S
C377   C385    1.401   .     A
C378   H404    1.083   .     S
C378   C387    1.401   .     A
C379   C386    1.452   .     S
C383   C391    1.452   .     S
C384   C390    1.452   .     S
C385   C389    1.452   .     S
C386   O438    1.303   .     A
C386   O437    1.303   .     A
C387   C388    1.452   .     S
C388   O440    1.303   .     A
C388   O428    1.303   .     A
C389   O426    1.303   .     A
C389   O427    1.303   .     A
C390   O429    1.303   .     A
C390   O432    1.303   .     A
C391   O430    1.303   .     A
C391   O431    1.303   .     A
C392   N422    1.380   .     A
C392   I413    2.150   .     S
Cu393  Cu394   2.716   .     S
Cu393  O527    1.964   1_455 S
Cu393  N421    2.041   .     S
Cu393  O522    1.964   1_455 S
Cu393  O425    1.964   .     S
Cu393  O437    1.964   .     S
Cu394  N422    2.041   .     S
Cu394  O521    1.964   1_455 S
Cu394  O524    1.964   1_455 S
Cu394  O435    1.964   .     S
Cu394  O438    1.964   .     S
Cu395  O430    1.964   .     S
Cu395  O427    1.964   .     S
Cu395  Cu396   2.716   .     S
Cu395  N423    2.041   .     S
Cu395  O608    1.964   1_545 S
Cu395  O616    1.964   1_545 S
Cu396  O426    1.964   .     S
Cu396  O431    1.964   .     S
Cu396  N424    2.041   .     S
Cu396  O604    1.964   1_545 S
Cu396  O605    1.964   1_545 S
N423   C536    1.380   1_545 S
N424   C533    1.380   1_545 S
O428   Cu572   1.964   .     S
O429   Cu572   1.964   .     S
O432   Cu571   1.964   .     S
O433   Cu482   1.964   .     S
O434   Cu481   1.964   .     S
O436   Cu482   1.964   .     S
O439   Cu481   1.964   .     S
O440   Cu571   1.964   .     S
C441   O523    1.303   .     A
C441   O513    1.303   .     A
C441   C470    1.452   .     S
C442   N509    1.380   .     A
C442   I502    2.150   .     S
C442   C795    1.430   .     S
C443   N510    1.380   .     A
C443   I503    2.150   .     S
C444   N509    1.380   .     A
C444   I504    2.150   .     S
C444   C832    1.430   .     S
C445   I505    2.150   .     S
C445   N688    1.380   .     S
C446   N511    1.380   .     A
C446   I506    2.150   .     S
C446   C799    1.430   .     S
C447   N512    1.380   .     A
C447   I507    2.150   .     S
C448   I508    2.150   .     S
C448   C797    1.430   .     S
C448   N687    1.380   .     S
C449   H485    1.083   .     S
C449   C460    1.383   .     A
C449   C468    1.401   .     A
C450   C467    1.401   .     A
C450   H493    1.083   .     S
C450   C461    1.383   .     A
C451   C458    1.383   .     A
C451   C467    1.401   .     A
C451   H494    1.083   .     S
C452   C469    1.452   .     S
C452   O522    1.303   .     A
C452   O521    1.303   .     A
C453   C468    1.401   .     A
C453   C459    1.383   .     A
C453   H495    1.083   .     S
C454   H496    1.083   .     S
C454   C470    1.401   .     A
C454   C465    1.383   .     A
C455   H497    1.083   .     S
C455   C469    1.401   .     A
C455   C466    1.383   .     A
C456   C462    1.383   .     A
C456   H498    1.083   .     S
C456   C469    1.401   .     A
C457   C470    1.401   .     A
C457   C464    1.383   .     A
C457   H499    1.083   .     S
C458   H500    1.083   .     S
C458   C472    1.401   .     A
C459   C471    1.401   .     A
C459   H486    1.083   .     S
C460   H487    1.083   .     S
C460   C471    1.401   .     A
C461   H488    1.083   .     S
C461   C472    1.401   .     A
C462   C475    1.401   .     A
C462   H489    1.083   .     S
C463   O527    1.303   .     A
C463   O524    1.303   .     A
C463   C468    1.452   .     S
C464   H490    1.083   .     S
C464   C473    1.401   .     A
C465   H491    1.083   .     S
C465   C473    1.401   .     A
C466   H492    1.083   .     S
C466   C475    1.401   .     A
C467   C474    1.452   .     S
C471   C479    1.452   .     S
C472   C478    1.452   .     S
C473   C477    1.452   .     S
C474   O526    1.303   .     A
C474   O525    1.303   .     A
C475   C476    1.452   .     S
C476   O528    1.303   .     A
C476   O516    1.303   .     A
C477   O514    1.303   .     A
C477   O515    1.303   .     A
C478   O517    1.303   .     A
C478   O520    1.303   .     A
C479   O518    1.303   .     A
C479   O519    1.303   .     A
C480   N510    1.380   .     A
C480   I501    2.150   .     S
Cu481  Cu482   2.716   .     S
Cu481  N509    2.041   .     S
Cu481  O513    1.964   .     S
Cu481  O525    1.964   .     S
Cu482  N510    2.041   .     S
Cu482  O523    1.964   .     S
Cu482  O526    1.964   .     S
Cu483  O518    1.964   .     S
Cu483  O515    1.964   .     S
Cu483  Cu484   2.716   .     S
Cu483  N511    2.041   .     S
Cu483  O696    1.964   1_545 S
Cu483  O704    1.964   1_545 S
Cu484  O514    1.964   .     S
Cu484  O519    1.964   .     S
Cu484  N512    2.041   .     S
Cu484  O692    1.964   1_545 S
Cu484  O693    1.964   1_545 S
N511   C624    1.380   1_545 S
N512   C621    1.380   1_545 S
O516   Cu660   1.964   .     S
O517   Cu660   1.964   .     S
O520   Cu659   1.964   .     S
O521   Cu394   1.964   1_655 S
O522   Cu393   1.964   1_655 S
O524   Cu394   1.964   1_655 S
O527   Cu393   1.964   1_655 S
O528   Cu659   1.964   .     S
C529   O611    1.303   .     A
C529   O601    1.303   .     A
C529   C558    1.452   .     S
C530   N597    1.380   .     A
C530   I590    2.150   .     S
C530   C883    1.430   .     S
C531   N598    1.380   .     A
C531   I591    2.150   .     S
C532   N597    1.380   .     A
C532   I592    2.150   .     S
C532   C920    1.430   .     S
C533   I593    2.150   .     S
C533   N424    1.380   1_565 S
C534   N599    1.380   .     A
C534   I594    2.150   .     S
C534   C887    1.430   .     S
C535   N600    1.380   .     A
C535   I595    2.150   .     S
C536   I596    2.150   .     S
C536   C885    1.430   .     S
C536   N423    1.380   1_565 S
C537   H573    1.083   .     S
C537   C548    1.383   .     A
C537   C556    1.401   .     A
C538   C555    1.401   .     A
C538   H581    1.083   .     S
C538   C549    1.383   .     A
C539   C546    1.383   .     A
C539   C555    1.401   .     A
C539   H582    1.083   .     S
C540   C557    1.452   .     S
C540   O610    1.303   .     A
C540   O609    1.303   .     A
C541   C556    1.401   .     A
C541   C547    1.383   .     A
C541   H583    1.083   .     S
C542   H584    1.083   .     S
C542   C558    1.401   .     A
C542   C553    1.383   .     A
C543   H585    1.083   .     S
C543   C557    1.401   .     A
C543   C554    1.383   .     A
C544   C550    1.383   .     A
C544   H586    1.083   .     S
C544   C557    1.401   .     A
C545   C558    1.401   .     A
C545   C552    1.383   .     A
C545   H587    1.083   .     S
C546   H588    1.083   .     S
C546   C560    1.401   .     A
C547   C559    1.401   .     A
C547   H574    1.083   .     S
C548   H575    1.083   .     S
C548   C559    1.401   .     A
C549   H576    1.083   .     S
C549   C560    1.401   .     A
C550   C563    1.401   .     A
C550   H577    1.083   .     S
C551   O615    1.303   .     A
C551   O612    1.303   .     A
C551   C556    1.452   .     S
C552   H578    1.083   .     S
C552   C561    1.401   .     A
C553   H579    1.083   .     S
C553   C561    1.401   .     A
C554   H580    1.083   .     S
C554   C563    1.401   .     A
C555   C562    1.452   .     S
C559   C567    1.452   .     S
C560   C566    1.452   .     S
C561   C565    1.452   .     S
C562   O614    1.303   .     A
C562   O613    1.303   .     A
C563   C564    1.452   .     S
C564   O616    1.303   .     A
C564   O604    1.303   .     A
C565   O602    1.303   .     A
C565   O603    1.303   .     A
C566   O605    1.303   .     A
C566   O608    1.303   .     A
C567   O606    1.303   .     A
C567   O607    1.303   .     A
C568   N598    1.380   .     A
C568   I589    2.150   .     S
Cu569  Cu570   2.716   .     S
Cu569  O703    1.964   1_455 S
Cu569  N597    2.041   .     S
Cu569  O698    1.964   1_455 S
Cu569  O601    1.964   .     S
Cu569  O613    1.964   .     S
Cu570  N598    2.041   .     S
Cu570  O697    1.964   1_455 S
Cu570  O700    1.964   1_455 S
Cu570  O611    1.964   .     S
Cu570  O614    1.964   .     S
Cu571  O606    1.964   .     S
Cu571  O603    1.964   .     S
Cu571  Cu572   2.716   .     S
Cu571  N599    2.041   .     S
Cu572  O602    1.964   .     S
Cu572  O607    1.964   .     S
Cu572  N600    2.041   .     S
O604   Cu396   1.964   1_565 S
O605   Cu396   1.964   1_565 S
O608   Cu395   1.964   1_565 S
O609   Cu658   1.964   .     S
O610   Cu657   1.964   .     S
O612   Cu658   1.964   .     S
O615   Cu657   1.964   .     S
O616   Cu395   1.964   1_565 S
C617   O699    1.303   .     A
C617   O689    1.303   .     A
C617   C646    1.452   .     S
C618   N685    1.380   .     A
C618   I678    2.150   .     S
C618   C971    1.430   .     S
C619   N686    1.380   .     A
C619   I679    2.150   .     S
C620   N685    1.380   .     A
C620   I680    2.150   .     S
C620   C1008   1.430   .     S
C621   I681    2.150   .     S
C621   N512    1.380   1_565 S
C622   N687    1.380   .     A
C622   I682    2.150   .     S
C622   C975    1.430   .     S
C623   N688    1.380   .     A
C623   I683    2.150   .     S
C624   I684    2.150   .     S
C624   C973    1.430   .     S
C624   N511    1.380   1_565 S
C625   H661    1.083   .     S
C625   C636    1.383   .     A
C625   C644    1.401   .     A
C626   C643    1.401   .     A
C626   H669    1.083   .     S
C626   C637    1.383   .     A
C627   C634    1.383   .     A
C627   C643    1.401   .     A
C627   H670    1.083   .     S
C628   C645    1.452   .     S
C628   O698    1.303   .     A
C628   O697    1.303   .     A
C629   C644    1.401   .     A
C629   C635    1.383   .     A
C629   H671    1.083   .     S
C630   H672    1.083   .     S
C630   C646    1.401   .     A
C630   C641    1.383   .     A
C631   H673    1.083   .     S
C631   C645    1.401   .     A
C631   C642    1.383   .     A
C632   C638    1.383   .     A
C632   H674    1.083   .     S
C632   C645    1.401   .     A
C633   C646    1.401   .     A
C633   C640    1.383   .     A
C633   H675    1.083   .     S
C634   H676    1.083   .     S
C634   C648    1.401   .     A
C635   C647    1.401   .     A
C635   H662    1.083   .     S
C636   H663    1.083   .     S
C636   C647    1.401   .     A
C637   H664    1.083   .     S
C637   C648    1.401   .     A
C638   C651    1.401   .     A
C638   H665    1.083   .     S
C639   O703    1.303   .     A
C639   O700    1.303   .     A
C639   C644    1.452   .     S
C640   H666    1.083   .     S
C640   C649    1.401   .     A
C641   H667    1.083   .     S
C641   C649    1.401   .     A
C642   H668    1.083   .     S
C642   C651    1.401   .     A
C643   C650    1.452   .     S
C647   C655    1.452   .     S
C648   C654    1.452   .     S
C649   C653    1.452   .     S
C650   O702    1.303   .     A
C650   O701    1.303   .     A
C651   C652    1.452   .     S
C652   O704    1.303   .     A
C652   O692    1.303   .     A
C653   O690    1.303   .     A
C653   O691    1.303   .     A
C654   O693    1.303   .     A
C654   O696    1.303   .     A
C655   O694    1.303   .     A
C655   O695    1.303   .     A
C656   N686    1.380   .     A
C656   I677    2.150   .     S
Cu657  Cu658   2.716   .     S
Cu657  N685    2.041   .     S
Cu657  O689    1.964   .     S
Cu657  O701    1.964   .     S
Cu658  N686    2.041   .     S
Cu658  O699    1.964   .     S
Cu658  O702    1.964   .     S
Cu659  O694    1.964   .     S
Cu659  O691    1.964   .     S
Cu659  Cu660   2.716   .     S
Cu659  N687    2.041   .     S
Cu660  O690    1.964   .     S
Cu660  O695    1.964   .     S
Cu660  N688    2.041   .     S
O692   Cu484   1.964   1_565 S
O693   Cu484   1.964   1_565 S
O696   Cu483   1.964   1_565 S
O697   Cu570   1.964   1_655 S
O698   Cu569   1.964   1_655 S
O700   Cu570   1.964   1_655 S
O703   Cu569   1.964   1_655 S
O704   Cu483   1.964   1_565 S
C705   O787    1.303   .     A
C705   O777    1.303   .     A
C705   C734    1.452   .     S
C706   N773    1.380   .     A
C706   I766    2.150   .     S
C706   C3      1.430   1_556 S
C707   N774    1.380   .     A
C707   I767    2.150   .     S
C708   N773    1.380   .     A
C708   I768    2.150   .     S
C708   C40     1.430   1_556 S
C709   I769    2.150   .     S
C709   N952    1.380   .     S
C710   N775    1.380   .     A
C710   I770    2.150   .     S
C710   C7      1.430   1_556 S
C711   N776    1.380   .     A
C711   I771    2.150   .     S
C712   I772    2.150   .     S
C712   C5      1.430   1_556 S
C712   N951    1.380   .     S
C713   H749    1.083   .     S
C713   C724    1.383   .     A
C713   C732    1.401   .     A
C714   C731    1.401   .     A
C714   H757    1.083   .     S
C714   C725    1.383   .     A
C715   C722    1.383   .     A
C715   C731    1.401   .     A
C715   H758    1.083   .     S
C716   C733    1.452   .     S
C716   O786    1.303   .     A
C716   O785    1.303   .     A
C717   C732    1.401   .     A
C717   C723    1.383   .     A
C717   H759    1.083   .     S
C718   H760    1.083   .     S
C718   C734    1.401   .     A
C718   C729    1.383   .     A
C719   H761    1.083   .     S
C719   C733    1.401   .     A
C719   C730    1.383   .     A
C720   C726    1.383   .     A
C720   H762    1.083   .     S
C720   C733    1.401   .     A
C721   C734    1.401   .     A
C721   C728    1.383   .     A
C721   H763    1.083   .     S
C722   H764    1.083   .     S
C722   C736    1.401   .     A
C723   C735    1.401   .     A
C723   H750    1.083   .     S
C724   H751    1.083   .     S
C724   C735    1.401   .     A
C725   H752    1.083   .     S
C725   C736    1.401   .     A
C726   C739    1.401   .     A
C726   H753    1.083   .     S
C727   O791    1.303   .     A
C727   O788    1.303   .     A
C727   C732    1.452   .     S
C728   H754    1.083   .     S
C728   C737    1.401   .     A
C729   H755    1.083   .     S
C729   C737    1.401   .     A
C730   H756    1.083   .     S
C730   C739    1.401   .     A
C731   C738    1.452   .     S
C735   C743    1.452   .     S
C736   C742    1.452   .     S
C737   C741    1.452   .     S
C738   O790    1.303   .     A
C738   O789    1.303   .     A
C739   C740    1.452   .     S
C740   O792    1.303   .     A
C740   O780    1.303   .     A
C741   O778    1.303   .     A
C741   O779    1.303   .     A
C742   O781    1.303   .     A
C742   O784    1.303   .     A
C743   O782    1.303   .     A
C743   O783    1.303   .     A
C744   N774    1.380   .     A
C744   I765    2.150   .     S
Cu745  Cu746   2.716   .     S
Cu745  O879    1.964   1_455 S
Cu745  N773    2.041   .     S
Cu745  O874    1.964   1_455 S
Cu745  O777    1.964   .     S
Cu745  O789    1.964   .     S
Cu746  N774    2.041   .     S
Cu746  O873    1.964   1_455 S
Cu746  O876    1.964   1_455 S
Cu746  O787    1.964   .     S
Cu746  O790    1.964   .     S
Cu747  O782    1.964   .     S
Cu747  O779    1.964   .     S
Cu747  Cu748   2.716   .     S
Cu747  N775    2.041   .     S
Cu747  O960    1.964   1_545 S
Cu747  O968    1.964   1_545 S
Cu748  O778    1.964   .     S
Cu748  O783    1.964   .     S
Cu748  N776    2.041   .     S
Cu748  O956    1.964   1_545 S
Cu748  O957    1.964   1_545 S
N775   C888    1.380   1_545 S
N776   C885    1.380   1_545 S
O780   Cu924   1.964   .     S
O781   Cu924   1.964   .     S
O784   Cu923   1.964   .     S
O785   Cu834   1.964   .     S
O786   Cu833   1.964   .     S
O788   Cu834   1.964   .     S
O791   Cu833   1.964   .     S
O792   Cu923   1.964   .     S
C793   O875    1.303   .     A
C793   O865    1.303   .     A
C793   C822    1.452   .     S
C794   N861    1.380   .     A
C794   I854    2.150   .     S
C794   C91     1.430   1_556 S
C795   N862    1.380   .     A
C795   I855    2.150   .     S
C796   N861    1.380   .     A
C796   I856    2.150   .     S
C796   C128    1.430   1_556 S
C797   I857    2.150   .     S
C797   N1040   1.380   .     S
C798   N863    1.380   .     A
C798   I858    2.150   .     S
C798   C95     1.430   1_556 S
C799   N864    1.380   .     A
C799   I859    2.150   .     S
C800   I860    2.150   .     S
C800   C93     1.430   1_556 S
C800   N1039   1.380   .     S
C801   H837    1.083   .     S
C801   C812    1.383   .     A
C801   C820    1.401   .     A
C802   C819    1.401   .     A
C802   H845    1.083   .     S
C802   C813    1.383   .     A
C803   C810    1.383   .     A
C803   C819    1.401   .     A
C803   H846    1.083   .     S
C804   C821    1.452   .     S
C804   O874    1.303   .     A
C804   O873    1.303   .     A
C805   C820    1.401   .     A
C805   C811    1.383   .     A
C805   H847    1.083   .     S
C806   H848    1.083   .     S
C806   C822    1.401   .     A
C806   C817    1.383   .     A
C807   H849    1.083   .     S
C807   C821    1.401   .     A
C807   C818    1.383   .     A
C808   C814    1.383   .     A
C808   H850    1.083   .     S
C808   C821    1.401   .     A
C809   C822    1.401   .     A
C809   C816    1.383   .     A
C809   H851    1.083   .     S
C810   H852    1.083   .     S
C810   C824    1.401   .     A
C811   C823    1.401   .     A
C811   H838    1.083   .     S
C812   H839    1.083   .     S
C812   C823    1.401   .     A
C813   H840    1.083   .     S
C813   C824    1.401   .     A
C814   C827    1.401   .     A
C814   H841    1.083   .     S
C815   O879    1.303   .     A
C815   O876    1.303   .     A
C815   C820    1.452   .     S
C816   H842    1.083   .     S
C816   C825    1.401   .     A
C817   H843    1.083   .     S
C817   C825    1.401   .     A
C818   H844    1.083   .     S
C818   C827    1.401   .     A
C819   C826    1.452   .     S
C823   C831    1.452   .     S
C824   C830    1.452   .     S
C825   C829    1.452   .     S
C826   O878    1.303   .     A
C826   O877    1.303   .     A
C827   C828    1.452   .     S
C828   O880    1.303   .     A
C828   O868    1.303   .     A
C829   O866    1.303   .     A
C829   O867    1.303   .     A
C830   O869    1.303   .     A
C830   O872    1.303   .     A
C831   O870    1.303   .     A
C831   O871    1.303   .     A
C832   N862    1.380   .     A
C832   I853    2.150   .     S
Cu833  Cu834   2.716   .     S
Cu833  N861    2.041   .     S
Cu833  O865    1.964   .     S
Cu833  O877    1.964   .     S
Cu834  N862    2.041   .     S
Cu834  O875    1.964   .     S
Cu834  O878    1.964   .     S
Cu835  O870    1.964   .     S
Cu835  O867    1.964   .     S
Cu835  Cu836   2.716   .     S
Cu835  N863    2.041   .     S
Cu835  O1048   1.964   1_545 S
Cu835  O1056   1.964   1_545 S
Cu836  O866    1.964   .     S
Cu836  O871    1.964   .     S
Cu836  N864    2.041   .     S
Cu836  O1044   1.964   1_545 S
Cu836  O1045   1.964   1_545 S
N863   C976    1.380   1_545 S
N864   C973    1.380   1_545 S
O868   Cu1012  1.964   .     S
O869   Cu1012  1.964   .     S
O872   Cu1011  1.964   .     S
O873   Cu746   1.964   1_655 S
O874   Cu745   1.964   1_655 S
O876   Cu746   1.964   1_655 S
O879   Cu745   1.964   1_655 S
O880   Cu1011  1.964   .     S
C881   O963    1.303   .     A
C881   O953    1.303   .     A
C881   C910    1.452   .     S
C882   N949    1.380   .     A
C882   I942    2.150   .     S
C882   C179    1.430   1_556 S
C883   N950    1.380   .     A
C883   I943    2.150   .     S
C884   N949    1.380   .     A
C884   I944    2.150   .     S
C884   C216    1.430   1_556 S
C885   I945    2.150   .     S
C885   N776    1.380   1_565 S
C886   N951    1.380   .     A
C886   I946    2.150   .     S
C886   C183    1.430   1_556 S
C887   N952    1.380   .     A
C887   I947    2.150   .     S
C888   I948    2.150   .     S
C888   C181    1.430   1_556 S
C888   N775    1.380   1_565 S
C889   H925    1.083   .     S
C889   C900    1.383   .     A
C889   C908    1.401   .     A
C890   C907    1.401   .     A
C890   H933    1.083   .     S
C890   C901    1.383   .     A
C891   C898    1.383   .     A
C891   C907    1.401   .     A
C891   H934    1.083   .     S
C892   C909    1.452   .     S
C892   O962    1.303   .     A
C892   O961    1.303   .     A
C893   C908    1.401   .     A
C893   C899    1.383   .     A
C893   H935    1.083   .     S
C894   H936    1.083   .     S
C894   C910    1.401   .     A
C894   C905    1.383   .     A
C895   H937    1.083   .     S
C895   C909    1.401   .     A
C895   C906    1.383   .     A
C896   C902    1.383   .     A
C896   H938    1.083   .     S
C896   C909    1.401   .     A
C897   C910    1.401   .     A
C897   C904    1.383   .     A
C897   H939    1.083   .     S
C898   H940    1.083   .     S
C898   C912    1.401   .     A
C899   C911    1.401   .     A
C899   H926    1.083   .     S
C900   H927    1.083   .     S
C900   C911    1.401   .     A
C901   H928    1.083   .     S
C901   C912    1.401   .     A
C902   C915    1.401   .     A
C902   H929    1.083   .     S
C903   O967    1.303   .     A
C903   O964    1.303   .     A
C903   C908    1.452   .     S
C904   H930    1.083   .     S
C904   C913    1.401   .     A
C905   H931    1.083   .     S
C905   C913    1.401   .     A
C906   H932    1.083   .     S
C906   C915    1.401   .     A
C907   C914    1.452   .     S
C911   C919    1.452   .     S
C912   C918    1.452   .     S
C913   C917    1.452   .     S
C914   O966    1.303   .     A
C914   O965    1.303   .     A
C915   C916    1.452   .     S
C916   O968    1.303   .     A
C916   O956    1.303   .     A
C917   O954    1.303   .     A
C917   O955    1.303   .     A
C918   O957    1.303   .     A
C918   O960    1.303   .     A
C919   O958    1.303   .     A
C919   O959    1.303   .     A
C920   N950    1.380   .     A
C920   I941    2.150   .     S
Cu921  Cu922   2.716   .     S
Cu921  O1055   1.964   1_455 S
Cu921  N949    2.041   .     S
Cu921  O1050   1.964   1_455 S
Cu921  O953    1.964   .     S
Cu921  O965    1.964   .     S
Cu922  N950    2.041   .     S
Cu922  O1049   1.964   1_455 S
Cu922  O1052   1.964   1_455 S
Cu922  O963    1.964   .     S
Cu922  O966    1.964   .     S
Cu923  O958    1.964   .     S
Cu923  O955    1.964   .     S
Cu923  Cu924   2.716   .     S
Cu923  N951    2.041   .     S
Cu924  O954    1.964   .     S
Cu924  O959    1.964   .     S
Cu924  N952    2.041   .     S
O956   Cu748   1.964   1_565 S
O957   Cu748   1.964   1_565 S
O960   Cu747   1.964   1_565 S
O961   Cu1010  1.964   .     S
O962   Cu1009  1.964   .     S
O964   Cu1010  1.964   .     S
O967   Cu1009  1.964   .     S
O968   Cu747   1.964   1_565 S
C969   O1051   1.303   .     A
C969   O1041   1.303   .     A
C969   C998    1.452   .     S
C970   N1037   1.380   .     A
C970   I1030   2.150   .     S
C970   C267    1.430   1_556 S
C971   N1038   1.380   .     A
C971   I1031   2.150   .     S
C972   N1037   1.380   .     A
C972   I1032   2.150   .     S
C972   C304    1.430   1_556 S
C973   I1033   2.150   .     S
C973   N864    1.380   1_565 S
C974   N1039   1.380   .     A
C974   I1034   2.150   .     S
C974   C271    1.430   1_556 S
C975   N1040   1.380   .     A
C975   I1035   2.150   .     S
C976   I1036   2.150   .     S
C976   C269    1.430   1_556 S
C976   N863    1.380   1_565 S
C977   H1013   1.083   .     S
C977   C988    1.383   .     A
C977   C996    1.401   .     A
C978   C995    1.401   .     A
C978   H1021   1.083   .     S
C978   C989    1.383   .     A
C979   C986    1.383   .     A
C979   C995    1.401   .     A
C979   H1022   1.083   .     S
C980   C997    1.452   .     S
C980   O1050   1.303   .     A
C980   O1049   1.303   .     A
C981   C996    1.401   .     A
C981   C987    1.383   .     A
C981   H1023   1.083   .     S
C982   H1024   1.083   .     S
C982   C998    1.401   .     A
C982   C993    1.383   .     A
C983   H1025   1.083   .     S
C983   C997    1.401   .     A
C983   C994    1.383   .     A
C984   C990    1.383   .     A
C984   H1026   1.083   .     S
C984   C997    1.401   .     A
C985   C998    1.401   .     A
C985   C992    1.383   .     A
C985   H1027   1.083   .     S
C986   H1028   1.083   .     S
C986   C1000   1.401   .     A
C987   C999    1.401   .     A
C987   H1014   1.083   .     S
C988   H1015   1.083   .     S
C988   C999    1.401   .     A
C989   H1016   1.083   .     S
C989   C1000   1.401   .     A
C990   C1003   1.401   .     A
C990   H1017   1.083   .     S
C991   O1055   1.303   .     A
C991   O1052   1.303   .     A
C991   C996    1.452   .     S
C992   H1018   1.083   .     S
C992   C1001   1.401   .     A
C993   H1019   1.083   .     S
C993   C1001   1.401   .     A
C994   H1020   1.083   .     S
C994   C1003   1.401   .     A
C995   C1002   1.452   .     S
C999   C1007   1.452   .     S
C1000  C1006   1.452   .     S
C1001  C1005   1.452   .     S
C1002  O1054   1.303   .     A
C1002  O1053   1.303   .     A
C1003  C1004   1.452   .     S
C1004  O1056   1.303   .     A
C1004  O1044   1.303   .     A
C1005  O1042   1.303   .     A
C1005  O1043   1.303   .     A
C1006  O1045   1.303   .     A
C1006  O1048   1.303   .     A
C1007  O1046   1.303   .     A
C1007  O1047   1.303   .     A
C1008  N1038   1.380   .     A
C1008  I1029   2.150   .     S
Cu1009 Cu1010  2.716   .     S
Cu1009 N1037   2.041   .     S
Cu1009 O1041   1.964   .     S
Cu1009 O1053   1.964   .     S
Cu1010 N1038   2.041   .     S
Cu1010 O1051   1.964   .     S
Cu1010 O1054   1.964   .     S
Cu1011 O1046   1.964   .     S
Cu1011 O1043   1.964   .     S
Cu1011 Cu1012  2.716   .     S
Cu1011 N1039   2.041   .     S
Cu1012 O1042   1.964   .     S
Cu1012 O1047   1.964   .     S
Cu1012 N1040   2.041   .     S
O1044  Cu836   1.964   1_565 S
O1045  Cu836   1.964   1_565 S
O1048  Cu835   1.964   1_565 S
O1049  Cu922   1.964   1_655 S
O1050  Cu921   1.964   1_655 S
O1052  Cu922   1.964   1_655 S
O1055  Cu921   1.964   1_655 S
O1056  Cu835   1.964   1_565 S
