data_str_m2_o1_o18_pcu_sym.71
_audit_creation_date              2020-01-03
_audit_creation_method            'Materials Studio'
_symmetry_space_group_name_H-M    'P1'
_symmetry_Int_Tables_number       1
_symmetry_cell_setting            triclinic
loop_
_symmetry_equiv_pos_as_xyz
  x,y,z
_cell_length_a                    28.5552
_cell_length_b                    32.4747
_cell_length_c                    31.0410
_cell_angle_alpha                 90.1173
_cell_angle_beta                  74.1671
_cell_angle_gamma                 90.3739
loop_
_atom_site_label
_atom_site_type_symbol
_atom_site_fract_x
_atom_site_fract_y
_atom_site_fract_z
_atom_site_U_iso_or_equiv
_atom_site_adp_type
_atom_site_occupancy
C1     C     0.33298   0.08737   0.25039   0.00000  Uiso   1.00
C2     C     0.04317   0.02206   0.23237   0.00000  Uiso   1.00
C3     C     0.00074   0.29049   0.24870   0.00000  Uiso   1.00
C4     C     0.33253   0.04272   0.24999   0.00000  Uiso   1.00
C5     C     0.18225   0.14373   0.28040   0.00000  Uiso   1.00
C6     C     0.15103   0.18985   0.21983   0.00000  Uiso   1.00
C7     C     0.13266   0.14370   0.28035   0.00000  Uiso   1.00
C8     C     0.20061   0.18989   0.21989   0.00000  Uiso   1.00
C9     C     0.30604   0.16810   0.33588   0.00000  Uiso   1.00
C10    C     0.02747   0.16544   0.16373   0.00000  Uiso   1.00
C11    C     0.29076   0.17620   0.38406   0.00000  Uiso   1.00
C12    C     0.00035   0.24592   0.24945   0.00000  Uiso   1.00
C13    C     0.04278   0.16273   0.11413   0.00000  Uiso   1.00
C14    C     0.29647   0.21756   0.44734   0.00000  Uiso   1.00
C15    C     0.02507   0.14846   0.04322   0.00000  Uiso   1.00
C16    C     0.31685   0.20425   0.40342   0.00000  Uiso   1.00
C17    C     0.00859   0.15427   0.08977   0.00000  Uiso   1.00
C18    C     0.24564   0.16045   0.40913   0.00000  Uiso   1.00
C19    C     0.09255   0.16747   0.09088   0.00000  Uiso   1.00
C20    C     0.22197   0.17831   0.45092   0.00000  Uiso   1.00
C21    C     0.10697   0.16921   0.04368   0.00000  Uiso   1.00
C22    C     0.24941   0.20518   0.47093   0.00000  Uiso   1.00
C23    C     0.18274   0.20836   0.03808   0.00000  Uiso   1.00
C24    C     0.07380   0.15562   0.02029   0.00000  Uiso   1.00
C25    C     0.17212   0.17067   0.47348   0.00000  Uiso   1.00
C26    C     0.15440   0.18183   0.01920   0.00000  Uiso   1.00
C27    C     0.14360   0.12565   0.11490   0.00000  Uiso   1.00
C28    C     0.24188   0.09083   0.40661   0.00000  Uiso   1.00
C29    C     0.26307   0.17275   0.09586   0.00000  Uiso   1.00
C30    C     0.06588   0.20729   0.38882   0.00000  Uiso   1.00
C31    C     0.21309   0.03510   0.25909   0.00000  Uiso   1.00
C32    C     0.09426   0.28826   0.16598   0.00000  Uiso   1.00
C33    C     0.13836   0.15564   0.45123   0.00000  Uiso   1.00
C34    C     0.22896   0.22073   0.01376   0.00000  Uiso   1.00
C35    C     0.08979   0.14908   0.47423   0.00000  Uiso   1.00
C36    C     0.28866   0.02055   0.26607   0.00000  Uiso   1.00
C37    C     0.04409   0.31269   0.23044   0.00000  Uiso   1.00
C38    C     0.29019   0.31110   0.26644   0.00000  Uiso   1.00
Cu39   Cu    0.04689   0.16667   0.25000   0.00000  Uiso   1.00
Cu40   Cu    0.28645   0.16666   0.25000   0.00000  Uiso   1.00
H41    H     0.24910   0.24215   0.02886   0.00000  Uiso   1.00
H42    H     0.16651   0.12370   0.13847   0.00000  Uiso   1.00
H43    H     0.16617   0.11618   0.08121   0.00000  Uiso   1.00
H44    H     0.23034   0.08843   0.44381   0.00000  Uiso   1.00
H45    H     0.28214   0.08810   0.39379   0.00000  Uiso   1.00
H46    H     0.22545   0.06447   0.39306   0.00000  Uiso   1.00
H47    H     0.27824   0.20447   0.08833   0.00000  Uiso   1.00
H48    H     0.22798   0.17590   0.12183   0.00000  Uiso   1.00
H49    H     0.25532   0.15864   0.06593   0.00000  Uiso   1.00
H50    H     0.09928   0.22062   0.36583   0.00000  Uiso   1.00
H51    H     0.06804   0.17325   0.38453   0.00000  Uiso   1.00
H52    H     0.06466   0.13848   0.45593   0.00000  Uiso   1.00
H53    H     0.06565   0.21617   0.42348   0.00000  Uiso   1.00
H54    H     0.31630   0.23964   0.46198   0.00000  Uiso   1.00
H55    H     0.33307   0.13836   0.02491   0.00000  Uiso   1.00
H56    H     0.22929   0.04643   0.22433   0.00000  Uiso   1.00
H57    H     0.17982   0.05332   0.27369   0.00000  Uiso   1.00
H58    H     0.20143   0.00242   0.25864   0.00000  Uiso   1.00
H59    H     0.06513   0.26850   0.15907   0.00000  Uiso   1.00
H60    H     0.12951   0.27274   0.15130   0.00000  Uiso   1.00
H61    H     0.09570   0.31861   0.14904   0.00000  Uiso   1.00
H62    H     0.10663   0.12523   0.30461   0.00000  Uiso   1.00
H63    H     0.16842   0.22202   0.07078   0.00000  Uiso   1.00
H64    H     0.22659   0.20864   0.19592   0.00000  Uiso   1.00
H65    H     0.14758   0.15185   0.41540   0.00000  Uiso   1.00
H66    H     0.25708   0.29397   0.28145   0.00000  Uiso   1.00
H67    H     0.07687   0.03900   0.21918   0.00000  Uiso   1.00
H68    H     0.19355   0.12532   0.30474   0.00000  Uiso   1.00
H69    H     0.13971   0.20844   0.19567   0.00000  Uiso   1.00
H70    H     0.11272   0.10365   0.12717   0.00000  Uiso   1.00
N71    N     0.11736   0.16668   0.24999   0.00000  Uiso   1.00
N72    N     0.21597   0.16666   0.25001   0.00000  Uiso   1.00
O73    O     0.03958   0.10655   0.25000   0.00000  Uiso   1.00
O74    O     0.22527   0.12763   0.39202   0.00000  Uiso   1.00
O75    O     0.29362   0.14686   0.11243   0.00000  Uiso   1.00
O76    O     0.02513   0.22324   0.37736   0.00000  Uiso   1.00
O77    O     0.24546   0.04066   0.28585   0.00000  Uiso   1.00
O78    O     0.08787   0.29301   0.21240   0.00000  Uiso   1.00
O79    O     0.29375   0.22678   0.25000   0.00000  Uiso   1.00
O80    O     0.29372   0.10654   0.25001   0.00000  Uiso   1.00
O81    O     0.03961   0.22679   0.25000   0.00000  Uiso   1.00
O82    O     0.01852   0.16668   0.31492   0.00000  Uiso   1.00
O83    O     0.31481   0.16666   0.18509   0.00000  Uiso   1.00
O84    O     0.27267   0.16667   0.31492   0.00000  Uiso   1.00
O85    O     0.06067   0.16667   0.18508   0.00000  Uiso   1.00
O86    O     0.12757   0.16665   0.11417   0.00000  Uiso   1.00
C87    C     0.66632   0.08737   0.25039   0.00000  Uiso   1.00
C88    C     0.37651   0.02206   0.23237   0.00000  Uiso   1.00
C89    C     0.33407   0.29049   0.24870   0.00000  Uiso   1.00
C90    C     0.66587   0.04272   0.24999   0.00000  Uiso   1.00
C91    C     0.51559   0.14373   0.28040   0.00000  Uiso   1.00
C92    C     0.48436   0.18985   0.21983   0.00000  Uiso   1.00
C93    C     0.46600   0.14370   0.28035   0.00000  Uiso   1.00
C94    C     0.53394   0.18989   0.21989   0.00000  Uiso   1.00
C95    C     0.63937   0.16810   0.33588   0.00000  Uiso   1.00
C96    C     0.36080   0.16544   0.16373   0.00000  Uiso   1.00
C97    C     0.62409   0.17620   0.38406   0.00000  Uiso   1.00
C98    C     0.33369   0.24592   0.24945   0.00000  Uiso   1.00
C99    C     0.37611   0.16273   0.11413   0.00000  Uiso   1.00
C100   C     0.62981   0.21756   0.44734   0.00000  Uiso   1.00
C101   C     0.35841   0.14846   0.04322   0.00000  Uiso   1.00
C102   C     0.65018   0.20425   0.40342   0.00000  Uiso   1.00
C103   C     0.34193   0.15427   0.08977   0.00000  Uiso   1.00
C104   C     0.57898   0.16045   0.40913   0.00000  Uiso   1.00
C105   C     0.42589   0.16747   0.09088   0.00000  Uiso   1.00
C106   C     0.55531   0.17831   0.45092   0.00000  Uiso   1.00
C107   C     0.44031   0.16921   0.04368   0.00000  Uiso   1.00
C108   C     0.58274   0.20518   0.47093   0.00000  Uiso   1.00
C109   C     0.51608   0.20836   0.03808   0.00000  Uiso   1.00
C110   C     0.40713   0.15562   0.02029   0.00000  Uiso   1.00
C111   C     0.50546   0.17067   0.47348   0.00000  Uiso   1.00
C112   C     0.48774   0.18183   0.01920   0.00000  Uiso   1.00
C113   C     0.47694   0.12565   0.11490   0.00000  Uiso   1.00
C114   C     0.57521   0.09083   0.40661   0.00000  Uiso   1.00
C115   C     0.59640   0.17275   0.09586   0.00000  Uiso   1.00
C116   C     0.39921   0.20729   0.38882   0.00000  Uiso   1.00
C117   C     0.54642   0.03510   0.25909   0.00000  Uiso   1.00
C118   C     0.42759   0.28826   0.16598   0.00000  Uiso   1.00
C119   C     0.47170   0.15564   0.45123   0.00000  Uiso   1.00
C120   C     0.56230   0.22073   0.01376   0.00000  Uiso   1.00
C121   C     0.42312   0.14908   0.47423   0.00000  Uiso   1.00
C122   C     0.62199   0.02055   0.26607   0.00000  Uiso   1.00
C123   C     0.37742   0.31269   0.23044   0.00000  Uiso   1.00
C124   C     0.62353   0.31110   0.26644   0.00000  Uiso   1.00
Cu125  Cu    0.38022   0.16667   0.25000   0.00000  Uiso   1.00
Cu126  Cu    0.61978   0.16666   0.25000   0.00000  Uiso   1.00
H127   H     0.58243   0.24215   0.02886   0.00000  Uiso   1.00
H128   H     0.49985   0.12370   0.13847   0.00000  Uiso   1.00
H129   H     0.49950   0.11618   0.08121   0.00000  Uiso   1.00
H130   H     0.56368   0.08843   0.44381   0.00000  Uiso   1.00
H131   H     0.61548   0.08810   0.39379   0.00000  Uiso   1.00
H132   H     0.55878   0.06447   0.39306   0.00000  Uiso   1.00
H133   H     0.61158   0.20447   0.08833   0.00000  Uiso   1.00
H134   H     0.56131   0.17590   0.12183   0.00000  Uiso   1.00
H135   H     0.58865   0.15864   0.06593   0.00000  Uiso   1.00
H136   H     0.43261   0.22062   0.36583   0.00000  Uiso   1.00
H137   H     0.40137   0.17325   0.38453   0.00000  Uiso   1.00
H138   H     0.39799   0.13848   0.45593   0.00000  Uiso   1.00
H139   H     0.39899   0.21617   0.42348   0.00000  Uiso   1.00
H140   H     0.64964   0.23964   0.46198   0.00000  Uiso   1.00
H141   H     0.66641   0.13836   0.02491   0.00000  Uiso   1.00
H142   H     0.56262   0.04643   0.22433   0.00000  Uiso   1.00
H143   H     0.51315   0.05332   0.27369   0.00000  Uiso   1.00
H144   H     0.53476   0.00242   0.25864   0.00000  Uiso   1.00
H145   H     0.39846   0.26850   0.15907   0.00000  Uiso   1.00
H146   H     0.46285   0.27274   0.15130   0.00000  Uiso   1.00
H147   H     0.42904   0.31861   0.14904   0.00000  Uiso   1.00
H148   H     0.43996   0.12523   0.30461   0.00000  Uiso   1.00
H149   H     0.50176   0.22202   0.07078   0.00000  Uiso   1.00
H150   H     0.55992   0.20864   0.19592   0.00000  Uiso   1.00
H151   H     0.48091   0.15185   0.41540   0.00000  Uiso   1.00
H152   H     0.59042   0.29397   0.28145   0.00000  Uiso   1.00
H153   H     0.41021   0.03900   0.21918   0.00000  Uiso   1.00
H154   H     0.52688   0.12532   0.30474   0.00000  Uiso   1.00
H155   H     0.47304   0.20844   0.19567   0.00000  Uiso   1.00
H156   H     0.44606   0.10365   0.12717   0.00000  Uiso   1.00
N157   N     0.45069   0.16668   0.24999   0.00000  Uiso   1.00
N158   N     0.54931   0.16666   0.25001   0.00000  Uiso   1.00
O159   O     0.37291   0.10655   0.25000   0.00000  Uiso   1.00
O160   O     0.55860   0.12763   0.39202   0.00000  Uiso   1.00
O161   O     0.62695   0.14686   0.11243   0.00000  Uiso   1.00
O162   O     0.35847   0.22324   0.37736   0.00000  Uiso   1.00
O163   O     0.57880   0.04066   0.28585   0.00000  Uiso   1.00
O164   O     0.42120   0.29301   0.21240   0.00000  Uiso   1.00
O165   O     0.62709   0.22678   0.25000   0.00000  Uiso   1.00
O166   O     0.62706   0.10654   0.25001   0.00000  Uiso   1.00
O167   O     0.37294   0.22679   0.25000   0.00000  Uiso   1.00
O168   O     0.35186   0.16668   0.31492   0.00000  Uiso   1.00
O169   O     0.64814   0.16666   0.18509   0.00000  Uiso   1.00
O170   O     0.60600   0.16667   0.31492   0.00000  Uiso   1.00
O171   O     0.39400   0.16667   0.18508   0.00000  Uiso   1.00
O172   O     0.46090   0.16665   0.11417   0.00000  Uiso   1.00
C173   C     0.99965   0.08737   0.25039   0.00000  Uiso   1.00
C174   C     0.70984   0.02206   0.23237   0.00000  Uiso   1.00
C175   C     0.66741   0.29049   0.24870   0.00000  Uiso   1.00
C176   C     0.99920   0.04272   0.24999   0.00000  Uiso   1.00
C177   C     0.84892   0.14373   0.28040   0.00000  Uiso   1.00
C178   C     0.81769   0.18985   0.21983   0.00000  Uiso   1.00
C179   C     0.79933   0.14370   0.28035   0.00000  Uiso   1.00
C180   C     0.86727   0.18989   0.21989   0.00000  Uiso   1.00
C181   C     0.97271   0.16810   0.33588   0.00000  Uiso   1.00
C182   C     0.69414   0.16544   0.16373   0.00000  Uiso   1.00
C183   C     0.95742   0.17620   0.38406   0.00000  Uiso   1.00
C184   C     0.66702   0.24592   0.24945   0.00000  Uiso   1.00
C185   C     0.70944   0.16273   0.11413   0.00000  Uiso   1.00
C186   C     0.96314   0.21756   0.44734   0.00000  Uiso   1.00
C187   C     0.69174   0.14846   0.04322   0.00000  Uiso   1.00
C188   C     0.98352   0.20425   0.40342   0.00000  Uiso   1.00
C189   C     0.67526   0.15427   0.08977   0.00000  Uiso   1.00
C190   C     0.91231   0.16045   0.40913   0.00000  Uiso   1.00
C191   C     0.75922   0.16747   0.09088   0.00000  Uiso   1.00
C192   C     0.88864   0.17831   0.45092   0.00000  Uiso   1.00
C193   C     0.77364   0.16921   0.04368   0.00000  Uiso   1.00
C194   C     0.91607   0.20518   0.47093   0.00000  Uiso   1.00
C195   C     0.84941   0.20836   0.03808   0.00000  Uiso   1.00
C196   C     0.74046   0.15562   0.02029   0.00000  Uiso   1.00
C197   C     0.83879   0.17067   0.47348   0.00000  Uiso   1.00
C198   C     0.82107   0.18183   0.01920   0.00000  Uiso   1.00
C199   C     0.81027   0.12565   0.11490   0.00000  Uiso   1.00
C200   C     0.90854   0.09083   0.40661   0.00000  Uiso   1.00
C201   C     0.92973   0.17275   0.09586   0.00000  Uiso   1.00
C202   C     0.73255   0.20729   0.38882   0.00000  Uiso   1.00
C203   C     0.87975   0.03510   0.25909   0.00000  Uiso   1.00
C204   C     0.76093   0.28826   0.16598   0.00000  Uiso   1.00
C205   C     0.80503   0.15564   0.45123   0.00000  Uiso   1.00
C206   C     0.89563   0.22073   0.01376   0.00000  Uiso   1.00
C207   C     0.75646   0.14908   0.47423   0.00000  Uiso   1.00
C208   C     0.95532   0.02055   0.26607   0.00000  Uiso   1.00
C209   C     0.71076   0.31269   0.23044   0.00000  Uiso   1.00
C210   C     0.95686   0.31110   0.26644   0.00000  Uiso   1.00
Cu211  Cu    0.71355   0.16667   0.25000   0.00000  Uiso   1.00
Cu212  Cu    0.95311   0.16666   0.25000   0.00000  Uiso   1.00
H213   H     0.91576   0.24215   0.02886   0.00000  Uiso   1.00
H214   H     0.83318   0.12370   0.13847   0.00000  Uiso   1.00
H215   H     0.83283   0.11618   0.08121   0.00000  Uiso   1.00
H216   H     0.89701   0.08843   0.44381   0.00000  Uiso   1.00
H217   H     0.94881   0.08810   0.39379   0.00000  Uiso   1.00
H218   H     0.89211   0.06447   0.39306   0.00000  Uiso   1.00
H219   H     0.94491   0.20447   0.08833   0.00000  Uiso   1.00
H220   H     0.89464   0.17590   0.12183   0.00000  Uiso   1.00
H221   H     0.92198   0.15864   0.06593   0.00000  Uiso   1.00
H222   H     0.76595   0.22062   0.36583   0.00000  Uiso   1.00
H223   H     0.73470   0.17325   0.38453   0.00000  Uiso   1.00
H224   H     0.73133   0.13848   0.45593   0.00000  Uiso   1.00
H225   H     0.73232   0.21617   0.42348   0.00000  Uiso   1.00
H226   H     0.98297   0.23964   0.46198   0.00000  Uiso   1.00
H227   H     0.99974   0.13836   0.02491   0.00000  Uiso   1.00
H228   H     0.89596   0.04643   0.22433   0.00000  Uiso   1.00
H229   H     0.84649   0.05332   0.27369   0.00000  Uiso   1.00
H230   H     0.86809   0.00242   0.25864   0.00000  Uiso   1.00
H231   H     0.73179   0.26850   0.15907   0.00000  Uiso   1.00
H232   H     0.79618   0.27274   0.15130   0.00000  Uiso   1.00
H233   H     0.76237   0.31861   0.14904   0.00000  Uiso   1.00
H234   H     0.77330   0.12523   0.30461   0.00000  Uiso   1.00
H235   H     0.83509   0.22202   0.07078   0.00000  Uiso   1.00
H236   H     0.89325   0.20864   0.19592   0.00000  Uiso   1.00
H237   H     0.81424   0.15185   0.41540   0.00000  Uiso   1.00
H238   H     0.92375   0.29397   0.28145   0.00000  Uiso   1.00
H239   H     0.74354   0.03900   0.21918   0.00000  Uiso   1.00
H240   H     0.86021   0.12532   0.30474   0.00000  Uiso   1.00
H241   H     0.80637   0.20844   0.19567   0.00000  Uiso   1.00
H242   H     0.77939   0.10365   0.12717   0.00000  Uiso   1.00
N243   N     0.78403   0.16668   0.24999   0.00000  Uiso   1.00
N244   N     0.88264   0.16666   0.25001   0.00000  Uiso   1.00
O245   O     0.70625   0.10655   0.25000   0.00000  Uiso   1.00
O246   O     0.89193   0.12763   0.39202   0.00000  Uiso   1.00
O247   O     0.96028   0.14686   0.11243   0.00000  Uiso   1.00
O248   O     0.69180   0.22324   0.37736   0.00000  Uiso   1.00
O249   O     0.91213   0.04066   0.28585   0.00000  Uiso   1.00
O250   O     0.75453   0.29301   0.21240   0.00000  Uiso   1.00
O251   O     0.96042   0.22678   0.25000   0.00000  Uiso   1.00
O252   O     0.96039   0.10654   0.25001   0.00000  Uiso   1.00
O253   O     0.70628   0.22679   0.25000   0.00000  Uiso   1.00
O254   O     0.68519   0.16668   0.31492   0.00000  Uiso   1.00
O255   O     0.98148   0.16666   0.18509   0.00000  Uiso   1.00
O256   O     0.93933   0.16667   0.31492   0.00000  Uiso   1.00
O257   O     0.72733   0.16667   0.18508   0.00000  Uiso   1.00
O258   O     0.79424   0.16665   0.11417   0.00000  Uiso   1.00
C259   C     0.33298   0.42070   0.25039   0.00000  Uiso   1.00
C260   C     0.04317   0.35539   0.23237   0.00000  Uiso   1.00
C261   C     0.00074   0.62382   0.24870   0.00000  Uiso   1.00
C262   C     0.33253   0.37606   0.24999   0.00000  Uiso   1.00
C263   C     0.18225   0.47707   0.28040   0.00000  Uiso   1.00
C264   C     0.15103   0.52318   0.21983   0.00000  Uiso   1.00
C265   C     0.13266   0.47703   0.28035   0.00000  Uiso   1.00
C266   C     0.20061   0.52322   0.21989   0.00000  Uiso   1.00
C267   C     0.30604   0.50144   0.33588   0.00000  Uiso   1.00
C268   C     0.02747   0.49877   0.16373   0.00000  Uiso   1.00
C269   C     0.29076   0.50953   0.38406   0.00000  Uiso   1.00
C270   C     0.00035   0.57925   0.24945   0.00000  Uiso   1.00
C271   C     0.04278   0.49606   0.11413   0.00000  Uiso   1.00
C272   C     0.29647   0.55090   0.44734   0.00000  Uiso   1.00
C273   C     0.02507   0.48180   0.04322   0.00000  Uiso   1.00
C274   C     0.31685   0.53758   0.40342   0.00000  Uiso   1.00
C275   C     0.00859   0.48761   0.08977   0.00000  Uiso   1.00
C276   C     0.24564   0.49378   0.40913   0.00000  Uiso   1.00
C277   C     0.09255   0.50080   0.09088   0.00000  Uiso   1.00
C278   C     0.22197   0.51164   0.45092   0.00000  Uiso   1.00
C279   C     0.10697   0.50254   0.04368   0.00000  Uiso   1.00
C280   C     0.24941   0.53851   0.47093   0.00000  Uiso   1.00
C281   C     0.18274   0.54170   0.03808   0.00000  Uiso   1.00
C282   C     0.07380   0.48896   0.02029   0.00000  Uiso   1.00
C283   C     0.17212   0.50401   0.47348   0.00000  Uiso   1.00
C284   C     0.15440   0.51517   0.01920   0.00000  Uiso   1.00
C285   C     0.14360   0.45898   0.11490   0.00000  Uiso   1.00
C286   C     0.24188   0.42416   0.40661   0.00000  Uiso   1.00
C287   C     0.26307   0.50609   0.09586   0.00000  Uiso   1.00
C288   C     0.06588   0.54063   0.38882   0.00000  Uiso   1.00
C289   C     0.21309   0.36844   0.25909   0.00000  Uiso   1.00
C290   C     0.09426   0.62160   0.16598   0.00000  Uiso   1.00
C291   C     0.13836   0.48898   0.45123   0.00000  Uiso   1.00
C292   C     0.22896   0.55406   0.01376   0.00000  Uiso   1.00
C293   C     0.08979   0.48242   0.47423   0.00000  Uiso   1.00
C294   C     0.28866   0.35388   0.26607   0.00000  Uiso   1.00
C295   C     0.04409   0.64603   0.23044   0.00000  Uiso   1.00
C296   C     0.29019   0.64443   0.26644   0.00000  Uiso   1.00
Cu297  Cu    0.04689   0.50001   0.25000   0.00000  Uiso   1.00
Cu298  Cu    0.28645   0.49999   0.25000   0.00000  Uiso   1.00
H299   H     0.24910   0.57549   0.02886   0.00000  Uiso   1.00
H300   H     0.16651   0.45703   0.13847   0.00000  Uiso   1.00
H301   H     0.16617   0.44951   0.08121   0.00000  Uiso   1.00
H302   H     0.23034   0.42176   0.44381   0.00000  Uiso   1.00
H303   H     0.28214   0.42143   0.39379   0.00000  Uiso   1.00
H304   H     0.22545   0.39780   0.39306   0.00000  Uiso   1.00
H305   H     0.27824   0.53780   0.08833   0.00000  Uiso   1.00
H306   H     0.22798   0.50923   0.12183   0.00000  Uiso   1.00
H307   H     0.25532   0.49197   0.06593   0.00000  Uiso   1.00
H308   H     0.09928   0.55395   0.36583   0.00000  Uiso   1.00
H309   H     0.06804   0.50658   0.38453   0.00000  Uiso   1.00
H310   H     0.06466   0.47181   0.45593   0.00000  Uiso   1.00
H311   H     0.06565   0.54951   0.42348   0.00000  Uiso   1.00
H312   H     0.31630   0.57298   0.46198   0.00000  Uiso   1.00
H313   H     0.33307   0.47169   0.02491   0.00000  Uiso   1.00
H314   H     0.22929   0.37977   0.22433   0.00000  Uiso   1.00
H315   H     0.17982   0.38666   0.27369   0.00000  Uiso   1.00
H316   H     0.20143   0.33575   0.25864   0.00000  Uiso   1.00
H317   H     0.06513   0.60183   0.15907   0.00000  Uiso   1.00
H318   H     0.12951   0.60608   0.15130   0.00000  Uiso   1.00
H319   H     0.09570   0.65195   0.14904   0.00000  Uiso   1.00
H320   H     0.10663   0.45856   0.30461   0.00000  Uiso   1.00
H321   H     0.16842   0.55535   0.07078   0.00000  Uiso   1.00
H322   H     0.22659   0.54198   0.19592   0.00000  Uiso   1.00
H323   H     0.14758   0.48518   0.41540   0.00000  Uiso   1.00
H324   H     0.25708   0.62730   0.28145   0.00000  Uiso   1.00
H325   H     0.07687   0.37233   0.21918   0.00000  Uiso   1.00
H326   H     0.19355   0.45865   0.30474   0.00000  Uiso   1.00
H327   H     0.13971   0.54178   0.19567   0.00000  Uiso   1.00
H328   H     0.11272   0.43699   0.12717   0.00000  Uiso   1.00
N329   N     0.11736   0.50001   0.24999   0.00000  Uiso   1.00
N330   N     0.21597   0.49999   0.25001   0.00000  Uiso   1.00
O331   O     0.03958   0.43989   0.25000   0.00000  Uiso   1.00
O332   O     0.22527   0.46097   0.39202   0.00000  Uiso   1.00
O333   O     0.29362   0.48020   0.11243   0.00000  Uiso   1.00
O334   O     0.02513   0.55657   0.37736   0.00000  Uiso   1.00
O335   O     0.24546   0.37399   0.28585   0.00000  Uiso   1.00
O336   O     0.08787   0.62634   0.21240   0.00000  Uiso   1.00
O337   O     0.29375   0.56011   0.25000   0.00000  Uiso   1.00
O338   O     0.29372   0.43988   0.25001   0.00000  Uiso   1.00
O339   O     0.03961   0.56012   0.25000   0.00000  Uiso   1.00
O340   O     0.01852   0.50001   0.31492   0.00000  Uiso   1.00
O341   O     0.31481   0.49999   0.18509   0.00000  Uiso   1.00
O342   O     0.27267   0.50000   0.31492   0.00000  Uiso   1.00
O343   O     0.06067   0.50000   0.18508   0.00000  Uiso   1.00
O344   O     0.12757   0.49998   0.11417   0.00000  Uiso   1.00
C345   C     0.66632   0.42070   0.25039   0.00000  Uiso   1.00
C346   C     0.37651   0.35539   0.23237   0.00000  Uiso   1.00
C347   C     0.33407   0.62382   0.24870   0.00000  Uiso   1.00
C348   C     0.66587   0.37606   0.24999   0.00000  Uiso   1.00
C349   C     0.51559   0.47707   0.28040   0.00000  Uiso   1.00
C350   C     0.48436   0.52318   0.21983   0.00000  Uiso   1.00
C351   C     0.46600   0.47703   0.28035   0.00000  Uiso   1.00
C352   C     0.53394   0.52322   0.21989   0.00000  Uiso   1.00
C353   C     0.63937   0.50144   0.33588   0.00000  Uiso   1.00
C354   C     0.36080   0.49877   0.16373   0.00000  Uiso   1.00
C355   C     0.62409   0.50953   0.38406   0.00000  Uiso   1.00
C356   C     0.33369   0.57925   0.24945   0.00000  Uiso   1.00
C357   C     0.37611   0.49606   0.11413   0.00000  Uiso   1.00
C358   C     0.62981   0.55090   0.44734   0.00000  Uiso   1.00
C359   C     0.35841   0.48180   0.04322   0.00000  Uiso   1.00
C360   C     0.65018   0.53758   0.40342   0.00000  Uiso   1.00
C361   C     0.34193   0.48761   0.08977   0.00000  Uiso   1.00
C362   C     0.57898   0.49378   0.40913   0.00000  Uiso   1.00
C363   C     0.42589   0.50080   0.09088   0.00000  Uiso   1.00
C364   C     0.55531   0.51164   0.45092   0.00000  Uiso   1.00
C365   C     0.44031   0.50254   0.04368   0.00000  Uiso   1.00
C366   C     0.58274   0.53851   0.47093   0.00000  Uiso   1.00
C367   C     0.51608   0.54170   0.03808   0.00000  Uiso   1.00
C368   C     0.40713   0.48896   0.02029   0.00000  Uiso   1.00
C369   C     0.50546   0.50401   0.47348   0.00000  Uiso   1.00
C370   C     0.48774   0.51517   0.01920   0.00000  Uiso   1.00
C371   C     0.47694   0.45898   0.11490   0.00000  Uiso   1.00
C372   C     0.57521   0.42416   0.40661   0.00000  Uiso   1.00
C373   C     0.59640   0.50609   0.09586   0.00000  Uiso   1.00
C374   C     0.39921   0.54063   0.38882   0.00000  Uiso   1.00
C375   C     0.54642   0.36844   0.25909   0.00000  Uiso   1.00
C376   C     0.42759   0.62160   0.16598   0.00000  Uiso   1.00
C377   C     0.47170   0.48898   0.45123   0.00000  Uiso   1.00
C378   C     0.56230   0.55406   0.01376   0.00000  Uiso   1.00
C379   C     0.42312   0.48242   0.47423   0.00000  Uiso   1.00
C380   C     0.62199   0.35388   0.26607   0.00000  Uiso   1.00
C381   C     0.37742   0.64603   0.23044   0.00000  Uiso   1.00
C382   C     0.62353   0.64443   0.26644   0.00000  Uiso   1.00
Cu383  Cu    0.38022   0.50001   0.25000   0.00000  Uiso   1.00
Cu384  Cu    0.61978   0.49999   0.25000   0.00000  Uiso   1.00
H385   H     0.58243   0.57549   0.02886   0.00000  Uiso   1.00
H386   H     0.49985   0.45703   0.13847   0.00000  Uiso   1.00
H387   H     0.49950   0.44951   0.08121   0.00000  Uiso   1.00
H388   H     0.56368   0.42176   0.44381   0.00000  Uiso   1.00
H389   H     0.61548   0.42143   0.39379   0.00000  Uiso   1.00
H390   H     0.55878   0.39780   0.39306   0.00000  Uiso   1.00
H391   H     0.61158   0.53780   0.08833   0.00000  Uiso   1.00
H392   H     0.56131   0.50923   0.12183   0.00000  Uiso   1.00
H393   H     0.58865   0.49197   0.06593   0.00000  Uiso   1.00
H394   H     0.43261   0.55395   0.36583   0.00000  Uiso   1.00
H395   H     0.40137   0.50658   0.38453   0.00000  Uiso   1.00
H396   H     0.39799   0.47181   0.45593   0.00000  Uiso   1.00
H397   H     0.39899   0.54951   0.42348   0.00000  Uiso   1.00
H398   H     0.64964   0.57298   0.46198   0.00000  Uiso   1.00
H399   H     0.66641   0.47169   0.02491   0.00000  Uiso   1.00
H400   H     0.56262   0.37977   0.22433   0.00000  Uiso   1.00
H401   H     0.51315   0.38666   0.27369   0.00000  Uiso   1.00
H402   H     0.53476   0.33575   0.25864   0.00000  Uiso   1.00
H403   H     0.39846   0.60183   0.15907   0.00000  Uiso   1.00
H404   H     0.46285   0.60608   0.15130   0.00000  Uiso   1.00
H405   H     0.42904   0.65195   0.14904   0.00000  Uiso   1.00
H406   H     0.43996   0.45856   0.30461   0.00000  Uiso   1.00
H407   H     0.50176   0.55535   0.07078   0.00000  Uiso   1.00
H408   H     0.55992   0.54198   0.19592   0.00000  Uiso   1.00
H409   H     0.48091   0.48518   0.41540   0.00000  Uiso   1.00
H410   H     0.59042   0.62730   0.28145   0.00000  Uiso   1.00
H411   H     0.41021   0.37233   0.21918   0.00000  Uiso   1.00
H412   H     0.52688   0.45865   0.30474   0.00000  Uiso   1.00
H413   H     0.47304   0.54178   0.19567   0.00000  Uiso   1.00
H414   H     0.44606   0.43699   0.12717   0.00000  Uiso   1.00
N415   N     0.45069   0.50001   0.24999   0.00000  Uiso   1.00
N416   N     0.54931   0.49999   0.25001   0.00000  Uiso   1.00
O417   O     0.37291   0.43989   0.25000   0.00000  Uiso   1.00
O418   O     0.55860   0.46097   0.39202   0.00000  Uiso   1.00
O419   O     0.62695   0.48020   0.11243   0.00000  Uiso   1.00
O420   O     0.35847   0.55657   0.37736   0.00000  Uiso   1.00
O421   O     0.57880   0.37399   0.28585   0.00000  Uiso   1.00
O422   O     0.42120   0.62634   0.21240   0.00000  Uiso   1.00
O423   O     0.62709   0.56011   0.25000   0.00000  Uiso   1.00
O424   O     0.62706   0.43988   0.25001   0.00000  Uiso   1.00
O425   O     0.37294   0.56012   0.25000   0.00000  Uiso   1.00
O426   O     0.35186   0.50001   0.31492   0.00000  Uiso   1.00
O427   O     0.64814   0.49999   0.18509   0.00000  Uiso   1.00
O428   O     0.60600   0.50000   0.31492   0.00000  Uiso   1.00
O429   O     0.39400   0.50000   0.18508   0.00000  Uiso   1.00
O430   O     0.46090   0.49998   0.11417   0.00000  Uiso   1.00
C431   C     0.99965   0.42070   0.25039   0.00000  Uiso   1.00
C432   C     0.70984   0.35539   0.23237   0.00000  Uiso   1.00
C433   C     0.66741   0.62382   0.24870   0.00000  Uiso   1.00
C434   C     0.99920   0.37606   0.24999   0.00000  Uiso   1.00
C435   C     0.84892   0.47707   0.28040   0.00000  Uiso   1.00
C436   C     0.81769   0.52318   0.21983   0.00000  Uiso   1.00
C437   C     0.79933   0.47703   0.28035   0.00000  Uiso   1.00
C438   C     0.86727   0.52322   0.21989   0.00000  Uiso   1.00
C439   C     0.97271   0.50144   0.33588   0.00000  Uiso   1.00
C440   C     0.69414   0.49877   0.16373   0.00000  Uiso   1.00
C441   C     0.95742   0.50953   0.38406   0.00000  Uiso   1.00
C442   C     0.66702   0.57925   0.24945   0.00000  Uiso   1.00
C443   C     0.70944   0.49606   0.11413   0.00000  Uiso   1.00
C444   C     0.96314   0.55090   0.44734   0.00000  Uiso   1.00
C445   C     0.69174   0.48180   0.04322   0.00000  Uiso   1.00
C446   C     0.98352   0.53758   0.40342   0.00000  Uiso   1.00
C447   C     0.67526   0.48761   0.08977   0.00000  Uiso   1.00
C448   C     0.91231   0.49378   0.40913   0.00000  Uiso   1.00
C449   C     0.75922   0.50080   0.09088   0.00000  Uiso   1.00
C450   C     0.88864   0.51164   0.45092   0.00000  Uiso   1.00
C451   C     0.77364   0.50254   0.04368   0.00000  Uiso   1.00
C452   C     0.91607   0.53851   0.47093   0.00000  Uiso   1.00
C453   C     0.84941   0.54170   0.03808   0.00000  Uiso   1.00
C454   C     0.74046   0.48896   0.02029   0.00000  Uiso   1.00
C455   C     0.83879   0.50401   0.47348   0.00000  Uiso   1.00
C456   C     0.82107   0.51517   0.01920   0.00000  Uiso   1.00
C457   C     0.81027   0.45898   0.11490   0.00000  Uiso   1.00
C458   C     0.90854   0.42416   0.40661   0.00000  Uiso   1.00
C459   C     0.92973   0.50609   0.09586   0.00000  Uiso   1.00
C460   C     0.73255   0.54063   0.38882   0.00000  Uiso   1.00
C461   C     0.87975   0.36844   0.25909   0.00000  Uiso   1.00
C462   C     0.76093   0.62160   0.16598   0.00000  Uiso   1.00
C463   C     0.80503   0.48898   0.45123   0.00000  Uiso   1.00
C464   C     0.89563   0.55406   0.01376   0.00000  Uiso   1.00
C465   C     0.75646   0.48242   0.47423   0.00000  Uiso   1.00
C466   C     0.95532   0.35388   0.26607   0.00000  Uiso   1.00
C467   C     0.71076   0.64603   0.23044   0.00000  Uiso   1.00
C468   C     0.95686   0.64443   0.26644   0.00000  Uiso   1.00
Cu469  Cu    0.71355   0.50001   0.25000   0.00000  Uiso   1.00
Cu470  Cu    0.95311   0.49999   0.25000   0.00000  Uiso   1.00
H471   H     0.91576   0.57549   0.02886   0.00000  Uiso   1.00
H472   H     0.83318   0.45703   0.13847   0.00000  Uiso   1.00
H473   H     0.83283   0.44951   0.08121   0.00000  Uiso   1.00
H474   H     0.89701   0.42176   0.44381   0.00000  Uiso   1.00
H475   H     0.94881   0.42143   0.39379   0.00000  Uiso   1.00
H476   H     0.89211   0.39780   0.39306   0.00000  Uiso   1.00
H477   H     0.94491   0.53780   0.08833   0.00000  Uiso   1.00
H478   H     0.89464   0.50923   0.12183   0.00000  Uiso   1.00
H479   H     0.92198   0.49197   0.06593   0.00000  Uiso   1.00
H480   H     0.76595   0.55395   0.36583   0.00000  Uiso   1.00
H481   H     0.73470   0.50658   0.38453   0.00000  Uiso   1.00
H482   H     0.73133   0.47181   0.45593   0.00000  Uiso   1.00
H483   H     0.73232   0.54951   0.42348   0.00000  Uiso   1.00
H484   H     0.98297   0.57298   0.46198   0.00000  Uiso   1.00
H485   H     0.99974   0.47169   0.02491   0.00000  Uiso   1.00
H486   H     0.89596   0.37977   0.22433   0.00000  Uiso   1.00
H487   H     0.84649   0.38666   0.27369   0.00000  Uiso   1.00
H488   H     0.86809   0.33575   0.25864   0.00000  Uiso   1.00
H489   H     0.73179   0.60183   0.15907   0.00000  Uiso   1.00
H490   H     0.79618   0.60608   0.15130   0.00000  Uiso   1.00
H491   H     0.76237   0.65195   0.14904   0.00000  Uiso   1.00
H492   H     0.77330   0.45856   0.30461   0.00000  Uiso   1.00
H493   H     0.83509   0.55535   0.07078   0.00000  Uiso   1.00
H494   H     0.89325   0.54198   0.19592   0.00000  Uiso   1.00
H495   H     0.81424   0.48518   0.41540   0.00000  Uiso   1.00
H496   H     0.92375   0.62730   0.28145   0.00000  Uiso   1.00
H497   H     0.74354   0.37233   0.21918   0.00000  Uiso   1.00
H498   H     0.86021   0.45865   0.30474   0.00000  Uiso   1.00
H499   H     0.80637   0.54178   0.19567   0.00000  Uiso   1.00
H500   H     0.77939   0.43699   0.12717   0.00000  Uiso   1.00
N501   N     0.78403   0.50001   0.24999   0.00000  Uiso   1.00
N502   N     0.88264   0.49999   0.25001   0.00000  Uiso   1.00
O503   O     0.70625   0.43989   0.25000   0.00000  Uiso   1.00
O504   O     0.89193   0.46097   0.39202   0.00000  Uiso   1.00
O505   O     0.96028   0.48020   0.11243   0.00000  Uiso   1.00
O506   O     0.69180   0.55657   0.37736   0.00000  Uiso   1.00
O507   O     0.91213   0.37399   0.28585   0.00000  Uiso   1.00
O508   O     0.75453   0.62634   0.21240   0.00000  Uiso   1.00
O509   O     0.96042   0.56011   0.25000   0.00000  Uiso   1.00
O510   O     0.96039   0.43988   0.25001   0.00000  Uiso   1.00
O511   O     0.70628   0.56012   0.25000   0.00000  Uiso   1.00
O512   O     0.68519   0.50001   0.31492   0.00000  Uiso   1.00
O513   O     0.98148   0.49999   0.18509   0.00000  Uiso   1.00
O514   O     0.93933   0.50000   0.31492   0.00000  Uiso   1.00
O515   O     0.72733   0.50000   0.18508   0.00000  Uiso   1.00
O516   O     0.79424   0.49998   0.11417   0.00000  Uiso   1.00
C517   C     0.33298   0.75404   0.25039   0.00000  Uiso   1.00
C518   C     0.04317   0.68873   0.23237   0.00000  Uiso   1.00
C519   C     0.00074   0.95715   0.24870   0.00000  Uiso   1.00
C520   C     0.33253   0.70939   0.24999   0.00000  Uiso   1.00
C521   C     0.18225   0.81040   0.28040   0.00000  Uiso   1.00
C522   C     0.15103   0.85652   0.21983   0.00000  Uiso   1.00
C523   C     0.13266   0.81037   0.28035   0.00000  Uiso   1.00
C524   C     0.20061   0.85656   0.21989   0.00000  Uiso   1.00
C525   C     0.30604   0.83477   0.33588   0.00000  Uiso   1.00
C526   C     0.02747   0.83210   0.16373   0.00000  Uiso   1.00
C527   C     0.29076   0.84287   0.38406   0.00000  Uiso   1.00
C528   C     0.00035   0.91258   0.24945   0.00000  Uiso   1.00
C529   C     0.04278   0.82939   0.11413   0.00000  Uiso   1.00
C530   C     0.29647   0.88423   0.44734   0.00000  Uiso   1.00
C531   C     0.02507   0.81513   0.04322   0.00000  Uiso   1.00
C532   C     0.31685   0.87092   0.40342   0.00000  Uiso   1.00
C533   C     0.00859   0.82094   0.08977   0.00000  Uiso   1.00
C534   C     0.24564   0.82711   0.40913   0.00000  Uiso   1.00
C535   C     0.09255   0.83413   0.09088   0.00000  Uiso   1.00
C536   C     0.22197   0.84498   0.45092   0.00000  Uiso   1.00
C537   C     0.10697   0.83588   0.04368   0.00000  Uiso   1.00
C538   C     0.24941   0.87185   0.47093   0.00000  Uiso   1.00
C539   C     0.18274   0.87503   0.03808   0.00000  Uiso   1.00
C540   C     0.07380   0.82229   0.02029   0.00000  Uiso   1.00
C541   C     0.17212   0.83734   0.47348   0.00000  Uiso   1.00
C542   C     0.15440   0.84850   0.01920   0.00000  Uiso   1.00
C543   C     0.14360   0.79231   0.11490   0.00000  Uiso   1.00
C544   C     0.24188   0.75749   0.40661   0.00000  Uiso   1.00
C545   C     0.26307   0.83942   0.09586   0.00000  Uiso   1.00
C546   C     0.06588   0.87396   0.38882   0.00000  Uiso   1.00
C547   C     0.21309   0.70177   0.25909   0.00000  Uiso   1.00
C548   C     0.09426   0.95493   0.16598   0.00000  Uiso   1.00
C549   C     0.13836   0.82231   0.45123   0.00000  Uiso   1.00
C550   C     0.22896   0.88739   0.01376   0.00000  Uiso   1.00
C551   C     0.08979   0.81575   0.47423   0.00000  Uiso   1.00
C552   C     0.28866   0.68722   0.26607   0.00000  Uiso   1.00
C553   C     0.04409   0.97936   0.23044   0.00000  Uiso   1.00
C554   C     0.29019   0.97776   0.26644   0.00000  Uiso   1.00
Cu555  Cu    0.04689   0.83334   0.25000   0.00000  Uiso   1.00
Cu556  Cu    0.28645   0.83333   0.25000   0.00000  Uiso   1.00
H557   H     0.24910   0.90882   0.02886   0.00000  Uiso   1.00
H558   H     0.16651   0.79037   0.13847   0.00000  Uiso   1.00
H559   H     0.16617   0.78284   0.08121   0.00000  Uiso   1.00
H560   H     0.23034   0.75509   0.44381   0.00000  Uiso   1.00
H561   H     0.28214   0.75477   0.39379   0.00000  Uiso   1.00
H562   H     0.22545   0.73114   0.39306   0.00000  Uiso   1.00
H563   H     0.27824   0.87114   0.08833   0.00000  Uiso   1.00
H564   H     0.22798   0.84257   0.12183   0.00000  Uiso   1.00
H565   H     0.25532   0.82530   0.06593   0.00000  Uiso   1.00
H566   H     0.09928   0.88728   0.36583   0.00000  Uiso   1.00
H567   H     0.06804   0.83991   0.38453   0.00000  Uiso   1.00
H568   H     0.06466   0.80515   0.45593   0.00000  Uiso   1.00
H569   H     0.06565   0.88284   0.42348   0.00000  Uiso   1.00
H570   H     0.31630   0.90631   0.46198   0.00000  Uiso   1.00
H571   H     0.33307   0.80503   0.02491   0.00000  Uiso   1.00
H572   H     0.22929   0.71310   0.22433   0.00000  Uiso   1.00
H573   H     0.17982   0.71999   0.27369   0.00000  Uiso   1.00
H574   H     0.20143   0.66908   0.25864   0.00000  Uiso   1.00
H575   H     0.06513   0.93516   0.15907   0.00000  Uiso   1.00
H576   H     0.12951   0.93941   0.15130   0.00000  Uiso   1.00
H577   H     0.09570   0.98528   0.14904   0.00000  Uiso   1.00
H578   H     0.10663   0.79190   0.30461   0.00000  Uiso   1.00
H579   H     0.16842   0.88868   0.07078   0.00000  Uiso   1.00
H580   H     0.22659   0.87531   0.19592   0.00000  Uiso   1.00
H581   H     0.14758   0.81852   0.41540   0.00000  Uiso   1.00
H582   H     0.25708   0.96064   0.28145   0.00000  Uiso   1.00
H583   H     0.07687   0.70566   0.21918   0.00000  Uiso   1.00
H584   H     0.19355   0.79198   0.30474   0.00000  Uiso   1.00
H585   H     0.13971   0.87511   0.19567   0.00000  Uiso   1.00
H586   H     0.11272   0.77032   0.12717   0.00000  Uiso   1.00
N587   N     0.11736   0.83334   0.24999   0.00000  Uiso   1.00
N588   N     0.21597   0.83332   0.25001   0.00000  Uiso   1.00
O589   O     0.03958   0.77322   0.25000   0.00000  Uiso   1.00
O590   O     0.22527   0.79430   0.39202   0.00000  Uiso   1.00
O591   O     0.29362   0.81353   0.11243   0.00000  Uiso   1.00
O592   O     0.02513   0.88991   0.37736   0.00000  Uiso   1.00
O593   O     0.24546   0.70732   0.28585   0.00000  Uiso   1.00
O594   O     0.08787   0.95967   0.21240   0.00000  Uiso   1.00
O595   O     0.29375   0.89345   0.25000   0.00000  Uiso   1.00
O596   O     0.29372   0.77321   0.25001   0.00000  Uiso   1.00
O597   O     0.03961   0.89346   0.25000   0.00000  Uiso   1.00
O598   O     0.01852   0.83334   0.31492   0.00000  Uiso   1.00
O599   O     0.31481   0.83332   0.18509   0.00000  Uiso   1.00
O600   O     0.27267   0.83333   0.31492   0.00000  Uiso   1.00
O601   O     0.06067   0.83333   0.18508   0.00000  Uiso   1.00
O602   O     0.12757   0.83332   0.11417   0.00000  Uiso   1.00
C603   C     0.66632   0.75404   0.25039   0.00000  Uiso   1.00
C604   C     0.37651   0.68873   0.23237   0.00000  Uiso   1.00
C605   C     0.33407   0.95715   0.24870   0.00000  Uiso   1.00
C606   C     0.66587   0.70939   0.24999   0.00000  Uiso   1.00
C607   C     0.51559   0.81040   0.28040   0.00000  Uiso   1.00
C608   C     0.48436   0.85652   0.21983   0.00000  Uiso   1.00
C609   C     0.46600   0.81037   0.28035   0.00000  Uiso   1.00
C610   C     0.53394   0.85656   0.21989   0.00000  Uiso   1.00
C611   C     0.63937   0.83477   0.33588   0.00000  Uiso   1.00
C612   C     0.36080   0.83210   0.16373   0.00000  Uiso   1.00
C613   C     0.62409   0.84287   0.38406   0.00000  Uiso   1.00
C614   C     0.33369   0.91258   0.24945   0.00000  Uiso   1.00
C615   C     0.37611   0.82939   0.11413   0.00000  Uiso   1.00
C616   C     0.62981   0.88423   0.44734   0.00000  Uiso   1.00
C617   C     0.35841   0.81513   0.04322   0.00000  Uiso   1.00
C618   C     0.65018   0.87092   0.40342   0.00000  Uiso   1.00
C619   C     0.34193   0.82094   0.08977   0.00000  Uiso   1.00
C620   C     0.57898   0.82711   0.40913   0.00000  Uiso   1.00
C621   C     0.42589   0.83413   0.09088   0.00000  Uiso   1.00
C622   C     0.55531   0.84498   0.45092   0.00000  Uiso   1.00
C623   C     0.44031   0.83588   0.04368   0.00000  Uiso   1.00
C624   C     0.58274   0.87185   0.47093   0.00000  Uiso   1.00
C625   C     0.51608   0.87503   0.03808   0.00000  Uiso   1.00
C626   C     0.40713   0.82229   0.02029   0.00000  Uiso   1.00
C627   C     0.50546   0.83734   0.47348   0.00000  Uiso   1.00
C628   C     0.48774   0.84850   0.01920   0.00000  Uiso   1.00
C629   C     0.47694   0.79231   0.11490   0.00000  Uiso   1.00
C630   C     0.57521   0.75749   0.40661   0.00000  Uiso   1.00
C631   C     0.59640   0.83942   0.09586   0.00000  Uiso   1.00
C632   C     0.39921   0.87396   0.38882   0.00000  Uiso   1.00
C633   C     0.54642   0.70177   0.25909   0.00000  Uiso   1.00
C634   C     0.42759   0.95493   0.16598   0.00000  Uiso   1.00
C635   C     0.47170   0.82231   0.45123   0.00000  Uiso   1.00
C636   C     0.56230   0.88739   0.01376   0.00000  Uiso   1.00
C637   C     0.42312   0.81575   0.47423   0.00000  Uiso   1.00
C638   C     0.62199   0.68722   0.26607   0.00000  Uiso   1.00
C639   C     0.37742   0.97936   0.23044   0.00000  Uiso   1.00
C640   C     0.62353   0.97776   0.26644   0.00000  Uiso   1.00
Cu641  Cu    0.38022   0.83334   0.25000   0.00000  Uiso   1.00
Cu642  Cu    0.61978   0.83333   0.25000   0.00000  Uiso   1.00
H643   H     0.58243   0.90882   0.02886   0.00000  Uiso   1.00
H644   H     0.49985   0.79037   0.13847   0.00000  Uiso   1.00
H645   H     0.49950   0.78284   0.08121   0.00000  Uiso   1.00
H646   H     0.56368   0.75509   0.44381   0.00000  Uiso   1.00
H647   H     0.61548   0.75477   0.39379   0.00000  Uiso   1.00
H648   H     0.55878   0.73114   0.39306   0.00000  Uiso   1.00
H649   H     0.61158   0.87114   0.08833   0.00000  Uiso   1.00
H650   H     0.56131   0.84257   0.12183   0.00000  Uiso   1.00
H651   H     0.58865   0.82530   0.06593   0.00000  Uiso   1.00
H652   H     0.43261   0.88728   0.36583   0.00000  Uiso   1.00
H653   H     0.40137   0.83991   0.38453   0.00000  Uiso   1.00
H654   H     0.39799   0.80515   0.45593   0.00000  Uiso   1.00
H655   H     0.39899   0.88284   0.42348   0.00000  Uiso   1.00
H656   H     0.64964   0.90631   0.46198   0.00000  Uiso   1.00
H657   H     0.66641   0.80503   0.02491   0.00000  Uiso   1.00
H658   H     0.56262   0.71310   0.22433   0.00000  Uiso   1.00
H659   H     0.51315   0.71999   0.27369   0.00000  Uiso   1.00
H660   H     0.53476   0.66908   0.25864   0.00000  Uiso   1.00
H661   H     0.39846   0.93516   0.15907   0.00000  Uiso   1.00
H662   H     0.46285   0.93941   0.15130   0.00000  Uiso   1.00
H663   H     0.42904   0.98528   0.14904   0.00000  Uiso   1.00
H664   H     0.43996   0.79190   0.30461   0.00000  Uiso   1.00
H665   H     0.50176   0.88868   0.07078   0.00000  Uiso   1.00
H666   H     0.55992   0.87531   0.19592   0.00000  Uiso   1.00
H667   H     0.48091   0.81852   0.41540   0.00000  Uiso   1.00
H668   H     0.59042   0.96064   0.28145   0.00000  Uiso   1.00
H669   H     0.41021   0.70566   0.21918   0.00000  Uiso   1.00
H670   H     0.52688   0.79198   0.30474   0.00000  Uiso   1.00
H671   H     0.47304   0.87511   0.19567   0.00000  Uiso   1.00
H672   H     0.44606   0.77032   0.12717   0.00000  Uiso   1.00
N673   N     0.45069   0.83334   0.24999   0.00000  Uiso   1.00
N674   N     0.54931   0.83332   0.25001   0.00000  Uiso   1.00
O675   O     0.37291   0.77322   0.25000   0.00000  Uiso   1.00
O676   O     0.55860   0.79430   0.39202   0.00000  Uiso   1.00
O677   O     0.62695   0.81353   0.11243   0.00000  Uiso   1.00
O678   O     0.35847   0.88991   0.37736   0.00000  Uiso   1.00
O679   O     0.57880   0.70732   0.28585   0.00000  Uiso   1.00
O680   O     0.42120   0.95967   0.21240   0.00000  Uiso   1.00
O681   O     0.62709   0.89345   0.25000   0.00000  Uiso   1.00
O682   O     0.62706   0.77321   0.25001   0.00000  Uiso   1.00
O683   O     0.37294   0.89346   0.25000   0.00000  Uiso   1.00
O684   O     0.35186   0.83334   0.31492   0.00000  Uiso   1.00
O685   O     0.64814   0.83332   0.18509   0.00000  Uiso   1.00
O686   O     0.60600   0.83333   0.31492   0.00000  Uiso   1.00
O687   O     0.39400   0.83333   0.18508   0.00000  Uiso   1.00
O688   O     0.46090   0.83332   0.11417   0.00000  Uiso   1.00
C689   C     0.99965   0.75404   0.25039   0.00000  Uiso   1.00
C690   C     0.70984   0.68873   0.23237   0.00000  Uiso   1.00
C691   C     0.66741   0.95715   0.24870   0.00000  Uiso   1.00
C692   C     0.99920   0.70939   0.24999   0.00000  Uiso   1.00
C693   C     0.84892   0.81040   0.28040   0.00000  Uiso   1.00
C694   C     0.81769   0.85652   0.21983   0.00000  Uiso   1.00
C695   C     0.79933   0.81037   0.28035   0.00000  Uiso   1.00
C696   C     0.86727   0.85656   0.21989   0.00000  Uiso   1.00
C697   C     0.97271   0.83477   0.33588   0.00000  Uiso   1.00
C698   C     0.69414   0.83210   0.16373   0.00000  Uiso   1.00
C699   C     0.95742   0.84287   0.38406   0.00000  Uiso   1.00
C700   C     0.66702   0.91258   0.24945   0.00000  Uiso   1.00
C701   C     0.70944   0.82939   0.11413   0.00000  Uiso   1.00
C702   C     0.96314   0.88423   0.44734   0.00000  Uiso   1.00
C703   C     0.69174   0.81513   0.04322   0.00000  Uiso   1.00
C704   C     0.98352   0.87092   0.40342   0.00000  Uiso   1.00
C705   C     0.67526   0.82094   0.08977   0.00000  Uiso   1.00
C706   C     0.91231   0.82711   0.40913   0.00000  Uiso   1.00
C707   C     0.75922   0.83413   0.09088   0.00000  Uiso   1.00
C708   C     0.88864   0.84498   0.45092   0.00000  Uiso   1.00
C709   C     0.77364   0.83588   0.04368   0.00000  Uiso   1.00
C710   C     0.91607   0.87185   0.47093   0.00000  Uiso   1.00
C711   C     0.84941   0.87503   0.03808   0.00000  Uiso   1.00
C712   C     0.74046   0.82229   0.02029   0.00000  Uiso   1.00
C713   C     0.83879   0.83734   0.47348   0.00000  Uiso   1.00
C714   C     0.82107   0.84850   0.01920   0.00000  Uiso   1.00
C715   C     0.81027   0.79231   0.11490   0.00000  Uiso   1.00
C716   C     0.90854   0.75749   0.40661   0.00000  Uiso   1.00
C717   C     0.92973   0.83942   0.09586   0.00000  Uiso   1.00
C718   C     0.73255   0.87396   0.38882   0.00000  Uiso   1.00
C719   C     0.87975   0.70177   0.25909   0.00000  Uiso   1.00
C720   C     0.76093   0.95493   0.16598   0.00000  Uiso   1.00
C721   C     0.80503   0.82231   0.45123   0.00000  Uiso   1.00
C722   C     0.89563   0.88739   0.01376   0.00000  Uiso   1.00
C723   C     0.75646   0.81575   0.47423   0.00000  Uiso   1.00
C724   C     0.95532   0.68722   0.26607   0.00000  Uiso   1.00
C725   C     0.71076   0.97936   0.23044   0.00000  Uiso   1.00
C726   C     0.95686   0.97776   0.26644   0.00000  Uiso   1.00
Cu727  Cu    0.71355   0.83334   0.25000   0.00000  Uiso   1.00
Cu728  Cu    0.95311   0.83333   0.25000   0.00000  Uiso   1.00
H729   H     0.91576   0.90882   0.02886   0.00000  Uiso   1.00
H730   H     0.83318   0.79037   0.13847   0.00000  Uiso   1.00
H731   H     0.83283   0.78284   0.08121   0.00000  Uiso   1.00
H732   H     0.89701   0.75509   0.44381   0.00000  Uiso   1.00
H733   H     0.94881   0.75477   0.39379   0.00000  Uiso   1.00
H734   H     0.89211   0.73114   0.39306   0.00000  Uiso   1.00
H735   H     0.94491   0.87114   0.08833   0.00000  Uiso   1.00
H736   H     0.89464   0.84257   0.12183   0.00000  Uiso   1.00
H737   H     0.92198   0.82530   0.06593   0.00000  Uiso   1.00
H738   H     0.76595   0.88728   0.36583   0.00000  Uiso   1.00
H739   H     0.73470   0.83991   0.38453   0.00000  Uiso   1.00
H740   H     0.73133   0.80515   0.45593   0.00000  Uiso   1.00
H741   H     0.73232   0.88284   0.42348   0.00000  Uiso   1.00
H742   H     0.98297   0.90631   0.46198   0.00000  Uiso   1.00
H743   H     0.99974   0.80503   0.02491   0.00000  Uiso   1.00
H744   H     0.89596   0.71310   0.22433   0.00000  Uiso   1.00
H745   H     0.84649   0.71999   0.27369   0.00000  Uiso   1.00
H746   H     0.86809   0.66908   0.25864   0.00000  Uiso   1.00
H747   H     0.73179   0.93516   0.15907   0.00000  Uiso   1.00
H748   H     0.79618   0.93941   0.15130   0.00000  Uiso   1.00
H749   H     0.76237   0.98528   0.14904   0.00000  Uiso   1.00
H750   H     0.77330   0.79190   0.30461   0.00000  Uiso   1.00
H751   H     0.83509   0.88868   0.07078   0.00000  Uiso   1.00
H752   H     0.89325   0.87531   0.19592   0.00000  Uiso   1.00
H753   H     0.81424   0.81852   0.41540   0.00000  Uiso   1.00
H754   H     0.92375   0.96064   0.28145   0.00000  Uiso   1.00
H755   H     0.74354   0.70566   0.21918   0.00000  Uiso   1.00
H756   H     0.86021   0.79198   0.30474   0.00000  Uiso   1.00
H757   H     0.80637   0.87511   0.19567   0.00000  Uiso   1.00
H758   H     0.77939   0.77032   0.12717   0.00000  Uiso   1.00
N759   N     0.78403   0.83334   0.24999   0.00000  Uiso   1.00
N760   N     0.88264   0.83332   0.25001   0.00000  Uiso   1.00
O761   O     0.70625   0.77322   0.25000   0.00000  Uiso   1.00
O762   O     0.89193   0.79430   0.39202   0.00000  Uiso   1.00
O763   O     0.96028   0.81353   0.11243   0.00000  Uiso   1.00
O764   O     0.69180   0.88991   0.37736   0.00000  Uiso   1.00
O765   O     0.91213   0.70732   0.28585   0.00000  Uiso   1.00
O766   O     0.75453   0.95967   0.21240   0.00000  Uiso   1.00
O767   O     0.96042   0.89345   0.25000   0.00000  Uiso   1.00
O768   O     0.96039   0.77321   0.25001   0.00000  Uiso   1.00
O769   O     0.70628   0.89346   0.25000   0.00000  Uiso   1.00
O770   O     0.68519   0.83334   0.31492   0.00000  Uiso   1.00
O771   O     0.98148   0.83332   0.18509   0.00000  Uiso   1.00
O772   O     0.93933   0.83333   0.31492   0.00000  Uiso   1.00
O773   O     0.72733   0.83333   0.18508   0.00000  Uiso   1.00
O774   O     0.79424   0.83332   0.11417   0.00000  Uiso   1.00
C775   C     0.33298   0.08737   0.75039   0.00000  Uiso   1.00
C776   C     0.04317   0.02206   0.73237   0.00000  Uiso   1.00
C777   C     0.00074   0.29049   0.74870   0.00000  Uiso   1.00
C778   C     0.33253   0.04272   0.74999   0.00000  Uiso   1.00
C779   C     0.18225   0.14373   0.78040   0.00000  Uiso   1.00
C780   C     0.15103   0.18985   0.71983   0.00000  Uiso   1.00
C781   C     0.13266   0.14370   0.78035   0.00000  Uiso   1.00
C782   C     0.20061   0.18989   0.71989   0.00000  Uiso   1.00
C783   C     0.30604   0.16810   0.83588   0.00000  Uiso   1.00
C784   C     0.02747   0.16544   0.66373   0.00000  Uiso   1.00
C785   C     0.29076   0.17620   0.88406   0.00000  Uiso   1.00
C786   C     0.00035   0.24592   0.74945   0.00000  Uiso   1.00
C787   C     0.04278   0.16273   0.61413   0.00000  Uiso   1.00
C788   C     0.29647   0.21756   0.94734   0.00000  Uiso   1.00
C789   C     0.02507   0.14846   0.54322   0.00000  Uiso   1.00
C790   C     0.31685   0.20425   0.90342   0.00000  Uiso   1.00
C791   C     0.00859   0.15427   0.58977   0.00000  Uiso   1.00
C792   C     0.24564   0.16045   0.90913   0.00000  Uiso   1.00
C793   C     0.09255   0.16747   0.59088   0.00000  Uiso   1.00
C794   C     0.22197   0.17831   0.95092   0.00000  Uiso   1.00
C795   C     0.10697   0.16921   0.54368   0.00000  Uiso   1.00
C796   C     0.24941   0.20518   0.97093   0.00000  Uiso   1.00
C797   C     0.18274   0.20836   0.53808   0.00000  Uiso   1.00
C798   C     0.07380   0.15562   0.52029   0.00000  Uiso   1.00
C799   C     0.17212   0.17067   0.97348   0.00000  Uiso   1.00
C800   C     0.15440   0.18183   0.51920   0.00000  Uiso   1.00
C801   C     0.14360   0.12565   0.61490   0.00000  Uiso   1.00
C802   C     0.24188   0.09083   0.90661   0.00000  Uiso   1.00
C803   C     0.26307   0.17275   0.59586   0.00000  Uiso   1.00
C804   C     0.06588   0.20729   0.88882   0.00000  Uiso   1.00
C805   C     0.21309   0.03510   0.75909   0.00000  Uiso   1.00
C806   C     0.09426   0.28826   0.66598   0.00000  Uiso   1.00
C807   C     0.13836   0.15564   0.95123   0.00000  Uiso   1.00
C808   C     0.22896   0.22073   0.51376   0.00000  Uiso   1.00
C809   C     0.08979   0.14908   0.97423   0.00000  Uiso   1.00
C810   C     0.28866   0.02055   0.76607   0.00000  Uiso   1.00
C811   C     0.04409   0.31269   0.73044   0.00000  Uiso   1.00
C812   C     0.29019   0.31110   0.76644   0.00000  Uiso   1.00
Cu813  Cu    0.04689   0.16667   0.75000   0.00000  Uiso   1.00
Cu814  Cu    0.28645   0.16666   0.75000   0.00000  Uiso   1.00
H815   H     0.24910   0.24215   0.52886   0.00000  Uiso   1.00
H816   H     0.16651   0.12370   0.63847   0.00000  Uiso   1.00
H817   H     0.16617   0.11618   0.58121   0.00000  Uiso   1.00
H818   H     0.23034   0.08843   0.94381   0.00000  Uiso   1.00
H819   H     0.28214   0.08810   0.89379   0.00000  Uiso   1.00
H820   H     0.22545   0.06447   0.89306   0.00000  Uiso   1.00
H821   H     0.27824   0.20447   0.58833   0.00000  Uiso   1.00
H822   H     0.22798   0.17590   0.62183   0.00000  Uiso   1.00
H823   H     0.25532   0.15864   0.56593   0.00000  Uiso   1.00
H824   H     0.09928   0.22062   0.86583   0.00000  Uiso   1.00
H825   H     0.06804   0.17325   0.88453   0.00000  Uiso   1.00
H826   H     0.06466   0.13848   0.95593   0.00000  Uiso   1.00
H827   H     0.06565   0.21617   0.92348   0.00000  Uiso   1.00
H828   H     0.31630   0.23964   0.96198   0.00000  Uiso   1.00
H829   H     0.33307   0.13836   0.52491   0.00000  Uiso   1.00
H830   H     0.22929   0.04643   0.72433   0.00000  Uiso   1.00
H831   H     0.17982   0.05332   0.77369   0.00000  Uiso   1.00
H832   H     0.20143   0.00242   0.75864   0.00000  Uiso   1.00
H833   H     0.06513   0.26850   0.65907   0.00000  Uiso   1.00
H834   H     0.12951   0.27274   0.65130   0.00000  Uiso   1.00
H835   H     0.09570   0.31861   0.64904   0.00000  Uiso   1.00
H836   H     0.10663   0.12523   0.80461   0.00000  Uiso   1.00
H837   H     0.16842   0.22202   0.57078   0.00000  Uiso   1.00
H838   H     0.22659   0.20864   0.69592   0.00000  Uiso   1.00
H839   H     0.14758   0.15185   0.91540   0.00000  Uiso   1.00
H840   H     0.25708   0.29397   0.78145   0.00000  Uiso   1.00
H841   H     0.07687   0.03900   0.71918   0.00000  Uiso   1.00
H842   H     0.19355   0.12532   0.80474   0.00000  Uiso   1.00
H843   H     0.13971   0.20844   0.69567   0.00000  Uiso   1.00
H844   H     0.11272   0.10365   0.62717   0.00000  Uiso   1.00
N845   N     0.11736   0.16668   0.74999   0.00000  Uiso   1.00
N846   N     0.21597   0.16666   0.75001   0.00000  Uiso   1.00
O847   O     0.03958   0.10655   0.75000   0.00000  Uiso   1.00
O848   O     0.22527   0.12763   0.89202   0.00000  Uiso   1.00
O849   O     0.29362   0.14686   0.61243   0.00000  Uiso   1.00
O850   O     0.02513   0.22324   0.87736   0.00000  Uiso   1.00
O851   O     0.24546   0.04066   0.78585   0.00000  Uiso   1.00
O852   O     0.08787   0.29301   0.71240   0.00000  Uiso   1.00
O853   O     0.29375   0.22678   0.75000   0.00000  Uiso   1.00
O854   O     0.29372   0.10654   0.75001   0.00000  Uiso   1.00
O855   O     0.03961   0.22679   0.75000   0.00000  Uiso   1.00
O856   O     0.01852   0.16668   0.81492   0.00000  Uiso   1.00
O857   O     0.31481   0.16666   0.68509   0.00000  Uiso   1.00
O858   O     0.27267   0.16667   0.81492   0.00000  Uiso   1.00
O859   O     0.06067   0.16667   0.68508   0.00000  Uiso   1.00
O860   O     0.12757   0.16665   0.61417   0.00000  Uiso   1.00
C861   C     0.66632   0.08737   0.75039   0.00000  Uiso   1.00
C862   C     0.37651   0.02206   0.73237   0.00000  Uiso   1.00
C863   C     0.33407   0.29049   0.74870   0.00000  Uiso   1.00
C864   C     0.66587   0.04272   0.74999   0.00000  Uiso   1.00
C865   C     0.51559   0.14373   0.78040   0.00000  Uiso   1.00
C866   C     0.48436   0.18985   0.71983   0.00000  Uiso   1.00
C867   C     0.46600   0.14370   0.78035   0.00000  Uiso   1.00
C868   C     0.53394   0.18989   0.71989   0.00000  Uiso   1.00
C869   C     0.63937   0.16810   0.83588   0.00000  Uiso   1.00
C870   C     0.36080   0.16544   0.66373   0.00000  Uiso   1.00
C871   C     0.62409   0.17620   0.88406   0.00000  Uiso   1.00
C872   C     0.33369   0.24592   0.74945   0.00000  Uiso   1.00
C873   C     0.37611   0.16273   0.61413   0.00000  Uiso   1.00
C874   C     0.62981   0.21756   0.94734   0.00000  Uiso   1.00
C875   C     0.35841   0.14846   0.54322   0.00000  Uiso   1.00
C876   C     0.65018   0.20425   0.90342   0.00000  Uiso   1.00
C877   C     0.34193   0.15427   0.58977   0.00000  Uiso   1.00
C878   C     0.57898   0.16045   0.90913   0.00000  Uiso   1.00
C879   C     0.42589   0.16747   0.59088   0.00000  Uiso   1.00
C880   C     0.55531   0.17831   0.95092   0.00000  Uiso   1.00
C881   C     0.44031   0.16921   0.54368   0.00000  Uiso   1.00
C882   C     0.58274   0.20518   0.97093   0.00000  Uiso   1.00
C883   C     0.51608   0.20836   0.53808   0.00000  Uiso   1.00
C884   C     0.40713   0.15562   0.52029   0.00000  Uiso   1.00
C885   C     0.50546   0.17067   0.97348   0.00000  Uiso   1.00
C886   C     0.48774   0.18183   0.51920   0.00000  Uiso   1.00
C887   C     0.47694   0.12565   0.61490   0.00000  Uiso   1.00
C888   C     0.57521   0.09083   0.90661   0.00000  Uiso   1.00
C889   C     0.59640   0.17275   0.59586   0.00000  Uiso   1.00
C890   C     0.39921   0.20729   0.88882   0.00000  Uiso   1.00
C891   C     0.54642   0.03510   0.75909   0.00000  Uiso   1.00
C892   C     0.42759   0.28826   0.66598   0.00000  Uiso   1.00
C893   C     0.47170   0.15564   0.95123   0.00000  Uiso   1.00
C894   C     0.56230   0.22073   0.51376   0.00000  Uiso   1.00
C895   C     0.42312   0.14908   0.97423   0.00000  Uiso   1.00
C896   C     0.62199   0.02055   0.76607   0.00000  Uiso   1.00
C897   C     0.37742   0.31269   0.73044   0.00000  Uiso   1.00
C898   C     0.62353   0.31110   0.76644   0.00000  Uiso   1.00
Cu899  Cu    0.38022   0.16667   0.75000   0.00000  Uiso   1.00
Cu900  Cu    0.61978   0.16666   0.75000   0.00000  Uiso   1.00
H901   H     0.58243   0.24215   0.52886   0.00000  Uiso   1.00
H902   H     0.49985   0.12370   0.63847   0.00000  Uiso   1.00
H903   H     0.49950   0.11618   0.58121   0.00000  Uiso   1.00
H904   H     0.56368   0.08843   0.94381   0.00000  Uiso   1.00
H905   H     0.61548   0.08810   0.89379   0.00000  Uiso   1.00
H906   H     0.55878   0.06447   0.89306   0.00000  Uiso   1.00
H907   H     0.61158   0.20447   0.58833   0.00000  Uiso   1.00
H908   H     0.56131   0.17590   0.62183   0.00000  Uiso   1.00
H909   H     0.58865   0.15864   0.56593   0.00000  Uiso   1.00
H910   H     0.43261   0.22062   0.86583   0.00000  Uiso   1.00
H911   H     0.40137   0.17325   0.88453   0.00000  Uiso   1.00
H912   H     0.39799   0.13848   0.95593   0.00000  Uiso   1.00
H913   H     0.39899   0.21617   0.92348   0.00000  Uiso   1.00
H914   H     0.64964   0.23964   0.96198   0.00000  Uiso   1.00
H915   H     0.66641   0.13836   0.52491   0.00000  Uiso   1.00
H916   H     0.56262   0.04643   0.72433   0.00000  Uiso   1.00
H917   H     0.51315   0.05332   0.77369   0.00000  Uiso   1.00
H918   H     0.53476   0.00242   0.75864   0.00000  Uiso   1.00
H919   H     0.39846   0.26850   0.65907   0.00000  Uiso   1.00
H920   H     0.46285   0.27274   0.65130   0.00000  Uiso   1.00
H921   H     0.42904   0.31861   0.64904   0.00000  Uiso   1.00
H922   H     0.43996   0.12523   0.80461   0.00000  Uiso   1.00
H923   H     0.50176   0.22202   0.57078   0.00000  Uiso   1.00
H924   H     0.55992   0.20864   0.69592   0.00000  Uiso   1.00
H925   H     0.48091   0.15185   0.91540   0.00000  Uiso   1.00
H926   H     0.59042   0.29397   0.78145   0.00000  Uiso   1.00
H927   H     0.41021   0.03900   0.71918   0.00000  Uiso   1.00
H928   H     0.52688   0.12532   0.80474   0.00000  Uiso   1.00
H929   H     0.47304   0.20844   0.69567   0.00000  Uiso   1.00
H930   H     0.44606   0.10365   0.62717   0.00000  Uiso   1.00
N931   N     0.45069   0.16668   0.74999   0.00000  Uiso   1.00
N932   N     0.54931   0.16666   0.75001   0.00000  Uiso   1.00
O933   O     0.37291   0.10655   0.75000   0.00000  Uiso   1.00
O934   O     0.55860   0.12763   0.89202   0.00000  Uiso   1.00
O935   O     0.62695   0.14686   0.61243   0.00000  Uiso   1.00
O936   O     0.35847   0.22324   0.87736   0.00000  Uiso   1.00
O937   O     0.57880   0.04066   0.78585   0.00000  Uiso   1.00
O938   O     0.42120   0.29301   0.71240   0.00000  Uiso   1.00
O939   O     0.62709   0.22678   0.75000   0.00000  Uiso   1.00
O940   O     0.62706   0.10654   0.75001   0.00000  Uiso   1.00
O941   O     0.37294   0.22679   0.75000   0.00000  Uiso   1.00
O942   O     0.35186   0.16668   0.81492   0.00000  Uiso   1.00
O943   O     0.64814   0.16666   0.68509   0.00000  Uiso   1.00
O944   O     0.60600   0.16667   0.81492   0.00000  Uiso   1.00
O945   O     0.39400   0.16667   0.68508   0.00000  Uiso   1.00
O946   O     0.46090   0.16665   0.61417   0.00000  Uiso   1.00
C947   C     0.99965   0.08737   0.75039   0.00000  Uiso   1.00
C948   C     0.70984   0.02206   0.73237   0.00000  Uiso   1.00
C949   C     0.66741   0.29049   0.74870   0.00000  Uiso   1.00
C950   C     0.99920   0.04272   0.74999   0.00000  Uiso   1.00
C951   C     0.84892   0.14373   0.78040   0.00000  Uiso   1.00
C952   C     0.81769   0.18985   0.71983   0.00000  Uiso   1.00
C953   C     0.79933   0.14370   0.78035   0.00000  Uiso   1.00
C954   C     0.86727   0.18989   0.71989   0.00000  Uiso   1.00
C955   C     0.97271   0.16810   0.83588   0.00000  Uiso   1.00
C956   C     0.69414   0.16544   0.66373   0.00000  Uiso   1.00
C957   C     0.95742   0.17620   0.88406   0.00000  Uiso   1.00
C958   C     0.66702   0.24592   0.74945   0.00000  Uiso   1.00
C959   C     0.70944   0.16273   0.61413   0.00000  Uiso   1.00
C960   C     0.96314   0.21756   0.94734   0.00000  Uiso   1.00
C961   C     0.69174   0.14846   0.54322   0.00000  Uiso   1.00
C962   C     0.98352   0.20425   0.90342   0.00000  Uiso   1.00
C963   C     0.67526   0.15427   0.58977   0.00000  Uiso   1.00
C964   C     0.91231   0.16045   0.90913   0.00000  Uiso   1.00
C965   C     0.75922   0.16747   0.59088   0.00000  Uiso   1.00
C966   C     0.88864   0.17831   0.95092   0.00000  Uiso   1.00
C967   C     0.77364   0.16921   0.54368   0.00000  Uiso   1.00
C968   C     0.91607   0.20518   0.97093   0.00000  Uiso   1.00
C969   C     0.84941   0.20836   0.53808   0.00000  Uiso   1.00
C970   C     0.74046   0.15562   0.52029   0.00000  Uiso   1.00
C971   C     0.83879   0.17067   0.97348   0.00000  Uiso   1.00
C972   C     0.82107   0.18183   0.51920   0.00000  Uiso   1.00
C973   C     0.81027   0.12565   0.61490   0.00000  Uiso   1.00
C974   C     0.90854   0.09083   0.90661   0.00000  Uiso   1.00
C975   C     0.92973   0.17275   0.59586   0.00000  Uiso   1.00
C976   C     0.73255   0.20729   0.88882   0.00000  Uiso   1.00
C977   C     0.87975   0.03510   0.75909   0.00000  Uiso   1.00
C978   C     0.76093   0.28826   0.66598   0.00000  Uiso   1.00
C979   C     0.80503   0.15564   0.95123   0.00000  Uiso   1.00
C980   C     0.89563   0.22073   0.51376   0.00000  Uiso   1.00
C981   C     0.75646   0.14908   0.97423   0.00000  Uiso   1.00
C982   C     0.95532   0.02055   0.76607   0.00000  Uiso   1.00
C983   C     0.71076   0.31269   0.73044   0.00000  Uiso   1.00
C984   C     0.95686   0.31110   0.76644   0.00000  Uiso   1.00
Cu985  Cu    0.71355   0.16667   0.75000   0.00000  Uiso   1.00
Cu986  Cu    0.95311   0.16666   0.75000   0.00000  Uiso   1.00
H987   H     0.91576   0.24215   0.52886   0.00000  Uiso   1.00
H988   H     0.83318   0.12370   0.63847   0.00000  Uiso   1.00
H989   H     0.83283   0.11618   0.58121   0.00000  Uiso   1.00
H990   H     0.89701   0.08843   0.94381   0.00000  Uiso   1.00
H991   H     0.94881   0.08810   0.89379   0.00000  Uiso   1.00
H992   H     0.89211   0.06447   0.89306   0.00000  Uiso   1.00
H993   H     0.94491   0.20447   0.58833   0.00000  Uiso   1.00
H994   H     0.89464   0.17590   0.62183   0.00000  Uiso   1.00
H995   H     0.92198   0.15864   0.56593   0.00000  Uiso   1.00
H996   H     0.76595   0.22062   0.86583   0.00000  Uiso   1.00
H997   H     0.73470   0.17325   0.88453   0.00000  Uiso   1.00
H998   H     0.73133   0.13848   0.95593   0.00000  Uiso   1.00
H999   H     0.73232   0.21617   0.92348   0.00000  Uiso   1.00
H1000  H     0.98297   0.23964   0.96198   0.00000  Uiso   1.00
H1001  H     0.99974   0.13836   0.52491   0.00000  Uiso   1.00
H1002  H     0.89596   0.04643   0.72433   0.00000  Uiso   1.00
H1003  H     0.84649   0.05332   0.77369   0.00000  Uiso   1.00
H1004  H     0.86809   0.00242   0.75864   0.00000  Uiso   1.00
H1005  H     0.73179   0.26850   0.65907   0.00000  Uiso   1.00
H1006  H     0.79618   0.27274   0.65130   0.00000  Uiso   1.00
H1007  H     0.76237   0.31861   0.64904   0.00000  Uiso   1.00
H1008  H     0.77330   0.12523   0.80461   0.00000  Uiso   1.00
H1009  H     0.83509   0.22202   0.57078   0.00000  Uiso   1.00
H1010  H     0.89325   0.20864   0.69592   0.00000  Uiso   1.00
H1011  H     0.81424   0.15185   0.91540   0.00000  Uiso   1.00
H1012  H     0.92375   0.29397   0.78145   0.00000  Uiso   1.00
H1013  H     0.74354   0.03900   0.71918   0.00000  Uiso   1.00
H1014  H     0.86021   0.12532   0.80474   0.00000  Uiso   1.00
H1015  H     0.80637   0.20844   0.69567   0.00000  Uiso   1.00
H1016  H     0.77939   0.10365   0.62717   0.00000  Uiso   1.00
N1017  N     0.78403   0.16668   0.74999   0.00000  Uiso   1.00
N1018  N     0.88264   0.16666   0.75001   0.00000  Uiso   1.00
O1019  O     0.70625   0.10655   0.75000   0.00000  Uiso   1.00
O1020  O     0.89193   0.12763   0.89202   0.00000  Uiso   1.00
O1021  O     0.96028   0.14686   0.61243   0.00000  Uiso   1.00
O1022  O     0.69180   0.22324   0.87736   0.00000  Uiso   1.00
O1023  O     0.91213   0.04066   0.78585   0.00000  Uiso   1.00
O1024  O     0.75453   0.29301   0.71240   0.00000  Uiso   1.00
O1025  O     0.96042   0.22678   0.75000   0.00000  Uiso   1.00
O1026  O     0.96039   0.10654   0.75001   0.00000  Uiso   1.00
O1027  O     0.70628   0.22679   0.75000   0.00000  Uiso   1.00
O1028  O     0.68519   0.16668   0.81492   0.00000  Uiso   1.00
O1029  O     0.98148   0.16666   0.68509   0.00000  Uiso   1.00
O1030  O     0.93933   0.16667   0.81492   0.00000  Uiso   1.00
O1031  O     0.72733   0.16667   0.68508   0.00000  Uiso   1.00
O1032  O     0.79424   0.16665   0.61417   0.00000  Uiso   1.00
C1033  C     0.33298   0.42070   0.75039   0.00000  Uiso   1.00
C1034  C     0.04317   0.35539   0.73237   0.00000  Uiso   1.00
C1035  C     0.00074   0.62382   0.74870   0.00000  Uiso   1.00
C1036  C     0.33253   0.37606   0.74999   0.00000  Uiso   1.00
C1037  C     0.18225   0.47707   0.78040   0.00000  Uiso   1.00
C1038  C     0.15103   0.52318   0.71983   0.00000  Uiso   1.00
C1039  C     0.13266   0.47703   0.78035   0.00000  Uiso   1.00
C1040  C     0.20061   0.52322   0.71989   0.00000  Uiso   1.00
C1041  C     0.30604   0.50144   0.83588   0.00000  Uiso   1.00
C1042  C     0.02747   0.49877   0.66373   0.00000  Uiso   1.00
C1043  C     0.29076   0.50953   0.88406   0.00000  Uiso   1.00
C1044  C     0.00035   0.57925   0.74945   0.00000  Uiso   1.00
C1045  C     0.04278   0.49606   0.61413   0.00000  Uiso   1.00
C1046  C     0.29647   0.55090   0.94734   0.00000  Uiso   1.00
C1047  C     0.02507   0.48180   0.54322   0.00000  Uiso   1.00
C1048  C     0.31685   0.53758   0.90342   0.00000  Uiso   1.00
C1049  C     0.00859   0.48761   0.58977   0.00000  Uiso   1.00
C1050  C     0.24564   0.49378   0.90913   0.00000  Uiso   1.00
C1051  C     0.09255   0.50080   0.59088   0.00000  Uiso   1.00
C1052  C     0.22197   0.51164   0.95092   0.00000  Uiso   1.00
C1053  C     0.10697   0.50254   0.54368   0.00000  Uiso   1.00
C1054  C     0.24941   0.53851   0.97093   0.00000  Uiso   1.00
C1055  C     0.18274   0.54170   0.53808   0.00000  Uiso   1.00
C1056  C     0.07380   0.48896   0.52029   0.00000  Uiso   1.00
C1057  C     0.17212   0.50401   0.97348   0.00000  Uiso   1.00
C1058  C     0.15440   0.51517   0.51920   0.00000  Uiso   1.00
C1059  C     0.14360   0.45898   0.61490   0.00000  Uiso   1.00
C1060  C     0.24188   0.42416   0.90661   0.00000  Uiso   1.00
C1061  C     0.26307   0.50609   0.59586   0.00000  Uiso   1.00
C1062  C     0.06588   0.54063   0.88882   0.00000  Uiso   1.00
C1063  C     0.21309   0.36844   0.75909   0.00000  Uiso   1.00
C1064  C     0.09426   0.62160   0.66598   0.00000  Uiso   1.00
C1065  C     0.13836   0.48898   0.95123   0.00000  Uiso   1.00
C1066  C     0.22896   0.55406   0.51376   0.00000  Uiso   1.00
C1067  C     0.08979   0.48242   0.97423   0.00000  Uiso   1.00
C1068  C     0.28866   0.35388   0.76607   0.00000  Uiso   1.00
C1069  C     0.04409   0.64603   0.73044   0.00000  Uiso   1.00
C1070  C     0.29019   0.64443   0.76644   0.00000  Uiso   1.00
Cu1071 Cu    0.04689   0.50001   0.75000   0.00000  Uiso   1.00
Cu1072 Cu    0.28645   0.49999   0.75000   0.00000  Uiso   1.00
H1073  H     0.24910   0.57549   0.52886   0.00000  Uiso   1.00
H1074  H     0.16651   0.45703   0.63847   0.00000  Uiso   1.00
H1075  H     0.16617   0.44951   0.58121   0.00000  Uiso   1.00
H1076  H     0.23034   0.42176   0.94381   0.00000  Uiso   1.00
H1077  H     0.28214   0.42143   0.89379   0.00000  Uiso   1.00
H1078  H     0.22545   0.39780   0.89306   0.00000  Uiso   1.00
H1079  H     0.27824   0.53780   0.58833   0.00000  Uiso   1.00
H1080  H     0.22798   0.50923   0.62183   0.00000  Uiso   1.00
H1081  H     0.25532   0.49197   0.56593   0.00000  Uiso   1.00
H1082  H     0.09928   0.55395   0.86583   0.00000  Uiso   1.00
H1083  H     0.06804   0.50658   0.88453   0.00000  Uiso   1.00
H1084  H     0.06466   0.47181   0.95593   0.00000  Uiso   1.00
H1085  H     0.06565   0.54951   0.92348   0.00000  Uiso   1.00
H1086  H     0.31630   0.57298   0.96198   0.00000  Uiso   1.00
H1087  H     0.33307   0.47169   0.52491   0.00000  Uiso   1.00
H1088  H     0.22929   0.37977   0.72433   0.00000  Uiso   1.00
H1089  H     0.17982   0.38666   0.77369   0.00000  Uiso   1.00
H1090  H     0.20143   0.33575   0.75864   0.00000  Uiso   1.00
H1091  H     0.06513   0.60183   0.65907   0.00000  Uiso   1.00
H1092  H     0.12951   0.60608   0.65130   0.00000  Uiso   1.00
H1093  H     0.09570   0.65195   0.64904   0.00000  Uiso   1.00
H1094  H     0.10663   0.45856   0.80461   0.00000  Uiso   1.00
H1095  H     0.16842   0.55535   0.57078   0.00000  Uiso   1.00
H1096  H     0.22659   0.54198   0.69592   0.00000  Uiso   1.00
H1097  H     0.14758   0.48518   0.91540   0.00000  Uiso   1.00
H1098  H     0.25708   0.62730   0.78145   0.00000  Uiso   1.00
H1099  H     0.07687   0.37233   0.71918   0.00000  Uiso   1.00
H1100  H     0.19355   0.45865   0.80474   0.00000  Uiso   1.00
H1101  H     0.13971   0.54178   0.69567   0.00000  Uiso   1.00
H1102  H     0.11272   0.43699   0.62717   0.00000  Uiso   1.00
N1103  N     0.11736   0.50001   0.74999   0.00000  Uiso   1.00
N1104  N     0.21597   0.49999   0.75001   0.00000  Uiso   1.00
O1105  O     0.03958   0.43989   0.75000   0.00000  Uiso   1.00
O1106  O     0.22527   0.46097   0.89202   0.00000  Uiso   1.00
O1107  O     0.29362   0.48020   0.61243   0.00000  Uiso   1.00
O1108  O     0.02513   0.55657   0.87736   0.00000  Uiso   1.00
O1109  O     0.24546   0.37399   0.78585   0.00000  Uiso   1.00
O1110  O     0.08787   0.62634   0.71240   0.00000  Uiso   1.00
O1111  O     0.29375   0.56011   0.75000   0.00000  Uiso   1.00
O1112  O     0.29372   0.43988   0.75001   0.00000  Uiso   1.00
O1113  O     0.03961   0.56012   0.75000   0.00000  Uiso   1.00
O1114  O     0.01852   0.50001   0.81492   0.00000  Uiso   1.00
O1115  O     0.31481   0.49999   0.68509   0.00000  Uiso   1.00
O1116  O     0.27267   0.50000   0.81492   0.00000  Uiso   1.00
O1117  O     0.06067   0.50000   0.68508   0.00000  Uiso   1.00
O1118  O     0.12757   0.49998   0.61417   0.00000  Uiso   1.00
C1119  C     0.66632   0.42070   0.75039   0.00000  Uiso   1.00
C1120  C     0.37651   0.35539   0.73237   0.00000  Uiso   1.00
C1121  C     0.33407   0.62382   0.74870   0.00000  Uiso   1.00
C1122  C     0.66587   0.37606   0.74999   0.00000  Uiso   1.00
C1123  C     0.51559   0.47707   0.78040   0.00000  Uiso   1.00
C1124  C     0.48436   0.52318   0.71983   0.00000  Uiso   1.00
C1125  C     0.46600   0.47703   0.78035   0.00000  Uiso   1.00
C1126  C     0.53394   0.52322   0.71989   0.00000  Uiso   1.00
C1127  C     0.63937   0.50144   0.83588   0.00000  Uiso   1.00
C1128  C     0.36080   0.49877   0.66373   0.00000  Uiso   1.00
C1129  C     0.62409   0.50953   0.88406   0.00000  Uiso   1.00
C1130  C     0.33369   0.57925   0.74945   0.00000  Uiso   1.00
C1131  C     0.37611   0.49606   0.61413   0.00000  Uiso   1.00
C1132  C     0.62981   0.55090   0.94734   0.00000  Uiso   1.00
C1133  C     0.35841   0.48180   0.54322   0.00000  Uiso   1.00
C1134  C     0.65018   0.53758   0.90342   0.00000  Uiso   1.00
C1135  C     0.34193   0.48761   0.58977   0.00000  Uiso   1.00
C1136  C     0.57898   0.49378   0.90913   0.00000  Uiso   1.00
C1137  C     0.42589   0.50080   0.59088   0.00000  Uiso   1.00
C1138  C     0.55531   0.51164   0.95092   0.00000  Uiso   1.00
C1139  C     0.44031   0.50254   0.54368   0.00000  Uiso   1.00
C1140  C     0.58274   0.53851   0.97093   0.00000  Uiso   1.00
C1141  C     0.51608   0.54170   0.53808   0.00000  Uiso   1.00
C1142  C     0.40713   0.48896   0.52029   0.00000  Uiso   1.00
C1143  C     0.50546   0.50401   0.97348   0.00000  Uiso   1.00
C1144  C     0.48774   0.51517   0.51920   0.00000  Uiso   1.00
C1145  C     0.47694   0.45898   0.61490   0.00000  Uiso   1.00
C1146  C     0.57521   0.42416   0.90661   0.00000  Uiso   1.00
C1147  C     0.59640   0.50609   0.59586   0.00000  Uiso   1.00
C1148  C     0.39921   0.54063   0.88882   0.00000  Uiso   1.00
C1149  C     0.54642   0.36844   0.75909   0.00000  Uiso   1.00
C1150  C     0.42759   0.62160   0.66598   0.00000  Uiso   1.00
C1151  C     0.47170   0.48898   0.95123   0.00000  Uiso   1.00
C1152  C     0.56230   0.55406   0.51376   0.00000  Uiso   1.00
C1153  C     0.42312   0.48242   0.97423   0.00000  Uiso   1.00
C1154  C     0.62199   0.35388   0.76607   0.00000  Uiso   1.00
C1155  C     0.37742   0.64603   0.73044   0.00000  Uiso   1.00
C1156  C     0.62353   0.64443   0.76644   0.00000  Uiso   1.00
Cu1157 Cu    0.38022   0.50001   0.75000   0.00000  Uiso   1.00
Cu1158 Cu    0.61978   0.49999   0.75000   0.00000  Uiso   1.00
H1159  H     0.58243   0.57549   0.52886   0.00000  Uiso   1.00
H1160  H     0.49985   0.45703   0.63847   0.00000  Uiso   1.00
H1161  H     0.49950   0.44951   0.58121   0.00000  Uiso   1.00
H1162  H     0.56368   0.42176   0.94381   0.00000  Uiso   1.00
H1163  H     0.61548   0.42143   0.89379   0.00000  Uiso   1.00
H1164  H     0.55878   0.39780   0.89306   0.00000  Uiso   1.00
H1165  H     0.61158   0.53780   0.58833   0.00000  Uiso   1.00
H1166  H     0.56131   0.50923   0.62183   0.00000  Uiso   1.00
H1167  H     0.58865   0.49197   0.56593   0.00000  Uiso   1.00
H1168  H     0.43261   0.55395   0.86583   0.00000  Uiso   1.00
H1169  H     0.40137   0.50658   0.88453   0.00000  Uiso   1.00
H1170  H     0.39799   0.47181   0.95593   0.00000  Uiso   1.00
H1171  H     0.39899   0.54951   0.92348   0.00000  Uiso   1.00
H1172  H     0.64964   0.57298   0.96198   0.00000  Uiso   1.00
H1173  H     0.66641   0.47169   0.52491   0.00000  Uiso   1.00
H1174  H     0.56262   0.37977   0.72433   0.00000  Uiso   1.00
H1175  H     0.51315   0.38666   0.77369   0.00000  Uiso   1.00
H1176  H     0.53476   0.33575   0.75864   0.00000  Uiso   1.00
H1177  H     0.39846   0.60183   0.65907   0.00000  Uiso   1.00
H1178  H     0.46285   0.60608   0.65130   0.00000  Uiso   1.00
H1179  H     0.42904   0.65195   0.64904   0.00000  Uiso   1.00
H1180  H     0.43996   0.45856   0.80461   0.00000  Uiso   1.00
H1181  H     0.50176   0.55535   0.57078   0.00000  Uiso   1.00
H1182  H     0.55992   0.54198   0.69592   0.00000  Uiso   1.00
H1183  H     0.48091   0.48518   0.91540   0.00000  Uiso   1.00
H1184  H     0.59042   0.62730   0.78145   0.00000  Uiso   1.00
H1185  H     0.41021   0.37233   0.71918   0.00000  Uiso   1.00
H1186  H     0.52688   0.45865   0.80474   0.00000  Uiso   1.00
H1187  H     0.47304   0.54178   0.69567   0.00000  Uiso   1.00
H1188  H     0.44606   0.43699   0.62717   0.00000  Uiso   1.00
N1189  N     0.45069   0.50001   0.74999   0.00000  Uiso   1.00
N1190  N     0.54931   0.49999   0.75001   0.00000  Uiso   1.00
O1191  O     0.37291   0.43989   0.75000   0.00000  Uiso   1.00
O1192  O     0.55860   0.46097   0.89202   0.00000  Uiso   1.00
O1193  O     0.62695   0.48020   0.61243   0.00000  Uiso   1.00
O1194  O     0.35847   0.55657   0.87736   0.00000  Uiso   1.00
O1195  O     0.57880   0.37399   0.78585   0.00000  Uiso   1.00
O1196  O     0.42120   0.62634   0.71240   0.00000  Uiso   1.00
O1197  O     0.62709   0.56011   0.75000   0.00000  Uiso   1.00
O1198  O     0.62706   0.43988   0.75001   0.00000  Uiso   1.00
O1199  O     0.37294   0.56012   0.75000   0.00000  Uiso   1.00
O1200  O     0.35186   0.50001   0.81492   0.00000  Uiso   1.00
O1201  O     0.64814   0.49999   0.68509   0.00000  Uiso   1.00
O1202  O     0.60600   0.50000   0.81492   0.00000  Uiso   1.00
O1203  O     0.39400   0.50000   0.68508   0.00000  Uiso   1.00
O1204  O     0.46090   0.49998   0.61417   0.00000  Uiso   1.00
C1205  C     0.99965   0.42070   0.75039   0.00000  Uiso   1.00
C1206  C     0.70984   0.35539   0.73237   0.00000  Uiso   1.00
C1207  C     0.66741   0.62382   0.74870   0.00000  Uiso   1.00
C1208  C     0.99920   0.37606   0.74999   0.00000  Uiso   1.00
C1209  C     0.84892   0.47707   0.78040   0.00000  Uiso   1.00
C1210  C     0.81769   0.52318   0.71983   0.00000  Uiso   1.00
C1211  C     0.79933   0.47703   0.78035   0.00000  Uiso   1.00
C1212  C     0.86727   0.52322   0.71989   0.00000  Uiso   1.00
C1213  C     0.97271   0.50144   0.83588   0.00000  Uiso   1.00
C1214  C     0.69414   0.49877   0.66373   0.00000  Uiso   1.00
C1215  C     0.95742   0.50953   0.88406   0.00000  Uiso   1.00
C1216  C     0.66702   0.57925   0.74945   0.00000  Uiso   1.00
C1217  C     0.70944   0.49606   0.61413   0.00000  Uiso   1.00
C1218  C     0.96314   0.55090   0.94734   0.00000  Uiso   1.00
C1219  C     0.69174   0.48180   0.54322   0.00000  Uiso   1.00
C1220  C     0.98352   0.53758   0.90342   0.00000  Uiso   1.00
C1221  C     0.67526   0.48761   0.58977   0.00000  Uiso   1.00
C1222  C     0.91231   0.49378   0.90913   0.00000  Uiso   1.00
C1223  C     0.75922   0.50080   0.59088   0.00000  Uiso   1.00
C1224  C     0.88864   0.51164   0.95092   0.00000  Uiso   1.00
C1225  C     0.77364   0.50254   0.54368   0.00000  Uiso   1.00
C1226  C     0.91607   0.53851   0.97093   0.00000  Uiso   1.00
C1227  C     0.84941   0.54170   0.53808   0.00000  Uiso   1.00
C1228  C     0.74046   0.48896   0.52029   0.00000  Uiso   1.00
C1229  C     0.83879   0.50401   0.97348   0.00000  Uiso   1.00
C1230  C     0.82107   0.51517   0.51920   0.00000  Uiso   1.00
C1231  C     0.81027   0.45898   0.61490   0.00000  Uiso   1.00
C1232  C     0.90854   0.42416   0.90661   0.00000  Uiso   1.00
C1233  C     0.92973   0.50609   0.59586   0.00000  Uiso   1.00
C1234  C     0.73255   0.54063   0.88882   0.00000  Uiso   1.00
C1235  C     0.87975   0.36844   0.75909   0.00000  Uiso   1.00
C1236  C     0.76093   0.62160   0.66598   0.00000  Uiso   1.00
C1237  C     0.80503   0.48898   0.95123   0.00000  Uiso   1.00
C1238  C     0.89563   0.55406   0.51376   0.00000  Uiso   1.00
C1239  C     0.75646   0.48242   0.97423   0.00000  Uiso   1.00
C1240  C     0.95532   0.35388   0.76607   0.00000  Uiso   1.00
C1241  C     0.71076   0.64603   0.73044   0.00000  Uiso   1.00
C1242  C     0.95686   0.64443   0.76644   0.00000  Uiso   1.00
Cu1243 Cu    0.71355   0.50001   0.75000   0.00000  Uiso   1.00
Cu1244 Cu    0.95311   0.49999   0.75000   0.00000  Uiso   1.00
H1245  H     0.91576   0.57549   0.52886   0.00000  Uiso   1.00
H1246  H     0.83318   0.45703   0.63847   0.00000  Uiso   1.00
H1247  H     0.83283   0.44951   0.58121   0.00000  Uiso   1.00
H1248  H     0.89701   0.42176   0.94381   0.00000  Uiso   1.00
H1249  H     0.94881   0.42143   0.89379   0.00000  Uiso   1.00
H1250  H     0.89211   0.39780   0.89306   0.00000  Uiso   1.00
H1251  H     0.94491   0.53780   0.58833   0.00000  Uiso   1.00
H1252  H     0.89464   0.50923   0.62183   0.00000  Uiso   1.00
H1253  H     0.92198   0.49197   0.56593   0.00000  Uiso   1.00
H1254  H     0.76595   0.55395   0.86583   0.00000  Uiso   1.00
H1255  H     0.73470   0.50658   0.88453   0.00000  Uiso   1.00
H1256  H     0.73133   0.47181   0.95593   0.00000  Uiso   1.00
H1257  H     0.73232   0.54951   0.92348   0.00000  Uiso   1.00
H1258  H     0.98297   0.57298   0.96198   0.00000  Uiso   1.00
H1259  H     0.99974   0.47169   0.52491   0.00000  Uiso   1.00
H1260  H     0.89596   0.37977   0.72433   0.00000  Uiso   1.00
H1261  H     0.84649   0.38666   0.77369   0.00000  Uiso   1.00
H1262  H     0.86809   0.33575   0.75864   0.00000  Uiso   1.00
H1263  H     0.73179   0.60183   0.65907   0.00000  Uiso   1.00
H1264  H     0.79618   0.60608   0.65130   0.00000  Uiso   1.00
H1265  H     0.76237   0.65195   0.64904   0.00000  Uiso   1.00
H1266  H     0.77330   0.45856   0.80461   0.00000  Uiso   1.00
H1267  H     0.83509   0.55535   0.57078   0.00000  Uiso   1.00
H1268  H     0.89325   0.54198   0.69592   0.00000  Uiso   1.00
H1269  H     0.81424   0.48518   0.91540   0.00000  Uiso   1.00
H1270  H     0.92375   0.62730   0.78145   0.00000  Uiso   1.00
H1271  H     0.74354   0.37233   0.71918   0.00000  Uiso   1.00
H1272  H     0.86021   0.45865   0.80474   0.00000  Uiso   1.00
H1273  H     0.80637   0.54178   0.69567   0.00000  Uiso   1.00
H1274  H     0.77939   0.43699   0.62717   0.00000  Uiso   1.00
N1275  N     0.78403   0.50001   0.74999   0.00000  Uiso   1.00
N1276  N     0.88264   0.49999   0.75001   0.00000  Uiso   1.00
O1277  O     0.70625   0.43989   0.75000   0.00000  Uiso   1.00
O1278  O     0.89193   0.46097   0.89202   0.00000  Uiso   1.00
O1279  O     0.96028   0.48020   0.61243   0.00000  Uiso   1.00
O1280  O     0.69180   0.55657   0.87736   0.00000  Uiso   1.00
O1281  O     0.91213   0.37399   0.78585   0.00000  Uiso   1.00
O1282  O     0.75453   0.62634   0.71240   0.00000  Uiso   1.00
O1283  O     0.96042   0.56011   0.75000   0.00000  Uiso   1.00
O1284  O     0.96039   0.43988   0.75001   0.00000  Uiso   1.00
O1285  O     0.70628   0.56012   0.75000   0.00000  Uiso   1.00
O1286  O     0.68519   0.50001   0.81492   0.00000  Uiso   1.00
O1287  O     0.98148   0.49999   0.68509   0.00000  Uiso   1.00
O1288  O     0.93933   0.50000   0.81492   0.00000  Uiso   1.00
O1289  O     0.72733   0.50000   0.68508   0.00000  Uiso   1.00
O1290  O     0.79424   0.49998   0.61417   0.00000  Uiso   1.00
C1291  C     0.33298   0.75404   0.75039   0.00000  Uiso   1.00
C1292  C     0.04317   0.68873   0.73237   0.00000  Uiso   1.00
C1293  C     0.00074   0.95715   0.74870   0.00000  Uiso   1.00
C1294  C     0.33253   0.70939   0.74999   0.00000  Uiso   1.00
C1295  C     0.18225   0.81040   0.78040   0.00000  Uiso   1.00
C1296  C     0.15103   0.85652   0.71983   0.00000  Uiso   1.00
C1297  C     0.13266   0.81037   0.78035   0.00000  Uiso   1.00
C1298  C     0.20061   0.85656   0.71989   0.00000  Uiso   1.00
C1299  C     0.30604   0.83477   0.83588   0.00000  Uiso   1.00
C1300  C     0.02747   0.83210   0.66373   0.00000  Uiso   1.00
C1301  C     0.29076   0.84287   0.88406   0.00000  Uiso   1.00
C1302  C     0.00035   0.91258   0.74945   0.00000  Uiso   1.00
C1303  C     0.04278   0.82939   0.61413   0.00000  Uiso   1.00
C1304  C     0.29647   0.88423   0.94734   0.00000  Uiso   1.00
C1305  C     0.02507   0.81513   0.54322   0.00000  Uiso   1.00
C1306  C     0.31685   0.87092   0.90342   0.00000  Uiso   1.00
C1307  C     0.00859   0.82094   0.58977   0.00000  Uiso   1.00
C1308  C     0.24564   0.82711   0.90913   0.00000  Uiso   1.00
C1309  C     0.09255   0.83413   0.59088   0.00000  Uiso   1.00
C1310  C     0.22197   0.84498   0.95092   0.00000  Uiso   1.00
C1311  C     0.10697   0.83588   0.54368   0.00000  Uiso   1.00
C1312  C     0.24941   0.87185   0.97093   0.00000  Uiso   1.00
C1313  C     0.18274   0.87503   0.53808   0.00000  Uiso   1.00
C1314  C     0.07380   0.82229   0.52029   0.00000  Uiso   1.00
C1315  C     0.17212   0.83734   0.97348   0.00000  Uiso   1.00
C1316  C     0.15440   0.84850   0.51920   0.00000  Uiso   1.00
C1317  C     0.14360   0.79231   0.61490   0.00000  Uiso   1.00
C1318  C     0.24188   0.75749   0.90661   0.00000  Uiso   1.00
C1319  C     0.26307   0.83942   0.59586   0.00000  Uiso   1.00
C1320  C     0.06588   0.87396   0.88882   0.00000  Uiso   1.00
C1321  C     0.21309   0.70177   0.75909   0.00000  Uiso   1.00
C1322  C     0.09426   0.95493   0.66598   0.00000  Uiso   1.00
C1323  C     0.13836   0.82231   0.95123   0.00000  Uiso   1.00
C1324  C     0.22896   0.88739   0.51376   0.00000  Uiso   1.00
C1325  C     0.08979   0.81575   0.97423   0.00000  Uiso   1.00
C1326  C     0.28866   0.68722   0.76607   0.00000  Uiso   1.00
C1327  C     0.04409   0.97936   0.73044   0.00000  Uiso   1.00
C1328  C     0.29019   0.97776   0.76644   0.00000  Uiso   1.00
Cu1329 Cu    0.04689   0.83334   0.75000   0.00000  Uiso   1.00
Cu1330 Cu    0.28645   0.83333   0.75000   0.00000  Uiso   1.00
H1331  H     0.24910   0.90882   0.52886   0.00000  Uiso   1.00
H1332  H     0.16651   0.79037   0.63847   0.00000  Uiso   1.00
H1333  H     0.16617   0.78284   0.58121   0.00000  Uiso   1.00
H1334  H     0.23034   0.75509   0.94381   0.00000  Uiso   1.00
H1335  H     0.28214   0.75477   0.89379   0.00000  Uiso   1.00
H1336  H     0.22545   0.73114   0.89306   0.00000  Uiso   1.00
H1337  H     0.27824   0.87114   0.58833   0.00000  Uiso   1.00
H1338  H     0.22798   0.84257   0.62183   0.00000  Uiso   1.00
H1339  H     0.25532   0.82530   0.56593   0.00000  Uiso   1.00
H1340  H     0.09928   0.88728   0.86583   0.00000  Uiso   1.00
H1341  H     0.06804   0.83991   0.88453   0.00000  Uiso   1.00
H1342  H     0.06466   0.80515   0.95593   0.00000  Uiso   1.00
H1343  H     0.06565   0.88284   0.92348   0.00000  Uiso   1.00
H1344  H     0.31630   0.90631   0.96198   0.00000  Uiso   1.00
H1345  H     0.33307   0.80503   0.52491   0.00000  Uiso   1.00
H1346  H     0.22929   0.71310   0.72433   0.00000  Uiso   1.00
H1347  H     0.17982   0.71999   0.77369   0.00000  Uiso   1.00
H1348  H     0.20143   0.66908   0.75864   0.00000  Uiso   1.00
H1349  H     0.06513   0.93516   0.65907   0.00000  Uiso   1.00
H1350  H     0.12951   0.93941   0.65130   0.00000  Uiso   1.00
H1351  H     0.09570   0.98528   0.64904   0.00000  Uiso   1.00
H1352  H     0.10663   0.79190   0.80461   0.00000  Uiso   1.00
H1353  H     0.16842   0.88868   0.57078   0.00000  Uiso   1.00
H1354  H     0.22659   0.87531   0.69592   0.00000  Uiso   1.00
H1355  H     0.14758   0.81852   0.91540   0.00000  Uiso   1.00
H1356  H     0.25708   0.96064   0.78145   0.00000  Uiso   1.00
H1357  H     0.07687   0.70566   0.71918   0.00000  Uiso   1.00
H1358  H     0.19355   0.79198   0.80474   0.00000  Uiso   1.00
H1359  H     0.13971   0.87511   0.69567   0.00000  Uiso   1.00
H1360  H     0.11272   0.77032   0.62717   0.00000  Uiso   1.00
N1361  N     0.11736   0.83334   0.74999   0.00000  Uiso   1.00
N1362  N     0.21597   0.83332   0.75001   0.00000  Uiso   1.00
O1363  O     0.03958   0.77322   0.75000   0.00000  Uiso   1.00
O1364  O     0.22527   0.79430   0.89202   0.00000  Uiso   1.00
O1365  O     0.29362   0.81353   0.61243   0.00000  Uiso   1.00
O1366  O     0.02513   0.88991   0.87736   0.00000  Uiso   1.00
O1367  O     0.24546   0.70732   0.78585   0.00000  Uiso   1.00
O1368  O     0.08787   0.95967   0.71240   0.00000  Uiso   1.00
O1369  O     0.29375   0.89345   0.75000   0.00000  Uiso   1.00
O1370  O     0.29372   0.77321   0.75001   0.00000  Uiso   1.00
O1371  O     0.03961   0.89346   0.75000   0.00000  Uiso   1.00
O1372  O     0.01852   0.83334   0.81492   0.00000  Uiso   1.00
O1373  O     0.31481   0.83332   0.68509   0.00000  Uiso   1.00
O1374  O     0.27267   0.83333   0.81492   0.00000  Uiso   1.00
O1375  O     0.06067   0.83333   0.68508   0.00000  Uiso   1.00
O1376  O     0.12757   0.83332   0.61417   0.00000  Uiso   1.00
C1377  C     0.66632   0.75404   0.75039   0.00000  Uiso   1.00
C1378  C     0.37651   0.68873   0.73237   0.00000  Uiso   1.00
C1379  C     0.33407   0.95715   0.74870   0.00000  Uiso   1.00
C1380  C     0.66587   0.70939   0.74999   0.00000  Uiso   1.00
C1381  C     0.51559   0.81040   0.78040   0.00000  Uiso   1.00
C1382  C     0.48436   0.85652   0.71983   0.00000  Uiso   1.00
C1383  C     0.46600   0.81037   0.78035   0.00000  Uiso   1.00
C1384  C     0.53394   0.85656   0.71989   0.00000  Uiso   1.00
C1385  C     0.63937   0.83477   0.83588   0.00000  Uiso   1.00
C1386  C     0.36080   0.83210   0.66373   0.00000  Uiso   1.00
C1387  C     0.62409   0.84287   0.88406   0.00000  Uiso   1.00
C1388  C     0.33369   0.91258   0.74945   0.00000  Uiso   1.00
C1389  C     0.37611   0.82939   0.61413   0.00000  Uiso   1.00
C1390  C     0.62981   0.88423   0.94734   0.00000  Uiso   1.00
C1391  C     0.35841   0.81513   0.54322   0.00000  Uiso   1.00
C1392  C     0.65018   0.87092   0.90342   0.00000  Uiso   1.00
C1393  C     0.34193   0.82094   0.58977   0.00000  Uiso   1.00
C1394  C     0.57898   0.82711   0.90913   0.00000  Uiso   1.00
C1395  C     0.42589   0.83413   0.59088   0.00000  Uiso   1.00
C1396  C     0.55531   0.84498   0.95092   0.00000  Uiso   1.00
C1397  C     0.44031   0.83588   0.54368   0.00000  Uiso   1.00
C1398  C     0.58274   0.87185   0.97093   0.00000  Uiso   1.00
C1399  C     0.51608   0.87503   0.53808   0.00000  Uiso   1.00
C1400  C     0.40713   0.82229   0.52029   0.00000  Uiso   1.00
C1401  C     0.50546   0.83734   0.97348   0.00000  Uiso   1.00
C1402  C     0.48774   0.84850   0.51920   0.00000  Uiso   1.00
C1403  C     0.47694   0.79231   0.61490   0.00000  Uiso   1.00
C1404  C     0.57521   0.75749   0.90661   0.00000  Uiso   1.00
C1405  C     0.59640   0.83942   0.59586   0.00000  Uiso   1.00
C1406  C     0.39921   0.87396   0.88882   0.00000  Uiso   1.00
C1407  C     0.54642   0.70177   0.75909   0.00000  Uiso   1.00
C1408  C     0.42759   0.95493   0.66598   0.00000  Uiso   1.00
C1409  C     0.47170   0.82231   0.95123   0.00000  Uiso   1.00
C1410  C     0.56230   0.88739   0.51376   0.00000  Uiso   1.00
C1411  C     0.42312   0.81575   0.97423   0.00000  Uiso   1.00
C1412  C     0.62199   0.68722   0.76607   0.00000  Uiso   1.00
C1413  C     0.37742   0.97936   0.73044   0.00000  Uiso   1.00
C1414  C     0.62353   0.97776   0.76644   0.00000  Uiso   1.00
Cu1415 Cu    0.38022   0.83334   0.75000   0.00000  Uiso   1.00
Cu1416 Cu    0.61978   0.83333   0.75000   0.00000  Uiso   1.00
H1417  H     0.58243   0.90882   0.52886   0.00000  Uiso   1.00
H1418  H     0.49985   0.79037   0.63847   0.00000  Uiso   1.00
H1419  H     0.49950   0.78284   0.58121   0.00000  Uiso   1.00
H1420  H     0.56368   0.75509   0.94381   0.00000  Uiso   1.00
H1421  H     0.61548   0.75477   0.89379   0.00000  Uiso   1.00
H1422  H     0.55878   0.73114   0.89306   0.00000  Uiso   1.00
H1423  H     0.61158   0.87114   0.58833   0.00000  Uiso   1.00
H1424  H     0.56131   0.84257   0.62183   0.00000  Uiso   1.00
H1425  H     0.58865   0.82530   0.56593   0.00000  Uiso   1.00
H1426  H     0.43261   0.88728   0.86583   0.00000  Uiso   1.00
H1427  H     0.40137   0.83991   0.88453   0.00000  Uiso   1.00
H1428  H     0.39799   0.80515   0.95593   0.00000  Uiso   1.00
H1429  H     0.39899   0.88284   0.92348   0.00000  Uiso   1.00
H1430  H     0.64964   0.90631   0.96198   0.00000  Uiso   1.00
H1431  H     0.66641   0.80503   0.52491   0.00000  Uiso   1.00
H1432  H     0.56262   0.71310   0.72433   0.00000  Uiso   1.00
H1433  H     0.51315   0.71999   0.77369   0.00000  Uiso   1.00
H1434  H     0.53476   0.66908   0.75864   0.00000  Uiso   1.00
H1435  H     0.39846   0.93516   0.65907   0.00000  Uiso   1.00
H1436  H     0.46285   0.93941   0.65130   0.00000  Uiso   1.00
H1437  H     0.42904   0.98528   0.64904   0.00000  Uiso   1.00
H1438  H     0.43996   0.79190   0.80461   0.00000  Uiso   1.00
H1439  H     0.50176   0.88868   0.57078   0.00000  Uiso   1.00
H1440  H     0.55992   0.87531   0.69592   0.00000  Uiso   1.00
H1441  H     0.48091   0.81852   0.91540   0.00000  Uiso   1.00
H1442  H     0.59042   0.96064   0.78145   0.00000  Uiso   1.00
H1443  H     0.41021   0.70566   0.71918   0.00000  Uiso   1.00
H1444  H     0.52688   0.79198   0.80474   0.00000  Uiso   1.00
H1445  H     0.47304   0.87511   0.69567   0.00000  Uiso   1.00
H1446  H     0.44606   0.77032   0.62717   0.00000  Uiso   1.00
N1447  N     0.45069   0.83334   0.74999   0.00000  Uiso   1.00
N1448  N     0.54931   0.83332   0.75001   0.00000  Uiso   1.00
O1449  O     0.37291   0.77322   0.75000   0.00000  Uiso   1.00
O1450  O     0.55860   0.79430   0.89202   0.00000  Uiso   1.00
O1451  O     0.62695   0.81353   0.61243   0.00000  Uiso   1.00
O1452  O     0.35847   0.88991   0.87736   0.00000  Uiso   1.00
O1453  O     0.57880   0.70732   0.78585   0.00000  Uiso   1.00
O1454  O     0.42120   0.95967   0.71240   0.00000  Uiso   1.00
O1455  O     0.62709   0.89345   0.75000   0.00000  Uiso   1.00
O1456  O     0.62706   0.77321   0.75001   0.00000  Uiso   1.00
O1457  O     0.37294   0.89346   0.75000   0.00000  Uiso   1.00
O1458  O     0.35186   0.83334   0.81492   0.00000  Uiso   1.00
O1459  O     0.64814   0.83332   0.68509   0.00000  Uiso   1.00
O1460  O     0.60600   0.83333   0.81492   0.00000  Uiso   1.00
O1461  O     0.39400   0.83333   0.68508   0.00000  Uiso   1.00
O1462  O     0.46090   0.83332   0.61417   0.00000  Uiso   1.00
C1463  C     0.99965   0.75404   0.75039   0.00000  Uiso   1.00
C1464  C     0.70984   0.68873   0.73237   0.00000  Uiso   1.00
C1465  C     0.66741   0.95715   0.74870   0.00000  Uiso   1.00
C1466  C     0.99920   0.70939   0.74999   0.00000  Uiso   1.00
C1467  C     0.84892   0.81040   0.78040   0.00000  Uiso   1.00
C1468  C     0.81769   0.85652   0.71983   0.00000  Uiso   1.00
C1469  C     0.79933   0.81037   0.78035   0.00000  Uiso   1.00
C1470  C     0.86727   0.85656   0.71989   0.00000  Uiso   1.00
C1471  C     0.97271   0.83477   0.83588   0.00000  Uiso   1.00
C1472  C     0.69414   0.83210   0.66373   0.00000  Uiso   1.00
C1473  C     0.95742   0.84287   0.88406   0.00000  Uiso   1.00
C1474  C     0.66702   0.91258   0.74945   0.00000  Uiso   1.00
C1475  C     0.70944   0.82939   0.61413   0.00000  Uiso   1.00
C1476  C     0.96314   0.88423   0.94734   0.00000  Uiso   1.00
C1477  C     0.69174   0.81513   0.54322   0.00000  Uiso   1.00
C1478  C     0.98352   0.87092   0.90342   0.00000  Uiso   1.00
C1479  C     0.67526   0.82094   0.58977   0.00000  Uiso   1.00
C1480  C     0.91231   0.82711   0.90913   0.00000  Uiso   1.00
C1481  C     0.75922   0.83413   0.59088   0.00000  Uiso   1.00
C1482  C     0.88864   0.84498   0.95092   0.00000  Uiso   1.00
C1483  C     0.77364   0.83588   0.54368   0.00000  Uiso   1.00
C1484  C     0.91607   0.87185   0.97093   0.00000  Uiso   1.00
C1485  C     0.84941   0.87503   0.53808   0.00000  Uiso   1.00
C1486  C     0.74046   0.82229   0.52029   0.00000  Uiso   1.00
C1487  C     0.83879   0.83734   0.97348   0.00000  Uiso   1.00
C1488  C     0.82107   0.84850   0.51920   0.00000  Uiso   1.00
C1489  C     0.81027   0.79231   0.61490   0.00000  Uiso   1.00
C1490  C     0.90854   0.75749   0.90661   0.00000  Uiso   1.00
C1491  C     0.92973   0.83942   0.59586   0.00000  Uiso   1.00
C1492  C     0.73255   0.87396   0.88882   0.00000  Uiso   1.00
C1493  C     0.87975   0.70177   0.75909   0.00000  Uiso   1.00
C1494  C     0.76093   0.95493   0.66598   0.00000  Uiso   1.00
C1495  C     0.80503   0.82231   0.95123   0.00000  Uiso   1.00
C1496  C     0.89563   0.88739   0.51376   0.00000  Uiso   1.00
C1497  C     0.75646   0.81575   0.97423   0.00000  Uiso   1.00
C1498  C     0.95532   0.68722   0.76607   0.00000  Uiso   1.00
C1499  C     0.71076   0.97936   0.73044   0.00000  Uiso   1.00
C1500  C     0.95686   0.97776   0.76644   0.00000  Uiso   1.00
Cu1501 Cu    0.71355   0.83334   0.75000   0.00000  Uiso   1.00
Cu1502 Cu    0.95311   0.83333   0.75000   0.00000  Uiso   1.00
H1503  H     0.91576   0.90882   0.52886   0.00000  Uiso   1.00
H1504  H     0.83318   0.79037   0.63847   0.00000  Uiso   1.00
H1505  H     0.83283   0.78284   0.58121   0.00000  Uiso   1.00
H1506  H     0.89701   0.75509   0.94381   0.00000  Uiso   1.00
H1507  H     0.94881   0.75477   0.89379   0.00000  Uiso   1.00
H1508  H     0.89211   0.73114   0.89306   0.00000  Uiso   1.00
H1509  H     0.94491   0.87114   0.58833   0.00000  Uiso   1.00
H1510  H     0.89464   0.84257   0.62183   0.00000  Uiso   1.00
H1511  H     0.92198   0.82530   0.56593   0.00000  Uiso   1.00
H1512  H     0.76595   0.88728   0.86583   0.00000  Uiso   1.00
H1513  H     0.73470   0.83991   0.88453   0.00000  Uiso   1.00
H1514  H     0.73133   0.80515   0.95593   0.00000  Uiso   1.00
H1515  H     0.73232   0.88284   0.92348   0.00000  Uiso   1.00
H1516  H     0.98297   0.90631   0.96198   0.00000  Uiso   1.00
H1517  H     0.99974   0.80503   0.52491   0.00000  Uiso   1.00
H1518  H     0.89596   0.71310   0.72433   0.00000  Uiso   1.00
H1519  H     0.84649   0.71999   0.77369   0.00000  Uiso   1.00
H1520  H     0.86809   0.66908   0.75864   0.00000  Uiso   1.00
H1521  H     0.73179   0.93516   0.65907   0.00000  Uiso   1.00
H1522  H     0.79618   0.93941   0.65130   0.00000  Uiso   1.00
H1523  H     0.76237   0.98528   0.64904   0.00000  Uiso   1.00
H1524  H     0.77330   0.79190   0.80461   0.00000  Uiso   1.00
H1525  H     0.83509   0.88868   0.57078   0.00000  Uiso   1.00
H1526  H     0.89325   0.87531   0.69592   0.00000  Uiso   1.00
H1527  H     0.81424   0.81852   0.91540   0.00000  Uiso   1.00
H1528  H     0.92375   0.96064   0.78145   0.00000  Uiso   1.00
H1529  H     0.74354   0.70566   0.71918   0.00000  Uiso   1.00
H1530  H     0.86021   0.79198   0.80474   0.00000  Uiso   1.00
H1531  H     0.80637   0.87511   0.69567   0.00000  Uiso   1.00
H1532  H     0.77939   0.77032   0.62717   0.00000  Uiso   1.00
N1533  N     0.78403   0.83334   0.74999   0.00000  Uiso   1.00
N1534  N     0.88264   0.83332   0.75001   0.00000  Uiso   1.00
O1535  O     0.70625   0.77322   0.75000   0.00000  Uiso   1.00
O1536  O     0.89193   0.79430   0.89202   0.00000  Uiso   1.00
O1537  O     0.96028   0.81353   0.61243   0.00000  Uiso   1.00
O1538  O     0.69180   0.88991   0.87736   0.00000  Uiso   1.00
O1539  O     0.91213   0.70732   0.78585   0.00000  Uiso   1.00
O1540  O     0.75453   0.95967   0.71240   0.00000  Uiso   1.00
O1541  O     0.96042   0.89345   0.75000   0.00000  Uiso   1.00
O1542  O     0.96039   0.77321   0.75001   0.00000  Uiso   1.00
O1543  O     0.70628   0.89346   0.75000   0.00000  Uiso   1.00
O1544  O     0.68519   0.83334   0.81492   0.00000  Uiso   1.00
O1545  O     0.98148   0.83332   0.68509   0.00000  Uiso   1.00
O1546  O     0.93933   0.83333   0.81492   0.00000  Uiso   1.00
O1547  O     0.72733   0.83333   0.68508   0.00000  Uiso   1.00
O1548  O     0.79424   0.83332   0.61417   0.00000  Uiso   1.00
loop_
_geom_bond_atom_site_label_1
_geom_bond_atom_site_label_2
_geom_bond_distance
_geom_bond_site_symmetry_2
_ccdc_geom_bond_type
C1     C4      1.450   .     S
C1     O80     1.289   .     A
C1     O159    1.293   .     S
C2     H67     1.084   .     S
C2     C176    1.400   1_455 S
C2     C553    1.388   1_545 S
C3     C12     1.448   .     S
C3     C37     1.407   .     A
C3     C210    1.398   1_455 S
C4     C36     1.409   .     A
C4     C88     1.400   .     S
C5     N72     1.367   .     A
C5     H68     1.082   .     S
C5     C7      1.416   .     A
C6     H69     1.081   .     S
C6     N71     1.367   .     A
C6     C8      1.416   .     A
C7     N71     1.367   .     A
C7     H62     1.082   .     S
C8     N72     1.366   .     A
C8     H64     1.082   .     S
C9     C11     1.463   .     S
C9     O84     1.293   .     A
C9     O168    1.294   .     S
C10    O85     1.297   .     A
C10    C13     1.484   .     S
C10    O255    1.301   1_455 S
C11    C18     1.405   .     A
C11    C16     1.407   .     A
C12    O81     1.289   .     A
C12    O251    1.291   1_455 S
C13    C19     1.415   .     A
C13    C17     1.414   .     A
C14    H54     1.084   .     S
C14    C16     1.397   .     A
C14    C22     1.401   .     A
C15    C24     1.397   .     A
C15    C17     1.405   .     A
C15    H227    1.084   1_455 S
C16    O162    1.384   .     S
C17    O247    1.387   1_455 S
C18    O74     1.384   .     S
C18    C20     1.414   .     A
C19    O86     1.385   .     S
C19    C21     1.411   .     A
C20    C25     1.425   .     A
C20    C22     1.419   .     A
C21    C26     1.418   .     A
C21    C24     1.410   .     A
C22    C808    1.393   .     S
C23    C26     1.410   .     A
C23    H63     1.081   .     S
C23    C34     1.387   .     A
C24    C809    1.393   1_554 S
C25    C33     1.414   .     A
C25    C800    1.418   .     S
C26    C799    1.418   1_554 S
C27    H42     1.109   .     S
C27    O86     1.413   .     S
C27    H70     1.115   .     S
C27    H43     1.112   .     S
C28    O74     1.409   .     S
C28    H46     1.109   .     S
C28    H45     1.113   .     S
C28    H44     1.114   .     S
C29    H49     1.110   .     S
C29    H47     1.115   .     S
C29    H48     1.107   .     S
C29    O75     1.410   .     S
C30    H51     1.113   .     S
C30    H50     1.109   .     S
C30    H53     1.112   .     S
C30    O76     1.408   .     S
C31    H58     1.112   .     S
C31    H56     1.114   .     S
C31    O77     1.412   .     S
C31    H57     1.109   .     S
C32    H61     1.113   .     S
C32    O78     1.410   .     S
C32    H60     1.109   .     S
C32    H59     1.114   .     S
C33    H65     1.078   .     S
C33    C35     1.391   .     A
C34    H41     1.084   .     S
C34    C796    1.393   1_554 S
C35    H52     1.084   .     S
C35    C798    1.393   .     S
C36    O77     1.386   .     S
C36    C554    1.391   1_545 S
C37    O78     1.383   .     S
C37    C260    1.388   .     S
C38    H66     1.084   .     S
C38    C89     1.398   .     S
C38    C294    1.391   .     S
Cu39   O81     1.965   .     S
Cu39   O85     1.945   .     S
Cu39   N71     2.012   .     S
Cu39   O82     1.956   .     S
Cu39   O73     1.962   .     S
Cu39   Cu212   2.678   1_455 S
Cu40   O84     1.945   .     S
Cu40   O80     1.965   .     S
Cu40   O83     1.956   .     S
Cu40   O79     1.962   .     S
Cu40   N72     2.012   .     S
Cu40   Cu125   2.678   .     S
H55    C101    1.084   .     S
O73    C173    1.293   1_455 S
O75    C103    1.387   .     S
O76    C188    1.384   1_455 S
O79    C98     1.291   .     S
O82    C181    1.294   1_455 S
O83    C96     1.301   .     S
C87    C90     1.450   .     S
C87    O166    1.289   .     A
C87    O245    1.293   .     S
C88    H153    1.084   .     S
C88    C639    1.388   1_545 S
C89    C98     1.448   .     S
C89    C123    1.407   .     A
C90    C122    1.409   .     A
C90    C174    1.400   .     S
C91    N158    1.367   .     A
C91    H154    1.082   .     S
C91    C93     1.416   .     A
C92    H155    1.081   .     S
C92    N157    1.367   .     A
C92    C94     1.416   .     A
C93    N157    1.367   .     A
C93    H148    1.082   .     S
C94    N158    1.366   .     A
C94    H150    1.082   .     S
C95    C97     1.463   .     S
C95    O170    1.293   .     A
C95    O254    1.294   .     S
C96    O171    1.297   .     A
C96    C99     1.484   .     S
C97    C104    1.405   .     A
C97    C102    1.407   .     A
C98    O167    1.289   .     A
C99    C105    1.415   .     A
C99    C103    1.414   .     A
C100   H140    1.084   .     S
C100   C102    1.397   .     A
C100   C108    1.401   .     A
C101   C110    1.397   .     A
C101   C103    1.405   .     A
C102   O248    1.384   .     S
C104   O160    1.384   .     S
C104   C106    1.414   .     A
C105   O172    1.385   .     S
C105   C107    1.411   .     A
C106   C111    1.425   .     A
C106   C108    1.419   .     A
C107   C112    1.418   .     A
C107   C110    1.410   .     A
C108   C894    1.393   .     S
C109   C112    1.410   .     A
C109   H149    1.081   .     S
C109   C120    1.387   .     A
C110   C895    1.393   1_554 S
C111   C119    1.414   .     A
C111   C886    1.418   .     S
C112   C885    1.418   1_554 S
C113   H128    1.109   .     S
C113   O172    1.413   .     S
C113   H156    1.115   .     S
C113   H129    1.112   .     S
C114   O160    1.409   .     S
C114   H132    1.109   .     S
C114   H131    1.113   .     S
C114   H130    1.114   .     S
C115   H135    1.110   .     S
C115   H133    1.115   .     S
C115   H134    1.107   .     S
C115   O161    1.410   .     S
C116   H137    1.113   .     S
C116   H136    1.109   .     S
C116   H139    1.112   .     S
C116   O162    1.408   .     S
C117   H144    1.112   .     S
C117   H142    1.114   .     S
C117   O163    1.412   .     S
C117   H143    1.109   .     S
C118   H147    1.113   .     S
C118   O164    1.410   .     S
C118   H146    1.109   .     S
C118   H145    1.114   .     S
C119   H151    1.078   .     S
C119   C121    1.391   .     A
C120   H127    1.084   .     S
C120   C882    1.393   1_554 S
C121   H138    1.084   .     S
C121   C884    1.393   .     S
C122   O163    1.386   .     S
C122   C640    1.391   1_545 S
C123   O164    1.383   .     S
C123   C346    1.388   .     S
C124   H152    1.084   .     S
C124   C175    1.398   .     S
C124   C380    1.391   .     S
Cu125  O167    1.965   .     S
Cu125  O171    1.945   .     S
Cu125  N157    2.012   .     S
Cu125  O168    1.956   .     S
Cu125  O159    1.962   .     S
Cu126  O170    1.945   .     S
Cu126  O166    1.965   .     S
Cu126  O169    1.956   .     S
Cu126  O165    1.962   .     S
Cu126  N158    2.012   .     S
Cu126  Cu211   2.678   .     S
H141   C187    1.084   .     S
O161   C189    1.387   .     S
O165   C184    1.291   .     S
O169   C182    1.301   .     S
C173   C176    1.450   .     S
C173   O252    1.289   .     A
C173   O73     1.293   1_655 S
C174   H239    1.084   .     S
C174   C725    1.388   1_545 S
C175   C184    1.448   .     S
C175   C209    1.407   .     A
C176   C208    1.409   .     A
C176   C2      1.400   1_655 S
C177   N244    1.367   .     A
C177   H240    1.082   .     S
C177   C179    1.416   .     A
C178   H241    1.081   .     S
C178   N243    1.367   .     A
C178   C180    1.416   .     A
C179   N243    1.367   .     A
C179   H234    1.082   .     S
C180   N244    1.366   .     A
C180   H236    1.082   .     S
C181   C183    1.463   .     S
C181   O256    1.293   .     A
C181   O82     1.294   1_655 S
C182   O257    1.297   .     A
C182   C185    1.484   .     S
C183   C190    1.405   .     A
C183   C188    1.407   .     A
C184   O253    1.289   .     A
C185   C191    1.415   .     A
C185   C189    1.414   .     A
C186   H226    1.084   .     S
C186   C188    1.397   .     A
C186   C194    1.401   .     A
C187   C196    1.397   .     A
C187   C189    1.405   .     A
C188   O76     1.384   1_655 S
C190   O246    1.384   .     S
C190   C192    1.414   .     A
C191   O258    1.385   .     S
C191   C193    1.411   .     A
C192   C197    1.425   .     A
C192   C194    1.419   .     A
C193   C198    1.418   .     A
C193   C196    1.410   .     A
C194   C980    1.393   .     S
C195   C198    1.410   .     A
C195   H235    1.081   .     S
C195   C206    1.387   .     A
C196   C981    1.393   1_554 S
C197   C205    1.414   .     A
C197   C972    1.418   .     S
C198   C971    1.418   1_554 S
C199   H214    1.109   .     S
C199   O258    1.413   .     S
C199   H242    1.115   .     S
C199   H215    1.112   .     S
C200   O246    1.409   .     S
C200   H218    1.109   .     S
C200   H217    1.113   .     S
C200   H216    1.114   .     S
C201   H221    1.110   .     S
C201   H219    1.115   .     S
C201   H220    1.107   .     S
C201   O247    1.410   .     S
C202   H223    1.113   .     S
C202   H222    1.109   .     S
C202   H225    1.112   .     S
C202   O248    1.408   .     S
C203   H230    1.112   .     S
C203   H228    1.114   .     S
C203   O249    1.412   .     S
C203   H229    1.109   .     S
C204   H233    1.113   .     S
C204   O250    1.410   .     S
C204   H232    1.109   .     S
C204   H231    1.114   .     S
C205   H237    1.078   .     S
C205   C207    1.391   .     A
C206   H213    1.084   .     S
C206   C968    1.393   1_554 S
C207   H224    1.084   .     S
C207   C970    1.393   .     S
C208   O249    1.386   .     S
C208   C726    1.391   1_545 S
C209   O250    1.383   .     S
C209   C432    1.388   .     S
C210   H238    1.084   .     S
C210   C3      1.398   1_655 S
C210   C466    1.391   .     S
Cu211  O253    1.965   .     S
Cu211  O257    1.945   .     S
Cu211  N243    2.012   .     S
Cu211  O254    1.956   .     S
Cu211  O245    1.962   .     S
Cu212  O256    1.945   .     S
Cu212  O252    1.965   .     S
Cu212  O255    1.956   .     S
Cu212  O251    1.962   .     S
Cu212  N244    2.012   .     S
Cu212  Cu39    2.678   1_655 S
H227   C15     1.084   1_655 S
O247   C17     1.387   1_655 S
O251   C12     1.291   1_655 S
O255   C10     1.301   1_655 S
C259   C262    1.450   .     S
C259   O338    1.289   .     A
C259   O417    1.293   .     S
C260   H325    1.084   .     S
C260   C434    1.400   1_455 S
C261   C270    1.448   .     S
C261   C295    1.407   .     A
C261   C468    1.398   1_455 S
C262   C294    1.409   .     A
C262   C346    1.400   .     S
C263   N330    1.367   .     A
C263   H326    1.082   .     S
C263   C265    1.416   .     A
C264   H327    1.081   .     S
C264   N329    1.367   .     A
C264   C266    1.416   .     A
C265   N329    1.367   .     A
C265   H320    1.082   .     S
C266   N330    1.366   .     A
C266   H322    1.082   .     S
C267   C269    1.463   .     S
C267   O342    1.293   .     A
C267   O426    1.294   .     S
C268   O343    1.297   .     A
C268   C271    1.484   .     S
C268   O513    1.301   1_455 S
C269   C276    1.405   .     A
C269   C274    1.407   .     A
C270   O339    1.289   .     A
C270   O509    1.291   1_455 S
C271   C277    1.415   .     A
C271   C275    1.414   .     A
C272   H312    1.084   .     S
C272   C274    1.397   .     A
C272   C280    1.401   .     A
C273   C282    1.397   .     A
C273   C275    1.405   .     A
C273   H485    1.084   1_455 S
C274   O420    1.384   .     S
C275   O505    1.387   1_455 S
C276   O332    1.384   .     S
C276   C278    1.414   .     A
C277   O344    1.385   .     S
C277   C279    1.411   .     A
C278   C283    1.425   .     A
C278   C280    1.419   .     A
C279   C284    1.418   .     A
C279   C282    1.410   .     A
C280   C1066   1.393   .     S
C281   C284    1.410   .     A
C281   H321    1.081   .     S
C281   C292    1.387   .     A
C282   C1067   1.393   1_554 S
C283   C291    1.414   .     A
C283   C1058   1.418   .     S
C284   C1057   1.418   1_554 S
C285   H300    1.109   .     S
C285   O344    1.413   .     S
C285   H328    1.115   .     S
C285   H301    1.112   .     S
C286   O332    1.409   .     S
C286   H304    1.109   .     S
C286   H303    1.113   .     S
C286   H302    1.114   .     S
C287   H307    1.110   .     S
C287   H305    1.115   .     S
C287   H306    1.107   .     S
C287   O333    1.410   .     S
C288   H309    1.113   .     S
C288   H308    1.109   .     S
C288   H311    1.112   .     S
C288   O334    1.408   .     S
C289   H316    1.112   .     S
C289   H314    1.114   .     S
C289   O335    1.412   .     S
C289   H315    1.109   .     S
C290   H319    1.113   .     S
C290   O336    1.410   .     S
C290   H318    1.109   .     S
C290   H317    1.114   .     S
C291   H323    1.078   .     S
C291   C293    1.391   .     A
C292   H299    1.084   .     S
C292   C1054   1.393   1_554 S
C293   H310    1.084   .     S
C293   C1056   1.393   .     S
C294   O335    1.386   .     S
C295   O336    1.383   .     S
C295   C518    1.388   .     S
C296   H324    1.084   .     S
C296   C347    1.398   .     S
C296   C552    1.391   .     S
Cu297  O339    1.965   .     S
Cu297  O343    1.945   .     S
Cu297  N329    2.012   .     S
Cu297  O340    1.956   .     S
Cu297  O331    1.962   .     S
Cu297  Cu470   2.678   1_455 S
Cu298  O342    1.945   .     S
Cu298  O338    1.965   .     S
Cu298  O341    1.956   .     S
Cu298  O337    1.962   .     S
Cu298  N330    2.012   .     S
Cu298  Cu383   2.678   .     S
H313   C359    1.084   .     S
O331   C431    1.293   1_455 S
O333   C361    1.387   .     S
O334   C446    1.384   1_455 S
O337   C356    1.291   .     S
O340   C439    1.294   1_455 S
O341   C354    1.301   .     S
C345   C348    1.450   .     S
C345   O424    1.289   .     A
C345   O503    1.293   .     S
C346   H411    1.084   .     S
C347   C356    1.448   .     S
C347   C381    1.407   .     A
C348   C380    1.409   .     A
C348   C432    1.400   .     S
C349   N416    1.367   .     A
C349   H412    1.082   .     S
C349   C351    1.416   .     A
C350   H413    1.081   .     S
C350   N415    1.367   .     A
C350   C352    1.416   .     A
C351   N415    1.367   .     A
C351   H406    1.082   .     S
C352   N416    1.366   .     A
C352   H408    1.082   .     S
C353   C355    1.463   .     S
C353   O428    1.293   .     A
C353   O512    1.294   .     S
C354   O429    1.297   .     A
C354   C357    1.484   .     S
C355   C362    1.405   .     A
C355   C360    1.407   .     A
C356   O425    1.289   .     A
C357   C363    1.415   .     A
C357   C361    1.414   .     A
C358   H398    1.084   .     S
C358   C360    1.397   .     A
C358   C366    1.401   .     A
C359   C368    1.397   .     A
C359   C361    1.405   .     A
C360   O506    1.384   .     S
C362   O418    1.384   .     S
C362   C364    1.414   .     A
C363   O430    1.385   .     S
C363   C365    1.411   .     A
C364   C369    1.425   .     A
C364   C366    1.419   .     A
C365   C370    1.418   .     A
C365   C368    1.410   .     A
C366   C1152   1.393   .     S
C367   C370    1.410   .     A
C367   H407    1.081   .     S
C367   C378    1.387   .     A
C368   C1153   1.393   1_554 S
C369   C377    1.414   .     A
C369   C1144   1.418   .     S
C370   C1143   1.418   1_554 S
C371   H386    1.109   .     S
C371   O430    1.413   .     S
C371   H414    1.115   .     S
C371   H387    1.112   .     S
C372   O418    1.409   .     S
C372   H390    1.109   .     S
C372   H389    1.113   .     S
C372   H388    1.114   .     S
C373   H393    1.110   .     S
C373   H391    1.115   .     S
C373   H392    1.107   .     S
C373   O419    1.410   .     S
C374   H395    1.113   .     S
C374   H394    1.109   .     S
C374   H397    1.112   .     S
C374   O420    1.408   .     S
C375   H402    1.112   .     S
C375   H400    1.114   .     S
C375   O421    1.412   .     S
C375   H401    1.109   .     S
C376   H405    1.113   .     S
C376   O422    1.410   .     S
C376   H404    1.109   .     S
C376   H403    1.114   .     S
C377   H409    1.078   .     S
C377   C379    1.391   .     A
C378   H385    1.084   .     S
C378   C1140   1.393   1_554 S
C379   H396    1.084   .     S
C379   C1142   1.393   .     S
C380   O421    1.386   .     S
C381   O422    1.383   .     S
C381   C604    1.388   .     S
C382   H410    1.084   .     S
C382   C433    1.398   .     S
C382   C638    1.391   .     S
Cu383  O425    1.965   .     S
Cu383  O429    1.945   .     S
Cu383  N415    2.012   .     S
Cu383  O426    1.956   .     S
Cu383  O417    1.962   .     S
Cu384  O428    1.945   .     S
Cu384  O424    1.965   .     S
Cu384  O427    1.956   .     S
Cu384  O423    1.962   .     S
Cu384  N416    2.012   .     S
Cu384  Cu469   2.678   .     S
H399   C445    1.084   .     S
O419   C447    1.387   .     S
O423   C442    1.291   .     S
O427   C440    1.301   .     S
C431   C434    1.450   .     S
C431   O510    1.289   .     A
C431   O331    1.293   1_655 S
C432   H497    1.084   .     S
C433   C442    1.448   .     S
C433   C467    1.407   .     A
C434   C466    1.409   .     A
C434   C260    1.400   1_655 S
C435   N502    1.367   .     A
C435   H498    1.082   .     S
C435   C437    1.416   .     A
C436   H499    1.081   .     S
C436   N501    1.367   .     A
C436   C438    1.416   .     A
C437   N501    1.367   .     A
C437   H492    1.082   .     S
C438   N502    1.366   .     A
C438   H494    1.082   .     S
C439   C441    1.463   .     S
C439   O514    1.293   .     A
C439   O340    1.294   1_655 S
C440   O515    1.297   .     A
C440   C443    1.484   .     S
C441   C448    1.405   .     A
C441   C446    1.407   .     A
C442   O511    1.289   .     A
C443   C449    1.415   .     A
C443   C447    1.414   .     A
C444   H484    1.084   .     S
C444   C446    1.397   .     A
C444   C452    1.401   .     A
C445   C454    1.397   .     A
C445   C447    1.405   .     A
C446   O334    1.384   1_655 S
C448   O504    1.384   .     S
C448   C450    1.414   .     A
C449   O516    1.385   .     S
C449   C451    1.411   .     A
C450   C455    1.425   .     A
C450   C452    1.419   .     A
C451   C456    1.418   .     A
C451   C454    1.410   .     A
C452   C1238   1.393   .     S
C453   C456    1.410   .     A
C453   H493    1.081   .     S
C453   C464    1.387   .     A
C454   C1239   1.393   1_554 S
C455   C463    1.414   .     A
C455   C1230   1.418   .     S
C456   C1229   1.418   1_554 S
C457   H472    1.109   .     S
C457   O516    1.413   .     S
C457   H500    1.115   .     S
C457   H473    1.112   .     S
C458   O504    1.409   .     S
C458   H476    1.109   .     S
C458   H475    1.113   .     S
C458   H474    1.114   .     S
C459   H479    1.110   .     S
C459   H477    1.115   .     S
C459   H478    1.107   .     S
C459   O505    1.410   .     S
C460   H481    1.113   .     S
C460   H480    1.109   .     S
C460   H483    1.112   .     S
C460   O506    1.408   .     S
C461   H488    1.112   .     S
C461   H486    1.114   .     S
C461   O507    1.412   .     S
C461   H487    1.109   .     S
C462   H491    1.113   .     S
C462   O508    1.410   .     S
C462   H490    1.109   .     S
C462   H489    1.114   .     S
C463   H495    1.078   .     S
C463   C465    1.391   .     A
C464   H471    1.084   .     S
C464   C1226   1.393   1_554 S
C465   H482    1.084   .     S
C465   C1228   1.393   .     S
C466   O507    1.386   .     S
C467   O508    1.383   .     S
C467   C690    1.388   .     S
C468   H496    1.084   .     S
C468   C261    1.398   1_655 S
C468   C724    1.391   .     S
Cu469  O511    1.965   .     S
Cu469  O515    1.945   .     S
Cu469  N501    2.012   .     S
Cu469  O512    1.956   .     S
Cu469  O503    1.962   .     S
Cu470  O514    1.945   .     S
Cu470  O510    1.965   .     S
Cu470  O513    1.956   .     S
Cu470  O509    1.962   .     S
Cu470  N502    2.012   .     S
Cu470  Cu297   2.678   1_655 S
H485   C273    1.084   1_655 S
O505   C275    1.387   1_655 S
O509   C270    1.291   1_655 S
O513   C268    1.301   1_655 S
C517   C520    1.450   .     S
C517   O596    1.289   .     A
C517   O675    1.293   .     S
C518   H583    1.084   .     S
C518   C692    1.400   1_455 S
C519   C528    1.448   .     S
C519   C553    1.407   .     A
C519   C726    1.398   1_455 S
C520   C552    1.409   .     A
C520   C604    1.400   .     S
C521   N588    1.367   .     A
C521   H584    1.082   .     S
C521   C523    1.416   .     A
C522   H585    1.081   .     S
C522   N587    1.367   .     A
C522   C524    1.416   .     A
C523   N587    1.367   .     A
C523   H578    1.082   .     S
C524   N588    1.366   .     A
C524   H580    1.082   .     S
C525   C527    1.463   .     S
C525   O600    1.293   .     A
C525   O684    1.294   .     S
C526   O601    1.297   .     A
C526   C529    1.484   .     S
C526   O771    1.301   1_455 S
C527   C534    1.405   .     A
C527   C532    1.407   .     A
C528   O597    1.289   .     A
C528   O767    1.291   1_455 S
C529   C535    1.415   .     A
C529   C533    1.414   .     A
C530   H570    1.084   .     S
C530   C532    1.397   .     A
C530   C538    1.401   .     A
C531   C540    1.397   .     A
C531   C533    1.405   .     A
C531   H743    1.084   1_455 S
C532   O678    1.384   .     S
C533   O763    1.387   1_455 S
C534   O590    1.384   .     S
C534   C536    1.414   .     A
C535   O602    1.385   .     S
C535   C537    1.411   .     A
C536   C541    1.425   .     A
C536   C538    1.419   .     A
C537   C542    1.418   .     A
C537   C540    1.410   .     A
C538   C1324   1.393   .     S
C539   C542    1.410   .     A
C539   H579    1.081   .     S
C539   C550    1.387   .     A
C540   C1325   1.393   1_554 S
C541   C549    1.414   .     A
C541   C1316   1.418   .     S
C542   C1315   1.418   1_554 S
C543   H558    1.109   .     S
C543   O602    1.413   .     S
C543   H586    1.115   .     S
C543   H559    1.112   .     S
C544   O590    1.409   .     S
C544   H562    1.109   .     S
C544   H561    1.113   .     S
C544   H560    1.114   .     S
C545   H565    1.110   .     S
C545   H563    1.115   .     S
C545   H564    1.107   .     S
C545   O591    1.410   .     S
C546   H567    1.113   .     S
C546   H566    1.109   .     S
C546   H569    1.112   .     S
C546   O592    1.408   .     S
C547   H574    1.112   .     S
C547   H572    1.114   .     S
C547   O593    1.412   .     S
C547   H573    1.109   .     S
C548   H577    1.113   .     S
C548   O594    1.410   .     S
C548   H576    1.109   .     S
C548   H575    1.114   .     S
C549   H581    1.078   .     S
C549   C551    1.391   .     A
C550   H557    1.084   .     S
C550   C1312   1.393   1_554 S
C551   H568    1.084   .     S
C551   C1314   1.393   .     S
C552   O593    1.386   .     S
C553   O594    1.383   .     S
C553   C2      1.388   1_565 S
C554   H582    1.084   .     S
C554   C605    1.398   .     S
C554   C36     1.391   1_565 S
Cu555  O597    1.965   .     S
Cu555  O601    1.945   .     S
Cu555  N587    2.012   .     S
Cu555  O598    1.956   .     S
Cu555  O589    1.962   .     S
Cu555  Cu728   2.678   1_455 S
Cu556  O600    1.945   .     S
Cu556  O596    1.965   .     S
Cu556  O599    1.956   .     S
Cu556  O595    1.962   .     S
Cu556  N588    2.012   .     S
Cu556  Cu641   2.678   .     S
H571   C617    1.084   .     S
O589   C689    1.293   1_455 S
O591   C619    1.387   .     S
O592   C704    1.384   1_455 S
O595   C614    1.291   .     S
O598   C697    1.294   1_455 S
O599   C612    1.301   .     S
C603   C606    1.450   .     S
C603   O682    1.289   .     A
C603   O761    1.293   .     S
C604   H669    1.084   .     S
C605   C614    1.448   .     S
C605   C639    1.407   .     A
C606   C638    1.409   .     A
C606   C690    1.400   .     S
C607   N674    1.367   .     A
C607   H670    1.082   .     S
C607   C609    1.416   .     A
C608   H671    1.081   .     S
C608   N673    1.367   .     A
C608   C610    1.416   .     A
C609   N673    1.367   .     A
C609   H664    1.082   .     S
C610   N674    1.366   .     A
C610   H666    1.082   .     S
C611   C613    1.463   .     S
C611   O686    1.293   .     A
C611   O770    1.294   .     S
C612   O687    1.297   .     A
C612   C615    1.484   .     S
C613   C620    1.405   .     A
C613   C618    1.407   .     A
C614   O683    1.289   .     A
C615   C621    1.415   .     A
C615   C619    1.414   .     A
C616   H656    1.084   .     S
C616   C618    1.397   .     A
C616   C624    1.401   .     A
C617   C626    1.397   .     A
C617   C619    1.405   .     A
C618   O764    1.384   .     S
C620   O676    1.384   .     S
C620   C622    1.414   .     A
C621   O688    1.385   .     S
C621   C623    1.411   .     A
C622   C627    1.425   .     A
C622   C624    1.419   .     A
C623   C628    1.418   .     A
C623   C626    1.410   .     A
C624   C1410   1.393   .     S
C625   C628    1.410   .     A
C625   H665    1.081   .     S
C625   C636    1.387   .     A
C626   C1411   1.393   1_554 S
C627   C635    1.414   .     A
C627   C1402   1.418   .     S
C628   C1401   1.418   1_554 S
C629   H644    1.109   .     S
C629   O688    1.413   .     S
C629   H672    1.115   .     S
C629   H645    1.112   .     S
C630   O676    1.409   .     S
C630   H648    1.109   .     S
C630   H647    1.113   .     S
C630   H646    1.114   .     S
C631   H651    1.110   .     S
C631   H649    1.115   .     S
C631   H650    1.107   .     S
C631   O677    1.410   .     S
C632   H653    1.113   .     S
C632   H652    1.109   .     S
C632   H655    1.112   .     S
C632   O678    1.408   .     S
C633   H660    1.112   .     S
C633   H658    1.114   .     S
C633   O679    1.412   .     S
C633   H659    1.109   .     S
C634   H663    1.113   .     S
C634   O680    1.410   .     S
C634   H662    1.109   .     S
C634   H661    1.114   .     S
C635   H667    1.078   .     S
C635   C637    1.391   .     A
C636   H643    1.084   .     S
C636   C1398   1.393   1_554 S
C637   H654    1.084   .     S
C637   C1400   1.393   .     S
C638   O679    1.386   .     S
C639   O680    1.383   .     S
C639   C88     1.388   1_565 S
C640   H668    1.084   .     S
C640   C691    1.398   .     S
C640   C122    1.391   1_565 S
Cu641  O683    1.965   .     S
Cu641  O687    1.945   .     S
Cu641  N673    2.012   .     S
Cu641  O684    1.956   .     S
Cu641  O675    1.962   .     S
Cu642  O686    1.945   .     S
Cu642  O682    1.965   .     S
Cu642  O685    1.956   .     S
Cu642  O681    1.962   .     S
Cu642  N674    2.012   .     S
Cu642  Cu727   2.678   .     S
H657   C703    1.084   .     S
O677   C705    1.387   .     S
O681   C700    1.291   .     S
O685   C698    1.301   .     S
C689   C692    1.450   .     S
C689   O768    1.289   .     A
C689   O589    1.293   1_655 S
C690   H755    1.084   .     S
C691   C700    1.448   .     S
C691   C725    1.407   .     A
C692   C724    1.409   .     A
C692   C518    1.400   1_655 S
C693   N760    1.367   .     A
C693   H756    1.082   .     S
C693   C695    1.416   .     A
C694   H757    1.081   .     S
C694   N759    1.367   .     A
C694   C696    1.416   .     A
C695   N759    1.367   .     A
C695   H750    1.082   .     S
C696   N760    1.366   .     A
C696   H752    1.082   .     S
C697   C699    1.463   .     S
C697   O772    1.293   .     A
C697   O598    1.294   1_655 S
C698   O773    1.297   .     A
C698   C701    1.484   .     S
C699   C706    1.405   .     A
C699   C704    1.407   .     A
C700   O769    1.289   .     A
C701   C707    1.415   .     A
C701   C705    1.414   .     A
C702   H742    1.084   .     S
C702   C704    1.397   .     A
C702   C710    1.401   .     A
C703   C712    1.397   .     A
C703   C705    1.405   .     A
C704   O592    1.384   1_655 S
C706   O762    1.384   .     S
C706   C708    1.414   .     A
C707   O774    1.385   .     S
C707   C709    1.411   .     A
C708   C713    1.425   .     A
C708   C710    1.419   .     A
C709   C714    1.418   .     A
C709   C712    1.410   .     A
C710   C1496   1.393   .     S
C711   C714    1.410   .     A
C711   H751    1.081   .     S
C711   C722    1.387   .     A
C712   C1497   1.393   1_554 S
C713   C721    1.414   .     A
C713   C1488   1.418   .     S
C714   C1487   1.418   1_554 S
C715   H730    1.109   .     S
C715   O774    1.413   .     S
C715   H758    1.115   .     S
C715   H731    1.112   .     S
C716   O762    1.409   .     S
C716   H734    1.109   .     S
C716   H733    1.113   .     S
C716   H732    1.114   .     S
C717   H737    1.110   .     S
C717   H735    1.115   .     S
C717   H736    1.107   .     S
C717   O763    1.410   .     S
C718   H739    1.113   .     S
C718   H738    1.109   .     S
C718   H741    1.112   .     S
C718   O764    1.408   .     S
C719   H746    1.112   .     S
C719   H744    1.114   .     S
C719   O765    1.412   .     S
C719   H745    1.109   .     S
C720   H749    1.113   .     S
C720   O766    1.410   .     S
C720   H748    1.109   .     S
C720   H747    1.114   .     S
C721   H753    1.078   .     S
C721   C723    1.391   .     A
C722   H729    1.084   .     S
C722   C1484   1.393   1_554 S
C723   H740    1.084   .     S
C723   C1486   1.393   .     S
C724   O765    1.386   .     S
C725   O766    1.383   .     S
C725   C174    1.388   1_565 S
C726   H754    1.084   .     S
C726   C519    1.398   1_655 S
C726   C208    1.391   1_565 S
Cu727  O769    1.965   .     S
Cu727  O773    1.945   .     S
Cu727  N759    2.012   .     S
Cu727  O770    1.956   .     S
Cu727  O761    1.962   .     S
Cu728  O772    1.945   .     S
Cu728  O768    1.965   .     S
Cu728  O771    1.956   .     S
Cu728  O767    1.962   .     S
Cu728  N760    2.012   .     S
Cu728  Cu555   2.678   1_655 S
H743   C531    1.084   1_655 S
O763   C533    1.387   1_655 S
O767   C528    1.291   1_655 S
O771   C526    1.301   1_655 S
C775   C778    1.450   .     S
C775   O854    1.289   .     A
C775   O933    1.293   .     S
C776   H841    1.084   .     S
C776   C950    1.400   1_455 S
C776   C1327   1.388   1_545 S
C777   C786    1.448   .     S
C777   C811    1.407   .     A
C777   C984    1.398   1_455 S
C778   C810    1.409   .     A
C778   C862    1.400   .     S
C779   N846    1.367   .     A
C779   H842    1.082   .     S
C779   C781    1.416   .     A
C780   H843    1.081   .     S
C780   N845    1.367   .     A
C780   C782    1.416   .     A
C781   N845    1.367   .     A
C781   H836    1.082   .     S
C782   N846    1.366   .     A
C782   H838    1.082   .     S
C783   C785    1.463   .     S
C783   O858    1.293   .     A
C783   O942    1.294   .     S
C784   O859    1.297   .     A
C784   C787    1.484   .     S
C784   O1029   1.301   1_455 S
C785   C792    1.405   .     A
C785   C790    1.407   .     A
C786   O855    1.289   .     A
C786   O1025   1.291   1_455 S
C787   C793    1.415   .     A
C787   C791    1.414   .     A
C788   H828    1.084   .     S
C788   C790    1.397   .     A
C788   C796    1.401   .     A
C789   C798    1.397   .     A
C789   C791    1.405   .     A
C789   H1001   1.084   1_455 S
C790   O936    1.384   .     S
C791   O1021   1.387   1_455 S
C792   O848    1.384   .     S
C792   C794    1.414   .     A
C793   O860    1.385   .     S
C793   C795    1.411   .     A
C794   C799    1.425   .     A
C794   C796    1.419   .     A
C795   C800    1.418   .     A
C795   C798    1.410   .     A
C796   C34     1.393   1_556 S
C797   C800    1.410   .     A
C797   H837    1.081   .     S
C797   C808    1.387   .     A
C799   C807    1.414   .     A
C799   C26     1.418   1_556 S
C801   H816    1.109   .     S
C801   O860    1.413   .     S
C801   H844    1.115   .     S
C801   H817    1.112   .     S
C802   O848    1.409   .     S
C802   H820    1.109   .     S
C802   H819    1.113   .     S
C802   H818    1.114   .     S
C803   H823    1.110   .     S
C803   H821    1.115   .     S
C803   H822    1.107   .     S
C803   O849    1.410   .     S
C804   H825    1.113   .     S
C804   H824    1.109   .     S
C804   H827    1.112   .     S
C804   O850    1.408   .     S
C805   H832    1.112   .     S
C805   H830    1.114   .     S
C805   O851    1.412   .     S
C805   H831    1.109   .     S
C806   H835    1.113   .     S
C806   O852    1.410   .     S
C806   H834    1.109   .     S
C806   H833    1.114   .     S
C807   H839    1.078   .     S
C807   C809    1.391   .     A
C808   H815    1.084   .     S
C809   H826    1.084   .     S
C809   C24     1.393   1_556 S
C810   O851    1.386   .     S
C810   C1328   1.391   1_545 S
C811   O852    1.383   .     S
C811   C1034   1.388   .     S
C812   H840    1.084   .     S
C812   C863    1.398   .     S
C812   C1068   1.391   .     S
Cu813  O855    1.965   .     S
Cu813  O859    1.945   .     S
Cu813  N845    2.012   .     S
Cu813  O856    1.956   .     S
Cu813  O847    1.962   .     S
Cu813  Cu986   2.678   1_455 S
Cu814  O858    1.945   .     S
Cu814  O854    1.965   .     S
Cu814  O857    1.956   .     S
Cu814  O853    1.962   .     S
Cu814  N846    2.012   .     S
Cu814  Cu899   2.678   .     S
H829   C875    1.084   .     S
O847   C947    1.293   1_455 S
O849   C877    1.387   .     S
O850   C962    1.384   1_455 S
O853   C872    1.291   .     S
O856   C955    1.294   1_455 S
O857   C870    1.301   .     S
C861   C864    1.450   .     S
C861   O940    1.289   .     A
C861   O1019   1.293   .     S
C862   H927    1.084   .     S
C862   C1413   1.388   1_545 S
C863   C872    1.448   .     S
C863   C897    1.407   .     A
C864   C896    1.409   .     A
C864   C948    1.400   .     S
C865   N932    1.367   .     A
C865   H928    1.082   .     S
C865   C867    1.416   .     A
C866   H929    1.081   .     S
C866   N931    1.367   .     A
C866   C868    1.416   .     A
C867   N931    1.367   .     A
C867   H922    1.082   .     S
C868   N932    1.366   .     A
C868   H924    1.082   .     S
C869   C871    1.463   .     S
C869   O944    1.293   .     A
C869   O1028   1.294   .     S
C870   O945    1.297   .     A
C870   C873    1.484   .     S
C871   C878    1.405   .     A
C871   C876    1.407   .     A
C872   O941    1.289   .     A
C873   C879    1.415   .     A
C873   C877    1.414   .     A
C874   H914    1.084   .     S
C874   C876    1.397   .     A
C874   C882    1.401   .     A
C875   C884    1.397   .     A
C875   C877    1.405   .     A
C876   O1022   1.384   .     S
C878   O934    1.384   .     S
C878   C880    1.414   .     A
C879   O946    1.385   .     S
C879   C881    1.411   .     A
C880   C885    1.425   .     A
C880   C882    1.419   .     A
C881   C886    1.418   .     A
C881   C884    1.410   .     A
C882   C120    1.393   1_556 S
C883   C886    1.410   .     A
C883   H923    1.081   .     S
C883   C894    1.387   .     A
C885   C893    1.414   .     A
C885   C112    1.418   1_556 S
C887   H902    1.109   .     S
C887   O946    1.413   .     S
C887   H930    1.115   .     S
C887   H903    1.112   .     S
C888   O934    1.409   .     S
C888   H906    1.109   .     S
C888   H905    1.113   .     S
C888   H904    1.114   .     S
C889   H909    1.110   .     S
C889   H907    1.115   .     S
C889   H908    1.107   .     S
C889   O935    1.410   .     S
C890   H911    1.113   .     S
C890   H910    1.109   .     S
C890   H913    1.112   .     S
C890   O936    1.408   .     S
C891   H918    1.112   .     S
C891   H916    1.114   .     S
C891   O937    1.412   .     S
C891   H917    1.109   .     S
C892   H921    1.113   .     S
C892   O938    1.410   .     S
C892   H920    1.109   .     S
C892   H919    1.114   .     S
C893   H925    1.078   .     S
C893   C895    1.391   .     A
C894   H901    1.084   .     S
C895   H912    1.084   .     S
C895   C110    1.393   1_556 S
C896   O937    1.386   .     S
C896   C1414   1.391   1_545 S
C897   O938    1.383   .     S
C897   C1120   1.388   .     S
C898   H926    1.084   .     S
C898   C949    1.398   .     S
C898   C1154   1.391   .     S
Cu899  O941    1.965   .     S
Cu899  O945    1.945   .     S
Cu899  N931    2.012   .     S
Cu899  O942    1.956   .     S
Cu899  O933    1.962   .     S
Cu900  O944    1.945   .     S
Cu900  O940    1.965   .     S
Cu900  O943    1.956   .     S
Cu900  O939    1.962   .     S
Cu900  N932    2.012   .     S
Cu900  Cu985   2.678   .     S
H915   C961    1.084   .     S
O935   C963    1.387   .     S
O939   C958    1.291   .     S
O943   C956    1.301   .     S
C947   C950    1.450   .     S
C947   O1026   1.289   .     A
C947   O847    1.293   1_655 S
C948   H1013   1.084   .     S
C948   C1499   1.388   1_545 S
C949   C958    1.448   .     S
C949   C983    1.407   .     A
C950   C982    1.409   .     A
C950   C776    1.400   1_655 S
C951   N1018   1.367   .     A
C951   H1014   1.082   .     S
C951   C953    1.416   .     A
C952   H1015   1.081   .     S
C952   N1017   1.367   .     A
C952   C954    1.416   .     A
C953   N1017   1.367   .     A
C953   H1008   1.082   .     S
C954   N1018   1.366   .     A
C954   H1010   1.082   .     S
C955   C957    1.463   .     S
C955   O1030   1.293   .     A
C955   O856    1.294   1_655 S
C956   O1031   1.297   .     A
C956   C959    1.484   .     S
C957   C964    1.405   .     A
C957   C962    1.407   .     A
C958   O1027   1.289   .     A
C959   C965    1.415   .     A
C959   C963    1.414   .     A
C960   H1000   1.084   .     S
C960   C962    1.397   .     A
C960   C968    1.401   .     A
C961   C970    1.397   .     A
C961   C963    1.405   .     A
C962   O850    1.384   1_655 S
C964   O1020   1.384   .     S
C964   C966    1.414   .     A
C965   O1032   1.385   .     S
C965   C967    1.411   .     A
C966   C971    1.425   .     A
C966   C968    1.419   .     A
C967   C972    1.418   .     A
C967   C970    1.410   .     A
C968   C206    1.393   1_556 S
C969   C972    1.410   .     A
C969   H1009   1.081   .     S
C969   C980    1.387   .     A
C971   C979    1.414   .     A
C971   C198    1.418   1_556 S
C973   H988    1.109   .     S
C973   O1032   1.413   .     S
C973   H1016   1.115   .     S
C973   H989    1.112   .     S
C974   O1020   1.409   .     S
C974   H992    1.109   .     S
C974   H991    1.113   .     S
C974   H990    1.114   .     S
C975   H995    1.110   .     S
C975   H993    1.115   .     S
C975   H994    1.107   .     S
C975   O1021   1.410   .     S
C976   H997    1.113   .     S
C976   H996    1.109   .     S
C976   H999    1.112   .     S
C976   O1022   1.408   .     S
C977   H1004   1.112   .     S
C977   H1002   1.114   .     S
C977   O1023   1.412   .     S
C977   H1003   1.109   .     S
C978   H1007   1.113   .     S
C978   O1024   1.410   .     S
C978   H1006   1.109   .     S
C978   H1005   1.114   .     S
C979   H1011   1.078   .     S
C979   C981    1.391   .     A
C980   H987    1.084   .     S
C981   H998    1.084   .     S
C981   C196    1.393   1_556 S
C982   O1023   1.386   .     S
C982   C1500   1.391   1_545 S
C983   O1024   1.383   .     S
C983   C1206   1.388   .     S
C984   H1012   1.084   .     S
C984   C777    1.398   1_655 S
C984   C1240   1.391   .     S
Cu985  O1027   1.965   .     S
Cu985  O1031   1.945   .     S
Cu985  N1017   2.012   .     S
Cu985  O1028   1.956   .     S
Cu985  O1019   1.962   .     S
Cu986  O1030   1.945   .     S
Cu986  O1026   1.965   .     S
Cu986  O1029   1.956   .     S
Cu986  O1025   1.962   .     S
Cu986  N1018   2.012   .     S
Cu986  Cu813   2.678   1_655 S
H1001  C789    1.084   1_655 S
O1021  C791    1.387   1_655 S
O1025  C786    1.291   1_655 S
O1029  C784    1.301   1_655 S
C1033  C1036   1.450   .     S
C1033  O1112   1.289   .     A
C1033  O1191   1.293   .     S
C1034  H1099   1.084   .     S
C1034  C1208   1.400   1_455 S
C1035  C1044   1.448   .     S
C1035  C1069   1.407   .     A
C1035  C1242   1.398   1_455 S
C1036  C1068   1.409   .     A
C1036  C1120   1.400   .     S
C1037  N1104   1.367   .     A
C1037  H1100   1.082   .     S
C1037  C1039   1.416   .     A
C1038  H1101   1.081   .     S
C1038  N1103   1.367   .     A
C1038  C1040   1.416   .     A
C1039  N1103   1.367   .     A
C1039  H1094   1.082   .     S
C1040  N1104   1.366   .     A
C1040  H1096   1.082   .     S
C1041  C1043   1.463   .     S
C1041  O1116   1.293   .     A
C1041  O1200   1.294   .     S
C1042  O1117   1.297   .     A
C1042  C1045   1.484   .     S
C1042  O1287   1.301   1_455 S
C1043  C1050   1.405   .     A
C1043  C1048   1.407   .     A
C1044  O1113   1.289   .     A
C1044  O1283   1.291   1_455 S
C1045  C1051   1.415   .     A
C1045  C1049   1.414   .     A
C1046  H1086   1.084   .     S
C1046  C1048   1.397   .     A
C1046  C1054   1.401   .     A
C1047  C1056   1.397   .     A
C1047  C1049   1.405   .     A
C1047  H1259   1.084   1_455 S
C1048  O1194   1.384   .     S
C1049  O1279   1.387   1_455 S
C1050  O1106   1.384   .     S
C1050  C1052   1.414   .     A
C1051  O1118   1.385   .     S
C1051  C1053   1.411   .     A
C1052  C1057   1.425   .     A
C1052  C1054   1.419   .     A
C1053  C1058   1.418   .     A
C1053  C1056   1.410   .     A
C1054  C292    1.393   1_556 S
C1055  C1058   1.410   .     A
C1055  H1095   1.081   .     S
C1055  C1066   1.387   .     A
C1057  C1065   1.414   .     A
C1057  C284    1.418   1_556 S
C1059  H1074   1.109   .     S
C1059  O1118   1.413   .     S
C1059  H1102   1.115   .     S
C1059  H1075   1.112   .     S
C1060  O1106   1.409   .     S
C1060  H1078   1.109   .     S
C1060  H1077   1.113   .     S
C1060  H1076   1.114   .     S
C1061  H1081   1.110   .     S
C1061  H1079   1.115   .     S
C1061  H1080   1.107   .     S
C1061  O1107   1.410   .     S
C1062  H1083   1.113   .     S
C1062  H1082   1.109   .     S
C1062  H1085   1.112   .     S
C1062  O1108   1.408   .     S
C1063  H1090   1.112   .     S
C1063  H1088   1.114   .     S
C1063  O1109   1.412   .     S
C1063  H1089   1.109   .     S
C1064  H1093   1.113   .     S
C1064  O1110   1.410   .     S
C1064  H1092   1.109   .     S
C1064  H1091   1.114   .     S
C1065  H1097   1.078   .     S
C1065  C1067   1.391   .     A
C1066  H1073   1.084   .     S
C1067  H1084   1.084   .     S
C1067  C282    1.393   1_556 S
C1068  O1109   1.386   .     S
C1069  O1110   1.383   .     S
C1069  C1292   1.388   .     S
C1070  H1098   1.084   .     S
C1070  C1121   1.398   .     S
C1070  C1326   1.391   .     S
Cu1071 O1113   1.965   .     S
Cu1071 O1117   1.945   .     S
Cu1071 N1103   2.012   .     S
Cu1071 O1114   1.956   .     S
Cu1071 O1105   1.962   .     S
Cu1071 Cu1244  2.678   1_455 S
Cu1072 O1116   1.945   .     S
Cu1072 O1112   1.965   .     S
Cu1072 O1115   1.956   .     S
Cu1072 O1111   1.962   .     S
Cu1072 N1104   2.012   .     S
Cu1072 Cu1157  2.678   .     S
H1087  C1133   1.084   .     S
O1105  C1205   1.293   1_455 S
O1107  C1135   1.387   .     S
O1108  C1220   1.384   1_455 S
O1111  C1130   1.291   .     S
O1114  C1213   1.294   1_455 S
O1115  C1128   1.301   .     S
C1119  C1122   1.450   .     S
C1119  O1198   1.289   .     A
C1119  O1277   1.293   .     S
C1120  H1185   1.084   .     S
C1121  C1130   1.448   .     S
C1121  C1155   1.407   .     A
C1122  C1154   1.409   .     A
C1122  C1206   1.400   .     S
C1123  N1190   1.367   .     A
C1123  H1186   1.082   .     S
C1123  C1125   1.416   .     A
C1124  H1187   1.081   .     S
C1124  N1189   1.367   .     A
C1124  C1126   1.416   .     A
C1125  N1189   1.367   .     A
C1125  H1180   1.082   .     S
C1126  N1190   1.366   .     A
C1126  H1182   1.082   .     S
C1127  C1129   1.463   .     S
C1127  O1202   1.293   .     A
C1127  O1286   1.294   .     S
C1128  O1203   1.297   .     A
C1128  C1131   1.484   .     S
C1129  C1136   1.405   .     A
C1129  C1134   1.407   .     A
C1130  O1199   1.289   .     A
C1131  C1137   1.415   .     A
C1131  C1135   1.414   .     A
C1132  H1172   1.084   .     S
C1132  C1134   1.397   .     A
C1132  C1140   1.401   .     A
C1133  C1142   1.397   .     A
C1133  C1135   1.405   .     A
C1134  O1280   1.384   .     S
C1136  O1192   1.384   .     S
C1136  C1138   1.414   .     A
C1137  O1204   1.385   .     S
C1137  C1139   1.411   .     A
C1138  C1143   1.425   .     A
C1138  C1140   1.419   .     A
C1139  C1144   1.418   .     A
C1139  C1142   1.410   .     A
C1140  C378    1.393   1_556 S
C1141  C1144   1.410   .     A
C1141  H1181   1.081   .     S
C1141  C1152   1.387   .     A
C1143  C1151   1.414   .     A
C1143  C370    1.418   1_556 S
C1145  H1160   1.109   .     S
C1145  O1204   1.413   .     S
C1145  H1188   1.115   .     S
C1145  H1161   1.112   .     S
C1146  O1192   1.409   .     S
C1146  H1164   1.109   .     S
C1146  H1163   1.113   .     S
C1146  H1162   1.114   .     S
C1147  H1167   1.110   .     S
C1147  H1165   1.115   .     S
C1147  H1166   1.107   .     S
C1147  O1193   1.410   .     S
C1148  H1169   1.113   .     S
C1148  H1168   1.109   .     S
C1148  H1171   1.112   .     S
C1148  O1194   1.408   .     S
C1149  H1176   1.112   .     S
C1149  H1174   1.114   .     S
C1149  O1195   1.412   .     S
C1149  H1175   1.109   .     S
C1150  H1179   1.113   .     S
C1150  O1196   1.410   .     S
C1150  H1178   1.109   .     S
C1150  H1177   1.114   .     S
C1151  H1183   1.078   .     S
C1151  C1153   1.391   .     A
C1152  H1159   1.084   .     S
C1153  H1170   1.084   .     S
C1153  C368    1.393   1_556 S
C1154  O1195   1.386   .     S
C1155  O1196   1.383   .     S
C1155  C1378   1.388   .     S
C1156  H1184   1.084   .     S
C1156  C1207   1.398   .     S
C1156  C1412   1.391   .     S
Cu1157 O1199   1.965   .     S
Cu1157 O1203   1.945   .     S
Cu1157 N1189   2.012   .     S
Cu1157 O1200   1.956   .     S
Cu1157 O1191   1.962   .     S
Cu1158 O1202   1.945   .     S
Cu1158 O1198   1.965   .     S
Cu1158 O1201   1.956   .     S
Cu1158 O1197   1.962   .     S
Cu1158 N1190   2.012   .     S
Cu1158 Cu1243  2.678   .     S
H1173  C1219   1.084   .     S
O1193  C1221   1.387   .     S
O1197  C1216   1.291   .     S
O1201  C1214   1.301   .     S
C1205  C1208   1.450   .     S
C1205  O1284   1.289   .     A
C1205  O1105   1.293   1_655 S
C1206  H1271   1.084   .     S
C1207  C1216   1.448   .     S
C1207  C1241   1.407   .     A
C1208  C1240   1.409   .     A
C1208  C1034   1.400   1_655 S
C1209  N1276   1.367   .     A
C1209  H1272   1.082   .     S
C1209  C1211   1.416   .     A
C1210  H1273   1.081   .     S
C1210  N1275   1.367   .     A
C1210  C1212   1.416   .     A
C1211  N1275   1.367   .     A
C1211  H1266   1.082   .     S
C1212  N1276   1.366   .     A
C1212  H1268   1.082   .     S
C1213  C1215   1.463   .     S
C1213  O1288   1.293   .     A
C1213  O1114   1.294   1_655 S
C1214  O1289   1.297   .     A
C1214  C1217   1.484   .     S
C1215  C1222   1.405   .     A
C1215  C1220   1.407   .     A
C1216  O1285   1.289   .     A
C1217  C1223   1.415   .     A
C1217  C1221   1.414   .     A
C1218  H1258   1.084   .     S
C1218  C1220   1.397   .     A
C1218  C1226   1.401   .     A
C1219  C1228   1.397   .     A
C1219  C1221   1.405   .     A
C1220  O1108   1.384   1_655 S
C1222  O1278   1.384   .     S
C1222  C1224   1.414   .     A
C1223  O1290   1.385   .     S
C1223  C1225   1.411   .     A
C1224  C1229   1.425   .     A
C1224  C1226   1.419   .     A
C1225  C1230   1.418   .     A
C1225  C1228   1.410   .     A
C1226  C464    1.393   1_556 S
C1227  C1230   1.410   .     A
C1227  H1267   1.081   .     S
C1227  C1238   1.387   .     A
C1229  C1237   1.414   .     A
C1229  C456    1.418   1_556 S
C1231  H1246   1.109   .     S
C1231  O1290   1.413   .     S
C1231  H1274   1.115   .     S
C1231  H1247   1.112   .     S
C1232  O1278   1.409   .     S
C1232  H1250   1.109   .     S
C1232  H1249   1.113   .     S
C1232  H1248   1.114   .     S
C1233  H1253   1.110   .     S
C1233  H1251   1.115   .     S
C1233  H1252   1.107   .     S
C1233  O1279   1.410   .     S
C1234  H1255   1.113   .     S
C1234  H1254   1.109   .     S
C1234  H1257   1.112   .     S
C1234  O1280   1.408   .     S
C1235  H1262   1.112   .     S
C1235  H1260   1.114   .     S
C1235  O1281   1.412   .     S
C1235  H1261   1.109   .     S
C1236  H1265   1.113   .     S
C1236  O1282   1.410   .     S
C1236  H1264   1.109   .     S
C1236  H1263   1.114   .     S
C1237  H1269   1.078   .     S
C1237  C1239   1.391   .     A
C1238  H1245   1.084   .     S
C1239  H1256   1.084   .     S
C1239  C454    1.393   1_556 S
C1240  O1281   1.386   .     S
C1241  O1282   1.383   .     S
C1241  C1464   1.388   .     S
C1242  H1270   1.084   .     S
C1242  C1035   1.398   1_655 S
C1242  C1498   1.391   .     S
Cu1243 O1285   1.965   .     S
Cu1243 O1289   1.945   .     S
Cu1243 N1275   2.012   .     S
Cu1243 O1286   1.956   .     S
Cu1243 O1277   1.962   .     S
Cu1244 O1288   1.945   .     S
Cu1244 O1284   1.965   .     S
Cu1244 O1287   1.956   .     S
Cu1244 O1283   1.962   .     S
Cu1244 N1276   2.012   .     S
Cu1244 Cu1071  2.678   1_655 S
H1259  C1047   1.084   1_655 S
O1279  C1049   1.387   1_655 S
O1283  C1044   1.291   1_655 S
O1287  C1042   1.301   1_655 S
C1291  C1294   1.450   .     S
C1291  O1370   1.289   .     A
C1291  O1449   1.293   .     S
C1292  H1357   1.084   .     S
C1292  C1466   1.400   1_455 S
C1293  C1302   1.448   .     S
C1293  C1327   1.407   .     A
C1293  C1500   1.398   1_455 S
C1294  C1326   1.409   .     A
C1294  C1378   1.400   .     S
C1295  N1362   1.367   .     A
C1295  H1358   1.082   .     S
C1295  C1297   1.416   .     A
C1296  H1359   1.081   .     S
C1296  N1361   1.367   .     A
C1296  C1298   1.416   .     A
C1297  N1361   1.367   .     A
C1297  H1352   1.082   .     S
C1298  N1362   1.366   .     A
C1298  H1354   1.082   .     S
C1299  C1301   1.463   .     S
C1299  O1374   1.293   .     A
C1299  O1458   1.294   .     S
C1300  O1375   1.297   .     A
C1300  C1303   1.484   .     S
C1300  O1545   1.301   1_455 S
C1301  C1308   1.405   .     A
C1301  C1306   1.407   .     A
C1302  O1371   1.289   .     A
C1302  O1541   1.291   1_455 S
C1303  C1309   1.415   .     A
C1303  C1307   1.414   .     A
C1304  H1344   1.084   .     S
C1304  C1306   1.397   .     A
C1304  C1312   1.401   .     A
C1305  C1314   1.397   .     A
C1305  C1307   1.405   .     A
C1305  H1517   1.084   1_455 S
C1306  O1452   1.384   .     S
C1307  O1537   1.387   1_455 S
C1308  O1364   1.384   .     S
C1308  C1310   1.414   .     A
C1309  O1376   1.385   .     S
C1309  C1311   1.411   .     A
C1310  C1315   1.425   .     A
C1310  C1312   1.419   .     A
C1311  C1316   1.418   .     A
C1311  C1314   1.410   .     A
C1312  C550    1.393   1_556 S
C1313  C1316   1.410   .     A
C1313  H1353   1.081   .     S
C1313  C1324   1.387   .     A
C1315  C1323   1.414   .     A
C1315  C542    1.418   1_556 S
C1317  H1332   1.109   .     S
C1317  O1376   1.413   .     S
C1317  H1360   1.115   .     S
C1317  H1333   1.112   .     S
C1318  O1364   1.409   .     S
C1318  H1336   1.109   .     S
C1318  H1335   1.113   .     S
C1318  H1334   1.114   .     S
C1319  H1339   1.110   .     S
C1319  H1337   1.115   .     S
C1319  H1338   1.107   .     S
C1319  O1365   1.410   .     S
C1320  H1341   1.113   .     S
C1320  H1340   1.109   .     S
C1320  H1343   1.112   .     S
C1320  O1366   1.408   .     S
C1321  H1348   1.112   .     S
C1321  H1346   1.114   .     S
C1321  O1367   1.412   .     S
C1321  H1347   1.109   .     S
C1322  H1351   1.113   .     S
C1322  O1368   1.410   .     S
C1322  H1350   1.109   .     S
C1322  H1349   1.114   .     S
C1323  H1355   1.078   .     S
C1323  C1325   1.391   .     A
C1324  H1331   1.084   .     S
C1325  H1342   1.084   .     S
C1325  C540    1.393   1_556 S
C1326  O1367   1.386   .     S
C1327  O1368   1.383   .     S
C1327  C776    1.388   1_565 S
C1328  H1356   1.084   .     S
C1328  C1379   1.398   .     S
C1328  C810    1.391   1_565 S
Cu1329 O1371   1.965   .     S
Cu1329 O1375   1.945   .     S
Cu1329 N1361   2.012   .     S
Cu1329 O1372   1.956   .     S
Cu1329 O1363   1.962   .     S
Cu1329 Cu1502  2.678   1_455 S
Cu1330 O1374   1.945   .     S
Cu1330 O1370   1.965   .     S
Cu1330 O1373   1.956   .     S
Cu1330 O1369   1.962   .     S
Cu1330 N1362   2.012   .     S
Cu1330 Cu1415  2.678   .     S
H1345  C1391   1.084   .     S
O1363  C1463   1.293   1_455 S
O1365  C1393   1.387   .     S
O1366  C1478   1.384   1_455 S
O1369  C1388   1.291   .     S
O1372  C1471   1.294   1_455 S
O1373  C1386   1.301   .     S
C1377  C1380   1.450   .     S
C1377  O1456   1.289   .     A
C1377  O1535   1.293   .     S
C1378  H1443   1.084   .     S
C1379  C1388   1.448   .     S
C1379  C1413   1.407   .     A
C1380  C1412   1.409   .     A
C1380  C1464   1.400   .     S
C1381  N1448   1.367   .     A
C1381  H1444   1.082   .     S
C1381  C1383   1.416   .     A
C1382  H1445   1.081   .     S
C1382  N1447   1.367   .     A
C1382  C1384   1.416   .     A
C1383  N1447   1.367   .     A
C1383  H1438   1.082   .     S
C1384  N1448   1.366   .     A
C1384  H1440   1.082   .     S
C1385  C1387   1.463   .     S
C1385  O1460   1.293   .     A
C1385  O1544   1.294   .     S
C1386  O1461   1.297   .     A
C1386  C1389   1.484   .     S
C1387  C1394   1.405   .     A
C1387  C1392   1.407   .     A
C1388  O1457   1.289   .     A
C1389  C1395   1.415   .     A
C1389  C1393   1.414   .     A
C1390  H1430   1.084   .     S
C1390  C1392   1.397   .     A
C1390  C1398   1.401   .     A
C1391  C1400   1.397   .     A
C1391  C1393   1.405   .     A
C1392  O1538   1.384   .     S
C1394  O1450   1.384   .     S
C1394  C1396   1.414   .     A
C1395  O1462   1.385   .     S
C1395  C1397   1.411   .     A
C1396  C1401   1.425   .     A
C1396  C1398   1.419   .     A
C1397  C1402   1.418   .     A
C1397  C1400   1.410   .     A
C1398  C636    1.393   1_556 S
C1399  C1402   1.410   .     A
C1399  H1439   1.081   .     S
C1399  C1410   1.387   .     A
C1401  C1409   1.414   .     A
C1401  C628    1.418   1_556 S
C1403  H1418   1.109   .     S
C1403  O1462   1.413   .     S
C1403  H1446   1.115   .     S
C1403  H1419   1.112   .     S
C1404  O1450   1.409   .     S
C1404  H1422   1.109   .     S
C1404  H1421   1.113   .     S
C1404  H1420   1.114   .     S
C1405  H1425   1.110   .     S
C1405  H1423   1.115   .     S
C1405  H1424   1.107   .     S
C1405  O1451   1.410   .     S
C1406  H1427   1.113   .     S
C1406  H1426   1.109   .     S
C1406  H1429   1.112   .     S
C1406  O1452   1.408   .     S
C1407  H1434   1.112   .     S
C1407  H1432   1.114   .     S
C1407  O1453   1.412   .     S
C1407  H1433   1.109   .     S
C1408  H1437   1.113   .     S
C1408  O1454   1.410   .     S
C1408  H1436   1.109   .     S
C1408  H1435   1.114   .     S
C1409  H1441   1.078   .     S
C1409  C1411   1.391   .     A
C1410  H1417   1.084   .     S
C1411  H1428   1.084   .     S
C1411  C626    1.393   1_556 S
C1412  O1453   1.386   .     S
C1413  O1454   1.383   .     S
C1413  C862    1.388   1_565 S
C1414  H1442   1.084   .     S
C1414  C1465   1.398   .     S
C1414  C896    1.391   1_565 S
Cu1415 O1457   1.965   .     S
Cu1415 O1461   1.945   .     S
Cu1415 N1447   2.012   .     S
Cu1415 O1458   1.956   .     S
Cu1415 O1449   1.962   .     S
Cu1416 O1460   1.945   .     S
Cu1416 O1456   1.965   .     S
Cu1416 O1459   1.956   .     S
Cu1416 O1455   1.962   .     S
Cu1416 N1448   2.012   .     S
Cu1416 Cu1501  2.678   .     S
H1431  C1477   1.084   .     S
O1451  C1479   1.387   .     S
O1455  C1474   1.291   .     S
O1459  C1472   1.301   .     S
C1463  C1466   1.450   .     S
C1463  O1542   1.289   .     A
C1463  O1363   1.293   1_655 S
C1464  H1529   1.084   .     S
C1465  C1474   1.448   .     S
C1465  C1499   1.407   .     A
C1466  C1498   1.409   .     A
C1466  C1292   1.400   1_655 S
C1467  N1534   1.367   .     A
C1467  H1530   1.082   .     S
C1467  C1469   1.416   .     A
C1468  H1531   1.081   .     S
C1468  N1533   1.367   .     A
C1468  C1470   1.416   .     A
C1469  N1533   1.367   .     A
C1469  H1524   1.082   .     S
C1470  N1534   1.366   .     A
C1470  H1526   1.082   .     S
C1471  C1473   1.463   .     S
C1471  O1546   1.293   .     A
C1471  O1372   1.294   1_655 S
C1472  O1547   1.297   .     A
C1472  C1475   1.484   .     S
C1473  C1480   1.405   .     A
C1473  C1478   1.407   .     A
C1474  O1543   1.289   .     A
C1475  C1481   1.415   .     A
C1475  C1479   1.414   .     A
C1476  H1516   1.084   .     S
C1476  C1478   1.397   .     A
C1476  C1484   1.401   .     A
C1477  C1486   1.397   .     A
C1477  C1479   1.405   .     A
C1478  O1366   1.384   1_655 S
C1480  O1536   1.384   .     S
C1480  C1482   1.414   .     A
C1481  O1548   1.385   .     S
C1481  C1483   1.411   .     A
C1482  C1487   1.425   .     A
C1482  C1484   1.419   .     A
C1483  C1488   1.418   .     A
C1483  C1486   1.410   .     A
C1484  C722    1.393   1_556 S
C1485  C1488   1.410   .     A
C1485  H1525   1.081   .     S
C1485  C1496   1.387   .     A
C1487  C1495   1.414   .     A
C1487  C714    1.418   1_556 S
C1489  H1504   1.109   .     S
C1489  O1548   1.413   .     S
C1489  H1532   1.115   .     S
C1489  H1505   1.112   .     S
C1490  O1536   1.409   .     S
C1490  H1508   1.109   .     S
C1490  H1507   1.113   .     S
C1490  H1506   1.114   .     S
C1491  H1511   1.110   .     S
C1491  H1509   1.115   .     S
C1491  H1510   1.107   .     S
C1491  O1537   1.410   .     S
C1492  H1513   1.113   .     S
C1492  H1512   1.109   .     S
C1492  H1515   1.112   .     S
C1492  O1538   1.408   .     S
C1493  H1520   1.112   .     S
C1493  H1518   1.114   .     S
C1493  O1539   1.412   .     S
C1493  H1519   1.109   .     S
C1494  H1523   1.113   .     S
C1494  O1540   1.410   .     S
C1494  H1522   1.109   .     S
C1494  H1521   1.114   .     S
C1495  H1527   1.078   .     S
C1495  C1497   1.391   .     A
C1496  H1503   1.084   .     S
C1497  H1514   1.084   .     S
C1497  C712    1.393   1_556 S
C1498  O1539   1.386   .     S
C1499  O1540   1.383   .     S
C1499  C948    1.388   1_565 S
C1500  H1528   1.084   .     S
C1500  C1293   1.398   1_655 S
C1500  C982    1.391   1_565 S
Cu1501 O1543   1.965   .     S
Cu1501 O1547   1.945   .     S
Cu1501 N1533   2.012   .     S
Cu1501 O1544   1.956   .     S
Cu1501 O1535   1.962   .     S
Cu1502 O1546   1.945   .     S
Cu1502 O1542   1.965   .     S
Cu1502 O1545   1.956   .     S
Cu1502 O1541   1.962   .     S
Cu1502 N1534   2.012   .     S
Cu1502 Cu1329  2.678   1_655 S
H1517  C1305   1.084   1_655 S
O1537  C1307   1.387   1_655 S
O1541  C1302   1.291   1_655 S
O1545  C1300   1.301   1_655 S
