data_str_m2_o1_o17_pcu_sym.26
_audit_creation_date              2020-01-03
_audit_creation_method            'Materials Studio'
_symmetry_space_group_name_H-M    'P1'
_symmetry_Int_Tables_number       1
_symmetry_cell_setting            triclinic
loop_
_symmetry_equiv_pos_as_xyz
  x,y,z
_cell_length_a                    32.7186
_cell_length_b                    28.5664
_cell_length_c                    30.1788
_cell_angle_alpha                 89.7354
_cell_angle_beta                  89.8169
_cell_angle_gamma                 90.0086
loop_
_atom_site_label
_atom_site_type_symbol
_atom_site_fract_x
_atom_site_fract_y
_atom_site_fract_z
_atom_site_U_iso_or_equiv
_atom_site_adp_type
_atom_site_occupancy
C1     C     0.08748   0.16667   0.25014   0.00000  Uiso   1.00
C2     C     0.04287   0.16688   0.25106   0.00000  Uiso   1.00
C3     C     0.15003   0.02494   0.21560   0.00000  Uiso   1.00
C4     C     0.18331   0.30838   0.28440   0.00000  Uiso   1.00
C5     C     0.18310   0.02459   0.28449   0.00000  Uiso   1.00
C6     C     0.15023   0.30874   0.21551   0.00000  Uiso   1.00
C7     C     0.16661   0.16667   0.16457   0.00000  Uiso   1.00
C8     C     0.16614   0.16659   0.33534   0.00000  Uiso   1.00
C9     C     0.20354   0.16859   0.40616   0.00000  Uiso   1.00
C10    C     0.12813   0.16373   0.09395   0.00000  Uiso   1.00
C11    C     0.16627   0.16641   0.38346   0.00000  Uiso   1.00
C12    C     0.24592   0.16688   0.25103   0.00000  Uiso   1.00
C13    C     0.16569   0.16623   0.11628   0.00000  Uiso   1.00
C14    C     0.12895   0.16339   0.40601   0.00000  Uiso   1.00
C15    C     0.20278   0.16479   0.09329   0.00000  Uiso   1.00
C16    C     0.12867   0.16366   0.45267   0.00000  Uiso   1.00
C17    C     0.20272   0.16216   0.04675   0.00000  Uiso   1.00
C18    C     0.16603   0.16342   0.47628   0.00000  Uiso   1.00
C19    C     0.16529   0.16341   0.02333   0.00000  Uiso   1.00
C20    C     0.20406   0.16353   0.45291   0.00000  Uiso   1.00
C21    C     0.12731   0.16467   0.04683   0.00000  Uiso   1.00
C22    C     0.09168   0.16534   0.47598   0.00000  Uiso   1.00
C23    C     0.09043   0.16682   0.02196   0.00000  Uiso   1.00
C24    C     0.23959   0.15823   0.02337   0.00000  Uiso   1.00
C25    C     0.24009   0.17974   0.38075   0.00000  Uiso   1.00
C26    C     0.09160   0.15647   0.12053   0.00000  Uiso   1.00
C27    C     0.07319   0.20401   0.36944   0.00000  Uiso   1.00
C28    C     0.26024   0.20957   0.11975   0.00000  Uiso   1.00
C29    C     0.05028   0.17345   0.04116   0.00000  Uiso   1.00
C30    C     0.28048   0.15013   0.45766   0.00000  Uiso   1.00
C31    C     0.04307   0.09503   0.29866   0.00000  Uiso   1.00
C32    C     0.29193   0.24827   0.21840   0.00000  Uiso   1.00
C33    C     0.29074   0.09525   0.29938   0.00000  Uiso   1.00
C34    C     0.24079   0.15847   0.47746   0.00000  Uiso   1.00
C35    C     0.04236   0.23927   0.20399   0.00000  Uiso   1.00
C36    C     0.02149   0.13119   0.27397   0.00000  Uiso   1.00
C37    C     0.31235   0.20599   0.23387   0.00000  Uiso   1.00
C38    C     0.31209   0.13125   0.27420   0.00000  Uiso   1.00
C39    C     0.02145   0.20394   0.23053   0.00000  Uiso   1.00
C40    C     0.29065   0.16790   0.25290   0.00000  Uiso   1.00
Cu41   Cu    0.16667   0.21355   0.25000   0.00000  Uiso   1.00
Cu42   Cu    0.16667   0.11978   0.25000   0.00000  Uiso   1.00
H43    H     0.06290   0.16710   0.45850   0.00000  Uiso   1.00
H44    H     0.09481   0.22635   0.35042   0.00000  Uiso   1.00
H45    H     0.25923   0.13707   0.11113   0.00000  Uiso   1.00
H46    H     0.26749   0.22286   0.08601   0.00000  Uiso   1.00
H47    H     0.28935   0.20582   0.13812   0.00000  Uiso   1.00
H48    H     0.24037   0.23532   0.13688   0.00000  Uiso   1.00
H49    H     0.26833   0.15469   0.04066   0.00000  Uiso   1.00
H50    H     0.13647   0.04359   0.18808   0.00000  Uiso   1.00
H51    H     0.19687   0.28974   0.31192   0.00000  Uiso   1.00
H52    H     0.19600   0.04296   0.31232   0.00000  Uiso   1.00
H53    H     0.13731   0.29036   0.18768   0.00000  Uiso   1.00
H54    H     0.07164   0.13499   0.39241   0.00000  Uiso   1.00
H55    H     0.06331   0.22295   0.39968   0.00000  Uiso   1.00
H56    H     0.04596   0.19754   0.34848   0.00000  Uiso   1.00
N57    N     0.16667   0.28402   0.25000   0.00000  Uiso   1.00
N58    N     0.27597   0.28218   0.20637   0.00000  Uiso   1.00
N59    N     0.27414   0.06653   0.31973   0.00000  Uiso   1.00
N60    N     0.05857   0.26743   0.18258   0.00000  Uiso   1.00
N61    N     0.16667   0.04931   0.25000   0.00000  Uiso   1.00
N62    N     0.26897   0.18909   0.36031   0.00000  Uiso   1.00
N63    N     0.06270   0.15018   0.14196   0.00000  Uiso   1.00
N64    N     0.09206   0.15980   0.38103   0.00000  Uiso   1.00
N65    N     0.23995   0.16469   0.11784   0.00000  Uiso   1.00
N66    N     0.01798   0.17893   0.05603   0.00000  Uiso   1.00
N67    N     0.31234   0.14325   0.44222   0.00000  Uiso   1.00
N68    N     0.06017   0.06621   0.31831   0.00000  Uiso   1.00
O69    O     0.10655   0.20625   0.24999   0.00000  Uiso   1.00
O70    O     0.22679   0.12709   0.25000   0.00000  Uiso   1.00
O71    O     0.22679   0.20625   0.25000   0.00000  Uiso   1.00
O72    O     0.10655   0.12709   0.24999   0.00000  Uiso   1.00
O73    O     0.16666   0.20627   0.18513   0.00000  Uiso   1.00
O74    O     0.16668   0.12707   0.31487   0.00000  Uiso   1.00
O75    O     0.16668   0.20627   0.31487   0.00000  Uiso   1.00
O76    O     0.16666   0.12707   0.18513   0.00000  Uiso   1.00
C77    C     0.42082   0.16667   0.25014   0.00000  Uiso   1.00
C78    C     0.37621   0.16688   0.25106   0.00000  Uiso   1.00
C79    C     0.48336   0.02494   0.21560   0.00000  Uiso   1.00
C80    C     0.51664   0.30838   0.28440   0.00000  Uiso   1.00
C81    C     0.51644   0.02459   0.28449   0.00000  Uiso   1.00
C82    C     0.48356   0.30874   0.21551   0.00000  Uiso   1.00
C83    C     0.49994   0.16667   0.16457   0.00000  Uiso   1.00
C84    C     0.49948   0.16659   0.33534   0.00000  Uiso   1.00
C85    C     0.53687   0.16859   0.40616   0.00000  Uiso   1.00
C86    C     0.46147   0.16373   0.09395   0.00000  Uiso   1.00
C87    C     0.49960   0.16641   0.38346   0.00000  Uiso   1.00
C88    C     0.57925   0.16688   0.25103   0.00000  Uiso   1.00
C89    C     0.49903   0.16623   0.11628   0.00000  Uiso   1.00
C90    C     0.46228   0.16339   0.40601   0.00000  Uiso   1.00
C91    C     0.53611   0.16479   0.09329   0.00000  Uiso   1.00
C92    C     0.46201   0.16366   0.45267   0.00000  Uiso   1.00
C93    C     0.53605   0.16216   0.04675   0.00000  Uiso   1.00
C94    C     0.49936   0.16342   0.47628   0.00000  Uiso   1.00
C95    C     0.49862   0.16341   0.02333   0.00000  Uiso   1.00
C96    C     0.53739   0.16353   0.45291   0.00000  Uiso   1.00
C97    C     0.46065   0.16467   0.04683   0.00000  Uiso   1.00
C98    C     0.42501   0.16534   0.47598   0.00000  Uiso   1.00
C99    C     0.42377   0.16682   0.02196   0.00000  Uiso   1.00
C100   C     0.57292   0.15823   0.02337   0.00000  Uiso   1.00
C101   C     0.57342   0.17974   0.38075   0.00000  Uiso   1.00
C102   C     0.42493   0.15647   0.12053   0.00000  Uiso   1.00
C103   C     0.40652   0.20401   0.36944   0.00000  Uiso   1.00
C104   C     0.59357   0.20957   0.11975   0.00000  Uiso   1.00
C105   C     0.38361   0.17345   0.04116   0.00000  Uiso   1.00
C106   C     0.61381   0.15013   0.45766   0.00000  Uiso   1.00
C107   C     0.37640   0.09503   0.29866   0.00000  Uiso   1.00
C108   C     0.62527   0.24827   0.21840   0.00000  Uiso   1.00
C109   C     0.62407   0.09525   0.29938   0.00000  Uiso   1.00
C110   C     0.57412   0.15847   0.47746   0.00000  Uiso   1.00
C111   C     0.37569   0.23927   0.20399   0.00000  Uiso   1.00
C112   C     0.35482   0.13119   0.27397   0.00000  Uiso   1.00
C113   C     0.64568   0.20599   0.23387   0.00000  Uiso   1.00
C114   C     0.64542   0.13125   0.27420   0.00000  Uiso   1.00
C115   C     0.35478   0.20394   0.23053   0.00000  Uiso   1.00
C116   C     0.62398   0.16790   0.25290   0.00000  Uiso   1.00
Cu117  Cu    0.50000   0.21355   0.25000   0.00000  Uiso   1.00
Cu118  Cu    0.50000   0.11978   0.25000   0.00000  Uiso   1.00
H119   H     0.39624   0.16710   0.45850   0.00000  Uiso   1.00
H120   H     0.42814   0.22635   0.35042   0.00000  Uiso   1.00
H121   H     0.59256   0.13707   0.11113   0.00000  Uiso   1.00
H122   H     0.60082   0.22286   0.08601   0.00000  Uiso   1.00
H123   H     0.62268   0.20582   0.13812   0.00000  Uiso   1.00
H124   H     0.57370   0.23532   0.13688   0.00000  Uiso   1.00
H125   H     0.60166   0.15469   0.04066   0.00000  Uiso   1.00
H126   H     0.46980   0.04359   0.18808   0.00000  Uiso   1.00
H127   H     0.53020   0.28974   0.31192   0.00000  Uiso   1.00
H128   H     0.52934   0.04296   0.31232   0.00000  Uiso   1.00
H129   H     0.47064   0.29036   0.18768   0.00000  Uiso   1.00
H130   H     0.40497   0.13499   0.39241   0.00000  Uiso   1.00
H131   H     0.39664   0.22295   0.39968   0.00000  Uiso   1.00
H132   H     0.37929   0.19754   0.34848   0.00000  Uiso   1.00
N133   N     0.50000   0.28402   0.25000   0.00000  Uiso   1.00
N134   N     0.60930   0.28218   0.20637   0.00000  Uiso   1.00
N135   N     0.60747   0.06653   0.31973   0.00000  Uiso   1.00
N136   N     0.39190   0.26743   0.18258   0.00000  Uiso   1.00
N137   N     0.50000   0.04931   0.25000   0.00000  Uiso   1.00
N138   N     0.60231   0.18909   0.36031   0.00000  Uiso   1.00
N139   N     0.39604   0.15018   0.14196   0.00000  Uiso   1.00
N140   N     0.42539   0.15980   0.38103   0.00000  Uiso   1.00
N141   N     0.57328   0.16469   0.11784   0.00000  Uiso   1.00
N142   N     0.35131   0.17893   0.05603   0.00000  Uiso   1.00
N143   N     0.64567   0.14325   0.44222   0.00000  Uiso   1.00
N144   N     0.39350   0.06621   0.31831   0.00000  Uiso   1.00
O145   O     0.43988   0.20625   0.24999   0.00000  Uiso   1.00
O146   O     0.56012   0.12709   0.25000   0.00000  Uiso   1.00
O147   O     0.56012   0.20625   0.25000   0.00000  Uiso   1.00
O148   O     0.43988   0.12709   0.24999   0.00000  Uiso   1.00
O149   O     0.49999   0.20627   0.18513   0.00000  Uiso   1.00
O150   O     0.50001   0.12707   0.31487   0.00000  Uiso   1.00
O151   O     0.50001   0.20627   0.31487   0.00000  Uiso   1.00
O152   O     0.49999   0.12707   0.18513   0.00000  Uiso   1.00
C153   C     0.75415   0.16667   0.25014   0.00000  Uiso   1.00
C154   C     0.70954   0.16688   0.25106   0.00000  Uiso   1.00
C155   C     0.81670   0.02494   0.21560   0.00000  Uiso   1.00
C156   C     0.84997   0.30838   0.28440   0.00000  Uiso   1.00
C157   C     0.84977   0.02459   0.28449   0.00000  Uiso   1.00
C158   C     0.81690   0.30874   0.21551   0.00000  Uiso   1.00
C159   C     0.83328   0.16667   0.16457   0.00000  Uiso   1.00
C160   C     0.83281   0.16659   0.33534   0.00000  Uiso   1.00
C161   C     0.87021   0.16859   0.40616   0.00000  Uiso   1.00
C162   C     0.79480   0.16373   0.09395   0.00000  Uiso   1.00
C163   C     0.83293   0.16641   0.38346   0.00000  Uiso   1.00
C164   C     0.91259   0.16688   0.25103   0.00000  Uiso   1.00
C165   C     0.83236   0.16623   0.11628   0.00000  Uiso   1.00
C166   C     0.79562   0.16339   0.40601   0.00000  Uiso   1.00
C167   C     0.86944   0.16479   0.09329   0.00000  Uiso   1.00
C168   C     0.79534   0.16366   0.45267   0.00000  Uiso   1.00
C169   C     0.86938   0.16216   0.04675   0.00000  Uiso   1.00
C170   C     0.83269   0.16342   0.47628   0.00000  Uiso   1.00
C171   C     0.83196   0.16341   0.02333   0.00000  Uiso   1.00
C172   C     0.87073   0.16353   0.45291   0.00000  Uiso   1.00
C173   C     0.79398   0.16467   0.04683   0.00000  Uiso   1.00
C174   C     0.75834   0.16534   0.47598   0.00000  Uiso   1.00
C175   C     0.75710   0.16682   0.02196   0.00000  Uiso   1.00
C176   C     0.90625   0.15823   0.02337   0.00000  Uiso   1.00
C177   C     0.90675   0.17974   0.38075   0.00000  Uiso   1.00
C178   C     0.75826   0.15647   0.12053   0.00000  Uiso   1.00
C179   C     0.73985   0.20401   0.36944   0.00000  Uiso   1.00
C180   C     0.92690   0.20957   0.11975   0.00000  Uiso   1.00
C181   C     0.71694   0.17345   0.04116   0.00000  Uiso   1.00
C182   C     0.94714   0.15013   0.45766   0.00000  Uiso   1.00
C183   C     0.70973   0.09503   0.29866   0.00000  Uiso   1.00
C184   C     0.95860   0.24827   0.21840   0.00000  Uiso   1.00
C185   C     0.95741   0.09525   0.29938   0.00000  Uiso   1.00
C186   C     0.90746   0.15847   0.47746   0.00000  Uiso   1.00
C187   C     0.70903   0.23927   0.20399   0.00000  Uiso   1.00
C188   C     0.68815   0.13119   0.27397   0.00000  Uiso   1.00
C189   C     0.97901   0.20599   0.23387   0.00000  Uiso   1.00
C190   C     0.97875   0.13125   0.27420   0.00000  Uiso   1.00
C191   C     0.68812   0.20394   0.23053   0.00000  Uiso   1.00
C192   C     0.95732   0.16790   0.25290   0.00000  Uiso   1.00
Cu193  Cu    0.83333   0.21355   0.25000   0.00000  Uiso   1.00
Cu194  Cu    0.83333   0.11978   0.25000   0.00000  Uiso   1.00
H195   H     0.72957   0.16710   0.45850   0.00000  Uiso   1.00
H196   H     0.76148   0.22635   0.35042   0.00000  Uiso   1.00
H197   H     0.92589   0.13707   0.11113   0.00000  Uiso   1.00
H198   H     0.93415   0.22286   0.08601   0.00000  Uiso   1.00
H199   H     0.95601   0.20582   0.13812   0.00000  Uiso   1.00
H200   H     0.90704   0.23532   0.13688   0.00000  Uiso   1.00
H201   H     0.93499   0.15469   0.04066   0.00000  Uiso   1.00
H202   H     0.80314   0.04359   0.18808   0.00000  Uiso   1.00
H203   H     0.86353   0.28974   0.31192   0.00000  Uiso   1.00
H204   H     0.86267   0.04296   0.31232   0.00000  Uiso   1.00
H205   H     0.80398   0.29036   0.18768   0.00000  Uiso   1.00
H206   H     0.73831   0.13499   0.39241   0.00000  Uiso   1.00
H207   H     0.72997   0.22295   0.39968   0.00000  Uiso   1.00
H208   H     0.71263   0.19754   0.34848   0.00000  Uiso   1.00
N209   N     0.83333   0.28402   0.25000   0.00000  Uiso   1.00
N210   N     0.94263   0.28218   0.20637   0.00000  Uiso   1.00
N211   N     0.94081   0.06653   0.31973   0.00000  Uiso   1.00
N212   N     0.72524   0.26743   0.18258   0.00000  Uiso   1.00
N213   N     0.83333   0.04931   0.25000   0.00000  Uiso   1.00
N214   N     0.93564   0.18909   0.36031   0.00000  Uiso   1.00
N215   N     0.72937   0.15018   0.14196   0.00000  Uiso   1.00
N216   N     0.75873   0.15980   0.38103   0.00000  Uiso   1.00
N217   N     0.90661   0.16469   0.11784   0.00000  Uiso   1.00
N218   N     0.68465   0.17893   0.05603   0.00000  Uiso   1.00
N219   N     0.97900   0.14325   0.44222   0.00000  Uiso   1.00
N220   N     0.72683   0.06621   0.31831   0.00000  Uiso   1.00
O221   O     0.77321   0.20625   0.24999   0.00000  Uiso   1.00
O222   O     0.89345   0.12709   0.25000   0.00000  Uiso   1.00
O223   O     0.89345   0.20625   0.25000   0.00000  Uiso   1.00
O224   O     0.77321   0.12709   0.24999   0.00000  Uiso   1.00
O225   O     0.83332   0.20627   0.18513   0.00000  Uiso   1.00
O226   O     0.83334   0.12707   0.31487   0.00000  Uiso   1.00
O227   O     0.83334   0.20627   0.31487   0.00000  Uiso   1.00
O228   O     0.83332   0.12707   0.18513   0.00000  Uiso   1.00
C229   C     0.08748   0.50000   0.25014   0.00000  Uiso   1.00
C230   C     0.04287   0.50021   0.25106   0.00000  Uiso   1.00
C231   C     0.15003   0.35828   0.21560   0.00000  Uiso   1.00
C232   C     0.18331   0.64172   0.28440   0.00000  Uiso   1.00
C233   C     0.18310   0.35792   0.28449   0.00000  Uiso   1.00
C234   C     0.15023   0.64207   0.21551   0.00000  Uiso   1.00
C235   C     0.16661   0.50000   0.16457   0.00000  Uiso   1.00
C236   C     0.16614   0.49993   0.33534   0.00000  Uiso   1.00
C237   C     0.20354   0.50193   0.40616   0.00000  Uiso   1.00
C238   C     0.12813   0.49707   0.09395   0.00000  Uiso   1.00
C239   C     0.16627   0.49974   0.38346   0.00000  Uiso   1.00
C240   C     0.24592   0.50022   0.25103   0.00000  Uiso   1.00
C241   C     0.16569   0.49956   0.11628   0.00000  Uiso   1.00
C242   C     0.12895   0.49673   0.40601   0.00000  Uiso   1.00
C243   C     0.20278   0.49813   0.09329   0.00000  Uiso   1.00
C244   C     0.12867   0.49700   0.45267   0.00000  Uiso   1.00
C245   C     0.20272   0.49549   0.04675   0.00000  Uiso   1.00
C246   C     0.16603   0.49676   0.47628   0.00000  Uiso   1.00
C247   C     0.16529   0.49675   0.02333   0.00000  Uiso   1.00
C248   C     0.20406   0.49686   0.45291   0.00000  Uiso   1.00
C249   C     0.12731   0.49800   0.04683   0.00000  Uiso   1.00
C250   C     0.09168   0.49867   0.47598   0.00000  Uiso   1.00
C251   C     0.09043   0.50015   0.02196   0.00000  Uiso   1.00
C252   C     0.23959   0.49156   0.02337   0.00000  Uiso   1.00
C253   C     0.24009   0.51308   0.38075   0.00000  Uiso   1.00
C254   C     0.09160   0.48980   0.12053   0.00000  Uiso   1.00
C255   C     0.07319   0.53734   0.36944   0.00000  Uiso   1.00
C256   C     0.26024   0.54291   0.11975   0.00000  Uiso   1.00
C257   C     0.05028   0.50678   0.04116   0.00000  Uiso   1.00
C258   C     0.28048   0.48346   0.45766   0.00000  Uiso   1.00
C259   C     0.04307   0.42836   0.29866   0.00000  Uiso   1.00
C260   C     0.29193   0.58161   0.21840   0.00000  Uiso   1.00
C261   C     0.29074   0.42858   0.29938   0.00000  Uiso   1.00
C262   C     0.24079   0.49181   0.47746   0.00000  Uiso   1.00
C263   C     0.04236   0.57260   0.20399   0.00000  Uiso   1.00
C264   C     0.02149   0.46452   0.27397   0.00000  Uiso   1.00
C265   C     0.31235   0.53933   0.23387   0.00000  Uiso   1.00
C266   C     0.31209   0.46458   0.27420   0.00000  Uiso   1.00
C267   C     0.02145   0.53727   0.23053   0.00000  Uiso   1.00
C268   C     0.29065   0.50123   0.25290   0.00000  Uiso   1.00
Cu269  Cu    0.16667   0.54689   0.25000   0.00000  Uiso   1.00
Cu270  Cu    0.16667   0.45311   0.25000   0.00000  Uiso   1.00
H271   H     0.06290   0.50043   0.45850   0.00000  Uiso   1.00
H272   H     0.09481   0.55968   0.35042   0.00000  Uiso   1.00
H273   H     0.25923   0.47040   0.11113   0.00000  Uiso   1.00
H274   H     0.26749   0.55620   0.08601   0.00000  Uiso   1.00
H275   H     0.28935   0.53915   0.13812   0.00000  Uiso   1.00
H276   H     0.24037   0.56866   0.13688   0.00000  Uiso   1.00
H277   H     0.26833   0.48802   0.04066   0.00000  Uiso   1.00
H278   H     0.13647   0.37692   0.18808   0.00000  Uiso   1.00
H279   H     0.19687   0.62307   0.31192   0.00000  Uiso   1.00
H280   H     0.19600   0.37630   0.31232   0.00000  Uiso   1.00
H281   H     0.13731   0.62369   0.18768   0.00000  Uiso   1.00
H282   H     0.07164   0.46833   0.39241   0.00000  Uiso   1.00
H283   H     0.06331   0.55628   0.39968   0.00000  Uiso   1.00
H284   H     0.04596   0.53087   0.34848   0.00000  Uiso   1.00
N285   N     0.16667   0.61736   0.25000   0.00000  Uiso   1.00
N286   N     0.27597   0.61551   0.20637   0.00000  Uiso   1.00
N287   N     0.27414   0.39986   0.31973   0.00000  Uiso   1.00
N288   N     0.05857   0.60076   0.18258   0.00000  Uiso   1.00
N289   N     0.16667   0.38264   0.25000   0.00000  Uiso   1.00
N290   N     0.26897   0.52242   0.36031   0.00000  Uiso   1.00
N291   N     0.06270   0.48351   0.14196   0.00000  Uiso   1.00
N292   N     0.09206   0.49313   0.38103   0.00000  Uiso   1.00
N293   N     0.23995   0.49802   0.11784   0.00000  Uiso   1.00
N294   N     0.01798   0.51226   0.05603   0.00000  Uiso   1.00
N295   N     0.31234   0.47659   0.44222   0.00000  Uiso   1.00
N296   N     0.06017   0.39954   0.31831   0.00000  Uiso   1.00
O297   O     0.10655   0.53958   0.24999   0.00000  Uiso   1.00
O298   O     0.22679   0.46042   0.25000   0.00000  Uiso   1.00
O299   O     0.22679   0.53958   0.25000   0.00000  Uiso   1.00
O300   O     0.10655   0.46042   0.24999   0.00000  Uiso   1.00
O301   O     0.16666   0.53960   0.18513   0.00000  Uiso   1.00
O302   O     0.16668   0.46040   0.31487   0.00000  Uiso   1.00
O303   O     0.16668   0.53960   0.31487   0.00000  Uiso   1.00
O304   O     0.16666   0.46040   0.18513   0.00000  Uiso   1.00
C305   C     0.42082   0.50000   0.25014   0.00000  Uiso   1.00
C306   C     0.37621   0.50021   0.25106   0.00000  Uiso   1.00
C307   C     0.48336   0.35828   0.21560   0.00000  Uiso   1.00
C308   C     0.51664   0.64172   0.28440   0.00000  Uiso   1.00
C309   C     0.51644   0.35792   0.28449   0.00000  Uiso   1.00
C310   C     0.48356   0.64207   0.21551   0.00000  Uiso   1.00
C311   C     0.49994   0.50000   0.16457   0.00000  Uiso   1.00
C312   C     0.49948   0.49993   0.33534   0.00000  Uiso   1.00
C313   C     0.53687   0.50193   0.40616   0.00000  Uiso   1.00
C314   C     0.46147   0.49707   0.09395   0.00000  Uiso   1.00
C315   C     0.49960   0.49974   0.38346   0.00000  Uiso   1.00
C316   C     0.57925   0.50022   0.25103   0.00000  Uiso   1.00
C317   C     0.49903   0.49956   0.11628   0.00000  Uiso   1.00
C318   C     0.46228   0.49673   0.40601   0.00000  Uiso   1.00
C319   C     0.53611   0.49813   0.09329   0.00000  Uiso   1.00
C320   C     0.46201   0.49700   0.45267   0.00000  Uiso   1.00
C321   C     0.53605   0.49549   0.04675   0.00000  Uiso   1.00
C322   C     0.49936   0.49676   0.47628   0.00000  Uiso   1.00
C323   C     0.49862   0.49675   0.02333   0.00000  Uiso   1.00
C324   C     0.53739   0.49686   0.45291   0.00000  Uiso   1.00
C325   C     0.46065   0.49800   0.04683   0.00000  Uiso   1.00
C326   C     0.42501   0.49867   0.47598   0.00000  Uiso   1.00
C327   C     0.42377   0.50015   0.02196   0.00000  Uiso   1.00
C328   C     0.57292   0.49156   0.02337   0.00000  Uiso   1.00
C329   C     0.57342   0.51308   0.38075   0.00000  Uiso   1.00
C330   C     0.42493   0.48980   0.12053   0.00000  Uiso   1.00
C331   C     0.40652   0.53734   0.36944   0.00000  Uiso   1.00
C332   C     0.59357   0.54291   0.11975   0.00000  Uiso   1.00
C333   C     0.38361   0.50678   0.04116   0.00000  Uiso   1.00
C334   C     0.61381   0.48346   0.45766   0.00000  Uiso   1.00
C335   C     0.37640   0.42836   0.29866   0.00000  Uiso   1.00
C336   C     0.62527   0.58161   0.21840   0.00000  Uiso   1.00
C337   C     0.62407   0.42858   0.29938   0.00000  Uiso   1.00
C338   C     0.57412   0.49181   0.47746   0.00000  Uiso   1.00
C339   C     0.37569   0.57260   0.20399   0.00000  Uiso   1.00
C340   C     0.35482   0.46452   0.27397   0.00000  Uiso   1.00
C341   C     0.64568   0.53933   0.23387   0.00000  Uiso   1.00
C342   C     0.64542   0.46458   0.27420   0.00000  Uiso   1.00
C343   C     0.35478   0.53727   0.23053   0.00000  Uiso   1.00
C344   C     0.62398   0.50123   0.25290   0.00000  Uiso   1.00
Cu345  Cu    0.50000   0.54689   0.25000   0.00000  Uiso   1.00
Cu346  Cu    0.50000   0.45311   0.25000   0.00000  Uiso   1.00
H347   H     0.39624   0.50043   0.45850   0.00000  Uiso   1.00
H348   H     0.42814   0.55968   0.35042   0.00000  Uiso   1.00
H349   H     0.59256   0.47040   0.11113   0.00000  Uiso   1.00
H350   H     0.60082   0.55620   0.08601   0.00000  Uiso   1.00
H351   H     0.62268   0.53915   0.13812   0.00000  Uiso   1.00
H352   H     0.57370   0.56866   0.13688   0.00000  Uiso   1.00
H353   H     0.60166   0.48802   0.04066   0.00000  Uiso   1.00
H354   H     0.46980   0.37692   0.18808   0.00000  Uiso   1.00
H355   H     0.53020   0.62307   0.31192   0.00000  Uiso   1.00
H356   H     0.52934   0.37630   0.31232   0.00000  Uiso   1.00
H357   H     0.47064   0.62369   0.18768   0.00000  Uiso   1.00
H358   H     0.40497   0.46833   0.39241   0.00000  Uiso   1.00
H359   H     0.39664   0.55628   0.39968   0.00000  Uiso   1.00
H360   H     0.37929   0.53087   0.34848   0.00000  Uiso   1.00
N361   N     0.50000   0.61736   0.25000   0.00000  Uiso   1.00
N362   N     0.60930   0.61551   0.20637   0.00000  Uiso   1.00
N363   N     0.60747   0.39986   0.31973   0.00000  Uiso   1.00
N364   N     0.39190   0.60076   0.18258   0.00000  Uiso   1.00
N365   N     0.50000   0.38264   0.25000   0.00000  Uiso   1.00
N366   N     0.60231   0.52242   0.36031   0.00000  Uiso   1.00
N367   N     0.39604   0.48351   0.14196   0.00000  Uiso   1.00
N368   N     0.42539   0.49313   0.38103   0.00000  Uiso   1.00
N369   N     0.57328   0.49802   0.11784   0.00000  Uiso   1.00
N370   N     0.35131   0.51226   0.05603   0.00000  Uiso   1.00
N371   N     0.64567   0.47659   0.44222   0.00000  Uiso   1.00
N372   N     0.39350   0.39954   0.31831   0.00000  Uiso   1.00
O373   O     0.43988   0.53958   0.24999   0.00000  Uiso   1.00
O374   O     0.56012   0.46042   0.25000   0.00000  Uiso   1.00
O375   O     0.56012   0.53958   0.25000   0.00000  Uiso   1.00
O376   O     0.43988   0.46042   0.24999   0.00000  Uiso   1.00
O377   O     0.49999   0.53960   0.18513   0.00000  Uiso   1.00
O378   O     0.50001   0.46040   0.31487   0.00000  Uiso   1.00
O379   O     0.50001   0.53960   0.31487   0.00000  Uiso   1.00
O380   O     0.49999   0.46040   0.18513   0.00000  Uiso   1.00
C381   C     0.75415   0.50000   0.25014   0.00000  Uiso   1.00
C382   C     0.70954   0.50021   0.25106   0.00000  Uiso   1.00
C383   C     0.81670   0.35828   0.21560   0.00000  Uiso   1.00
C384   C     0.84997   0.64172   0.28440   0.00000  Uiso   1.00
C385   C     0.84977   0.35792   0.28449   0.00000  Uiso   1.00
C386   C     0.81690   0.64207   0.21551   0.00000  Uiso   1.00
C387   C     0.83328   0.50000   0.16457   0.00000  Uiso   1.00
C388   C     0.83281   0.49993   0.33534   0.00000  Uiso   1.00
C389   C     0.87021   0.50193   0.40616   0.00000  Uiso   1.00
C390   C     0.79480   0.49707   0.09395   0.00000  Uiso   1.00
C391   C     0.83293   0.49974   0.38346   0.00000  Uiso   1.00
C392   C     0.91259   0.50022   0.25103   0.00000  Uiso   1.00
C393   C     0.83236   0.49956   0.11628   0.00000  Uiso   1.00
C394   C     0.79562   0.49673   0.40601   0.00000  Uiso   1.00
C395   C     0.86944   0.49813   0.09329   0.00000  Uiso   1.00
C396   C     0.79534   0.49700   0.45267   0.00000  Uiso   1.00
C397   C     0.86938   0.49549   0.04675   0.00000  Uiso   1.00
C398   C     0.83269   0.49676   0.47628   0.00000  Uiso   1.00
C399   C     0.83196   0.49675   0.02333   0.00000  Uiso   1.00
C400   C     0.87073   0.49686   0.45291   0.00000  Uiso   1.00
C401   C     0.79398   0.49800   0.04683   0.00000  Uiso   1.00
C402   C     0.75834   0.49867   0.47598   0.00000  Uiso   1.00
C403   C     0.75710   0.50015   0.02196   0.00000  Uiso   1.00
C404   C     0.90625   0.49156   0.02337   0.00000  Uiso   1.00
C405   C     0.90675   0.51308   0.38075   0.00000  Uiso   1.00
C406   C     0.75826   0.48980   0.12053   0.00000  Uiso   1.00
C407   C     0.73985   0.53734   0.36944   0.00000  Uiso   1.00
C408   C     0.92690   0.54291   0.11975   0.00000  Uiso   1.00
C409   C     0.71694   0.50678   0.04116   0.00000  Uiso   1.00
C410   C     0.94714   0.48346   0.45766   0.00000  Uiso   1.00
C411   C     0.70973   0.42836   0.29866   0.00000  Uiso   1.00
C412   C     0.95860   0.58161   0.21840   0.00000  Uiso   1.00
C413   C     0.95741   0.42858   0.29938   0.00000  Uiso   1.00
C414   C     0.90746   0.49181   0.47746   0.00000  Uiso   1.00
C415   C     0.70903   0.57260   0.20399   0.00000  Uiso   1.00
C416   C     0.68815   0.46452   0.27397   0.00000  Uiso   1.00
C417   C     0.97901   0.53933   0.23387   0.00000  Uiso   1.00
C418   C     0.97875   0.46458   0.27420   0.00000  Uiso   1.00
C419   C     0.68812   0.53727   0.23053   0.00000  Uiso   1.00
C420   C     0.95732   0.50123   0.25290   0.00000  Uiso   1.00
Cu421  Cu    0.83333   0.54689   0.25000   0.00000  Uiso   1.00
Cu422  Cu    0.83333   0.45311   0.25000   0.00000  Uiso   1.00
H423   H     0.72957   0.50043   0.45850   0.00000  Uiso   1.00
H424   H     0.76148   0.55968   0.35042   0.00000  Uiso   1.00
H425   H     0.92589   0.47040   0.11113   0.00000  Uiso   1.00
H426   H     0.93415   0.55620   0.08601   0.00000  Uiso   1.00
H427   H     0.95601   0.53915   0.13812   0.00000  Uiso   1.00
H428   H     0.90704   0.56866   0.13688   0.00000  Uiso   1.00
H429   H     0.93499   0.48802   0.04066   0.00000  Uiso   1.00
H430   H     0.80314   0.37692   0.18808   0.00000  Uiso   1.00
H431   H     0.86353   0.62307   0.31192   0.00000  Uiso   1.00
H432   H     0.86267   0.37630   0.31232   0.00000  Uiso   1.00
H433   H     0.80398   0.62369   0.18768   0.00000  Uiso   1.00
H434   H     0.73831   0.46833   0.39241   0.00000  Uiso   1.00
H435   H     0.72997   0.55628   0.39968   0.00000  Uiso   1.00
H436   H     0.71263   0.53087   0.34848   0.00000  Uiso   1.00
N437   N     0.83333   0.61736   0.25000   0.00000  Uiso   1.00
N438   N     0.94263   0.61551   0.20637   0.00000  Uiso   1.00
N439   N     0.94081   0.39986   0.31973   0.00000  Uiso   1.00
N440   N     0.72524   0.60076   0.18258   0.00000  Uiso   1.00
N441   N     0.83333   0.38264   0.25000   0.00000  Uiso   1.00
N442   N     0.93564   0.52242   0.36031   0.00000  Uiso   1.00
N443   N     0.72937   0.48351   0.14196   0.00000  Uiso   1.00
N444   N     0.75873   0.49313   0.38103   0.00000  Uiso   1.00
N445   N     0.90661   0.49802   0.11784   0.00000  Uiso   1.00
N446   N     0.68465   0.51226   0.05603   0.00000  Uiso   1.00
N447   N     0.97900   0.47659   0.44222   0.00000  Uiso   1.00
N448   N     0.72683   0.39954   0.31831   0.00000  Uiso   1.00
O449   O     0.77321   0.53958   0.24999   0.00000  Uiso   1.00
O450   O     0.89345   0.46042   0.25000   0.00000  Uiso   1.00
O451   O     0.89345   0.53958   0.25000   0.00000  Uiso   1.00
O452   O     0.77321   0.46042   0.24999   0.00000  Uiso   1.00
O453   O     0.83332   0.53960   0.18513   0.00000  Uiso   1.00
O454   O     0.83334   0.46040   0.31487   0.00000  Uiso   1.00
O455   O     0.83334   0.53960   0.31487   0.00000  Uiso   1.00
O456   O     0.83332   0.46040   0.18513   0.00000  Uiso   1.00
C457   C     0.08748   0.83334   0.25014   0.00000  Uiso   1.00
C458   C     0.04287   0.83355   0.25106   0.00000  Uiso   1.00
C459   C     0.15003   0.69161   0.21560   0.00000  Uiso   1.00
C460   C     0.18331   0.97505   0.28440   0.00000  Uiso   1.00
C461   C     0.18310   0.69126   0.28449   0.00000  Uiso   1.00
C462   C     0.15023   0.97540   0.21551   0.00000  Uiso   1.00
C463   C     0.16661   0.83333   0.16457   0.00000  Uiso   1.00
C464   C     0.16614   0.83326   0.33534   0.00000  Uiso   1.00
C465   C     0.20354   0.83526   0.40616   0.00000  Uiso   1.00
C466   C     0.12813   0.83040   0.09395   0.00000  Uiso   1.00
C467   C     0.16627   0.83308   0.38346   0.00000  Uiso   1.00
C468   C     0.24592   0.83355   0.25103   0.00000  Uiso   1.00
C469   C     0.16569   0.83289   0.11628   0.00000  Uiso   1.00
C470   C     0.12895   0.83006   0.40601   0.00000  Uiso   1.00
C471   C     0.20278   0.83146   0.09329   0.00000  Uiso   1.00
C472   C     0.12867   0.83033   0.45267   0.00000  Uiso   1.00
C473   C     0.20272   0.82882   0.04675   0.00000  Uiso   1.00
C474   C     0.16603   0.83009   0.47628   0.00000  Uiso   1.00
C475   C     0.16529   0.83008   0.02333   0.00000  Uiso   1.00
C476   C     0.20406   0.83019   0.45291   0.00000  Uiso   1.00
C477   C     0.12731   0.83134   0.04683   0.00000  Uiso   1.00
C478   C     0.09168   0.83201   0.47598   0.00000  Uiso   1.00
C479   C     0.09043   0.83348   0.02196   0.00000  Uiso   1.00
C480   C     0.23959   0.82489   0.02337   0.00000  Uiso   1.00
C481   C     0.24009   0.84641   0.38075   0.00000  Uiso   1.00
C482   C     0.09160   0.82314   0.12053   0.00000  Uiso   1.00
C483   C     0.07319   0.87067   0.36944   0.00000  Uiso   1.00
C484   C     0.26024   0.87624   0.11975   0.00000  Uiso   1.00
C485   C     0.05028   0.84011   0.04116   0.00000  Uiso   1.00
C486   C     0.28048   0.81679   0.45766   0.00000  Uiso   1.00
C487   C     0.04307   0.76169   0.29866   0.00000  Uiso   1.00
C488   C     0.29193   0.91494   0.21840   0.00000  Uiso   1.00
C489   C     0.29074   0.76192   0.29938   0.00000  Uiso   1.00
C490   C     0.24079   0.82514   0.47746   0.00000  Uiso   1.00
C491   C     0.04236   0.90593   0.20399   0.00000  Uiso   1.00
C492   C     0.02149   0.79785   0.27397   0.00000  Uiso   1.00
C493   C     0.31235   0.87266   0.23387   0.00000  Uiso   1.00
C494   C     0.31209   0.79791   0.27420   0.00000  Uiso   1.00
C495   C     0.02145   0.87061   0.23053   0.00000  Uiso   1.00
C496   C     0.29065   0.83457   0.25290   0.00000  Uiso   1.00
Cu497  Cu    0.16667   0.88022   0.25000   0.00000  Uiso   1.00
Cu498  Cu    0.16667   0.78645   0.25000   0.00000  Uiso   1.00
H499   H     0.06290   0.83376   0.45850   0.00000  Uiso   1.00
H500   H     0.09481   0.89301   0.35042   0.00000  Uiso   1.00
H501   H     0.25923   0.80373   0.11113   0.00000  Uiso   1.00
H502   H     0.26749   0.88953   0.08601   0.00000  Uiso   1.00
H503   H     0.28935   0.87248   0.13812   0.00000  Uiso   1.00
H504   H     0.24037   0.90199   0.13688   0.00000  Uiso   1.00
H505   H     0.26833   0.82135   0.04066   0.00000  Uiso   1.00
H506   H     0.13647   0.71026   0.18808   0.00000  Uiso   1.00
H507   H     0.19687   0.95640   0.31192   0.00000  Uiso   1.00
H508   H     0.19600   0.70963   0.31232   0.00000  Uiso   1.00
H509   H     0.13731   0.95703   0.18768   0.00000  Uiso   1.00
H510   H     0.07164   0.80166   0.39241   0.00000  Uiso   1.00
H511   H     0.06331   0.88962   0.39968   0.00000  Uiso   1.00
H512   H     0.04596   0.86420   0.34848   0.00000  Uiso   1.00
N513   N     0.16667   0.95069   0.25000   0.00000  Uiso   1.00
N514   N     0.27597   0.94884   0.20637   0.00000  Uiso   1.00
N515   N     0.27414   0.73320   0.31973   0.00000  Uiso   1.00
N516   N     0.05857   0.93409   0.18258   0.00000  Uiso   1.00
N517   N     0.16667   0.71598   0.25000   0.00000  Uiso   1.00
N518   N     0.26897   0.85575   0.36031   0.00000  Uiso   1.00
N519   N     0.06270   0.81684   0.14196   0.00000  Uiso   1.00
N520   N     0.09206   0.82647   0.38103   0.00000  Uiso   1.00
N521   N     0.23995   0.83135   0.11784   0.00000  Uiso   1.00
N522   N     0.01798   0.84559   0.05603   0.00000  Uiso   1.00
N523   N     0.31234   0.80992   0.44222   0.00000  Uiso   1.00
N524   N     0.06017   0.73288   0.31831   0.00000  Uiso   1.00
O525   O     0.10655   0.87291   0.24999   0.00000  Uiso   1.00
O526   O     0.22679   0.79375   0.25000   0.00000  Uiso   1.00
O527   O     0.22679   0.87291   0.25000   0.00000  Uiso   1.00
O528   O     0.10655   0.79375   0.24999   0.00000  Uiso   1.00
O529   O     0.16666   0.87293   0.18513   0.00000  Uiso   1.00
O530   O     0.16668   0.79373   0.31487   0.00000  Uiso   1.00
O531   O     0.16668   0.87293   0.31487   0.00000  Uiso   1.00
O532   O     0.16666   0.79373   0.18513   0.00000  Uiso   1.00
C533   C     0.42082   0.83334   0.25014   0.00000  Uiso   1.00
C534   C     0.37621   0.83355   0.25106   0.00000  Uiso   1.00
C535   C     0.48336   0.69161   0.21560   0.00000  Uiso   1.00
C536   C     0.51664   0.97505   0.28440   0.00000  Uiso   1.00
C537   C     0.51644   0.69126   0.28449   0.00000  Uiso   1.00
C538   C     0.48356   0.97540   0.21551   0.00000  Uiso   1.00
C539   C     0.49994   0.83333   0.16457   0.00000  Uiso   1.00
C540   C     0.49948   0.83326   0.33534   0.00000  Uiso   1.00
C541   C     0.53687   0.83526   0.40616   0.00000  Uiso   1.00
C542   C     0.46147   0.83040   0.09395   0.00000  Uiso   1.00
C543   C     0.49960   0.83308   0.38346   0.00000  Uiso   1.00
C544   C     0.57925   0.83355   0.25103   0.00000  Uiso   1.00
C545   C     0.49903   0.83289   0.11628   0.00000  Uiso   1.00
C546   C     0.46228   0.83006   0.40601   0.00000  Uiso   1.00
C547   C     0.53611   0.83146   0.09329   0.00000  Uiso   1.00
C548   C     0.46201   0.83033   0.45267   0.00000  Uiso   1.00
C549   C     0.53605   0.82882   0.04675   0.00000  Uiso   1.00
C550   C     0.49936   0.83009   0.47628   0.00000  Uiso   1.00
C551   C     0.49862   0.83008   0.02333   0.00000  Uiso   1.00
C552   C     0.53739   0.83019   0.45291   0.00000  Uiso   1.00
C553   C     0.46065   0.83134   0.04683   0.00000  Uiso   1.00
C554   C     0.42501   0.83201   0.47598   0.00000  Uiso   1.00
C555   C     0.42377   0.83348   0.02196   0.00000  Uiso   1.00
C556   C     0.57292   0.82489   0.02337   0.00000  Uiso   1.00
C557   C     0.57342   0.84641   0.38075   0.00000  Uiso   1.00
C558   C     0.42493   0.82314   0.12053   0.00000  Uiso   1.00
C559   C     0.40652   0.87067   0.36944   0.00000  Uiso   1.00
C560   C     0.59357   0.87624   0.11975   0.00000  Uiso   1.00
C561   C     0.38361   0.84011   0.04116   0.00000  Uiso   1.00
C562   C     0.61381   0.81679   0.45766   0.00000  Uiso   1.00
C563   C     0.37640   0.76169   0.29866   0.00000  Uiso   1.00
C564   C     0.62527   0.91494   0.21840   0.00000  Uiso   1.00
C565   C     0.62407   0.76192   0.29938   0.00000  Uiso   1.00
C566   C     0.57412   0.82514   0.47746   0.00000  Uiso   1.00
C567   C     0.37569   0.90593   0.20399   0.00000  Uiso   1.00
C568   C     0.35482   0.79785   0.27397   0.00000  Uiso   1.00
C569   C     0.64568   0.87266   0.23387   0.00000  Uiso   1.00
C570   C     0.64542   0.79791   0.27420   0.00000  Uiso   1.00
C571   C     0.35478   0.87061   0.23053   0.00000  Uiso   1.00
C572   C     0.62398   0.83457   0.25290   0.00000  Uiso   1.00
Cu573  Cu    0.50000   0.88022   0.25000   0.00000  Uiso   1.00
Cu574  Cu    0.50000   0.78645   0.25000   0.00000  Uiso   1.00
H575   H     0.39624   0.83376   0.45850   0.00000  Uiso   1.00
H576   H     0.42814   0.89301   0.35042   0.00000  Uiso   1.00
H577   H     0.59256   0.80373   0.11113   0.00000  Uiso   1.00
H578   H     0.60082   0.88953   0.08601   0.00000  Uiso   1.00
H579   H     0.62268   0.87248   0.13812   0.00000  Uiso   1.00
H580   H     0.57370   0.90199   0.13688   0.00000  Uiso   1.00
H581   H     0.60166   0.82135   0.04066   0.00000  Uiso   1.00
H582   H     0.46980   0.71026   0.18808   0.00000  Uiso   1.00
H583   H     0.53020   0.95640   0.31192   0.00000  Uiso   1.00
H584   H     0.52934   0.70963   0.31232   0.00000  Uiso   1.00
H585   H     0.47064   0.95703   0.18768   0.00000  Uiso   1.00
H586   H     0.40497   0.80166   0.39241   0.00000  Uiso   1.00
H587   H     0.39664   0.88962   0.39968   0.00000  Uiso   1.00
H588   H     0.37929   0.86420   0.34848   0.00000  Uiso   1.00
N589   N     0.50000   0.95069   0.25000   0.00000  Uiso   1.00
N590   N     0.60930   0.94884   0.20637   0.00000  Uiso   1.00
N591   N     0.60747   0.73320   0.31973   0.00000  Uiso   1.00
N592   N     0.39190   0.93409   0.18258   0.00000  Uiso   1.00
N593   N     0.50000   0.71598   0.25000   0.00000  Uiso   1.00
N594   N     0.60231   0.85575   0.36031   0.00000  Uiso   1.00
N595   N     0.39604   0.81684   0.14196   0.00000  Uiso   1.00
N596   N     0.42539   0.82647   0.38103   0.00000  Uiso   1.00
N597   N     0.57328   0.83135   0.11784   0.00000  Uiso   1.00
N598   N     0.35131   0.84559   0.05603   0.00000  Uiso   1.00
N599   N     0.64567   0.80992   0.44222   0.00000  Uiso   1.00
N600   N     0.39350   0.73288   0.31831   0.00000  Uiso   1.00
O601   O     0.43988   0.87291   0.24999   0.00000  Uiso   1.00
O602   O     0.56012   0.79375   0.25000   0.00000  Uiso   1.00
O603   O     0.56012   0.87291   0.25000   0.00000  Uiso   1.00
O604   O     0.43988   0.79375   0.24999   0.00000  Uiso   1.00
O605   O     0.49999   0.87293   0.18513   0.00000  Uiso   1.00
O606   O     0.50001   0.79373   0.31487   0.00000  Uiso   1.00
O607   O     0.50001   0.87293   0.31487   0.00000  Uiso   1.00
O608   O     0.49999   0.79373   0.18513   0.00000  Uiso   1.00
C609   C     0.75415   0.83334   0.25014   0.00000  Uiso   1.00
C610   C     0.70954   0.83355   0.25106   0.00000  Uiso   1.00
C611   C     0.81670   0.69161   0.21560   0.00000  Uiso   1.00
C612   C     0.84997   0.97505   0.28440   0.00000  Uiso   1.00
C613   C     0.84977   0.69126   0.28449   0.00000  Uiso   1.00
C614   C     0.81690   0.97540   0.21551   0.00000  Uiso   1.00
C615   C     0.83328   0.83333   0.16457   0.00000  Uiso   1.00
C616   C     0.83281   0.83326   0.33534   0.00000  Uiso   1.00
C617   C     0.87021   0.83526   0.40616   0.00000  Uiso   1.00
C618   C     0.79480   0.83040   0.09395   0.00000  Uiso   1.00
C619   C     0.83293   0.83308   0.38346   0.00000  Uiso   1.00
C620   C     0.91259   0.83355   0.25103   0.00000  Uiso   1.00
C621   C     0.83236   0.83289   0.11628   0.00000  Uiso   1.00
C622   C     0.79562   0.83006   0.40601   0.00000  Uiso   1.00
C623   C     0.86944   0.83146   0.09329   0.00000  Uiso   1.00
C624   C     0.79534   0.83033   0.45267   0.00000  Uiso   1.00
C625   C     0.86938   0.82882   0.04675   0.00000  Uiso   1.00
C626   C     0.83269   0.83009   0.47628   0.00000  Uiso   1.00
C627   C     0.83196   0.83008   0.02333   0.00000  Uiso   1.00
C628   C     0.87073   0.83019   0.45291   0.00000  Uiso   1.00
C629   C     0.79398   0.83134   0.04683   0.00000  Uiso   1.00
C630   C     0.75834   0.83201   0.47598   0.00000  Uiso   1.00
C631   C     0.75710   0.83348   0.02196   0.00000  Uiso   1.00
C632   C     0.90625   0.82489   0.02337   0.00000  Uiso   1.00
C633   C     0.90675   0.84641   0.38075   0.00000  Uiso   1.00
C634   C     0.75826   0.82314   0.12053   0.00000  Uiso   1.00
C635   C     0.73985   0.87067   0.36944   0.00000  Uiso   1.00
C636   C     0.92690   0.87624   0.11975   0.00000  Uiso   1.00
C637   C     0.71694   0.84011   0.04116   0.00000  Uiso   1.00
C638   C     0.94714   0.81679   0.45766   0.00000  Uiso   1.00
C639   C     0.70973   0.76169   0.29866   0.00000  Uiso   1.00
C640   C     0.95860   0.91494   0.21840   0.00000  Uiso   1.00
C641   C     0.95741   0.76192   0.29938   0.00000  Uiso   1.00
C642   C     0.90746   0.82514   0.47746   0.00000  Uiso   1.00
C643   C     0.70903   0.90593   0.20399   0.00000  Uiso   1.00
C644   C     0.68815   0.79785   0.27397   0.00000  Uiso   1.00
C645   C     0.97901   0.87266   0.23387   0.00000  Uiso   1.00
C646   C     0.97875   0.79791   0.27420   0.00000  Uiso   1.00
C647   C     0.68812   0.87061   0.23053   0.00000  Uiso   1.00
C648   C     0.95732   0.83457   0.25290   0.00000  Uiso   1.00
Cu649  Cu    0.83333   0.88022   0.25000   0.00000  Uiso   1.00
Cu650  Cu    0.83333   0.78645   0.25000   0.00000  Uiso   1.00
H651   H     0.72957   0.83376   0.45850   0.00000  Uiso   1.00
H652   H     0.76148   0.89301   0.35042   0.00000  Uiso   1.00
H653   H     0.92589   0.80373   0.11113   0.00000  Uiso   1.00
H654   H     0.93415   0.88953   0.08601   0.00000  Uiso   1.00
H655   H     0.95601   0.87248   0.13812   0.00000  Uiso   1.00
H656   H     0.90704   0.90199   0.13688   0.00000  Uiso   1.00
H657   H     0.93499   0.82135   0.04066   0.00000  Uiso   1.00
H658   H     0.80314   0.71026   0.18808   0.00000  Uiso   1.00
H659   H     0.86353   0.95640   0.31192   0.00000  Uiso   1.00
H660   H     0.86267   0.70963   0.31232   0.00000  Uiso   1.00
H661   H     0.80398   0.95703   0.18768   0.00000  Uiso   1.00
H662   H     0.73831   0.80166   0.39241   0.00000  Uiso   1.00
H663   H     0.72997   0.88962   0.39968   0.00000  Uiso   1.00
H664   H     0.71263   0.86420   0.34848   0.00000  Uiso   1.00
N665   N     0.83333   0.95069   0.25000   0.00000  Uiso   1.00
N666   N     0.94263   0.94884   0.20637   0.00000  Uiso   1.00
N667   N     0.94081   0.73320   0.31973   0.00000  Uiso   1.00
N668   N     0.72524   0.93409   0.18258   0.00000  Uiso   1.00
N669   N     0.83333   0.71598   0.25000   0.00000  Uiso   1.00
N670   N     0.93564   0.85575   0.36031   0.00000  Uiso   1.00
N671   N     0.72937   0.81684   0.14196   0.00000  Uiso   1.00
N672   N     0.75873   0.82647   0.38103   0.00000  Uiso   1.00
N673   N     0.90661   0.83135   0.11784   0.00000  Uiso   1.00
N674   N     0.68465   0.84559   0.05603   0.00000  Uiso   1.00
N675   N     0.97900   0.80992   0.44222   0.00000  Uiso   1.00
N676   N     0.72683   0.73288   0.31831   0.00000  Uiso   1.00
O677   O     0.77321   0.87291   0.24999   0.00000  Uiso   1.00
O678   O     0.89345   0.79375   0.25000   0.00000  Uiso   1.00
O679   O     0.89345   0.87291   0.25000   0.00000  Uiso   1.00
O680   O     0.77321   0.79375   0.24999   0.00000  Uiso   1.00
O681   O     0.83332   0.87293   0.18513   0.00000  Uiso   1.00
O682   O     0.83334   0.79373   0.31487   0.00000  Uiso   1.00
O683   O     0.83334   0.87293   0.31487   0.00000  Uiso   1.00
O684   O     0.83332   0.79373   0.18513   0.00000  Uiso   1.00
C685   C     0.08748   0.16667   0.75014   0.00000  Uiso   1.00
C686   C     0.04287   0.16688   0.75106   0.00000  Uiso   1.00
C687   C     0.15003   0.02494   0.71560   0.00000  Uiso   1.00
C688   C     0.18331   0.30838   0.78440   0.00000  Uiso   1.00
C689   C     0.18310   0.02459   0.78449   0.00000  Uiso   1.00
C690   C     0.15023   0.30874   0.71551   0.00000  Uiso   1.00
C691   C     0.16661   0.16667   0.66457   0.00000  Uiso   1.00
C692   C     0.16614   0.16659   0.83534   0.00000  Uiso   1.00
C693   C     0.20354   0.16859   0.90616   0.00000  Uiso   1.00
C694   C     0.12813   0.16373   0.59395   0.00000  Uiso   1.00
C695   C     0.16627   0.16641   0.88346   0.00000  Uiso   1.00
C696   C     0.24592   0.16688   0.75103   0.00000  Uiso   1.00
C697   C     0.16569   0.16623   0.61628   0.00000  Uiso   1.00
C698   C     0.12895   0.16339   0.90601   0.00000  Uiso   1.00
C699   C     0.20278   0.16479   0.59329   0.00000  Uiso   1.00
C700   C     0.12867   0.16366   0.95267   0.00000  Uiso   1.00
C701   C     0.20272   0.16216   0.54675   0.00000  Uiso   1.00
C702   C     0.16603   0.16342   0.97628   0.00000  Uiso   1.00
C703   C     0.16529   0.16341   0.52333   0.00000  Uiso   1.00
C704   C     0.20406   0.16353   0.95291   0.00000  Uiso   1.00
C705   C     0.12731   0.16467   0.54683   0.00000  Uiso   1.00
C706   C     0.09168   0.16534   0.97598   0.00000  Uiso   1.00
C707   C     0.09043   0.16682   0.52196   0.00000  Uiso   1.00
C708   C     0.23959   0.15823   0.52337   0.00000  Uiso   1.00
C709   C     0.24009   0.17974   0.88075   0.00000  Uiso   1.00
C710   C     0.09160   0.15647   0.62053   0.00000  Uiso   1.00
C711   C     0.07319   0.20401   0.86944   0.00000  Uiso   1.00
C712   C     0.26024   0.20957   0.61975   0.00000  Uiso   1.00
C713   C     0.05028   0.17345   0.54116   0.00000  Uiso   1.00
C714   C     0.28048   0.15013   0.95766   0.00000  Uiso   1.00
C715   C     0.04307   0.09503   0.79866   0.00000  Uiso   1.00
C716   C     0.29193   0.24827   0.71840   0.00000  Uiso   1.00
C717   C     0.29074   0.09525   0.79938   0.00000  Uiso   1.00
C718   C     0.24079   0.15847   0.97746   0.00000  Uiso   1.00
C719   C     0.04236   0.23927   0.70399   0.00000  Uiso   1.00
C720   C     0.02149   0.13119   0.77397   0.00000  Uiso   1.00
C721   C     0.31235   0.20599   0.73387   0.00000  Uiso   1.00
C722   C     0.31209   0.13125   0.77420   0.00000  Uiso   1.00
C723   C     0.02145   0.20394   0.73053   0.00000  Uiso   1.00
C724   C     0.29065   0.16790   0.75290   0.00000  Uiso   1.00
Cu725  Cu    0.16667   0.21355   0.75000   0.00000  Uiso   1.00
Cu726  Cu    0.16667   0.11978   0.75000   0.00000  Uiso   1.00
H727   H     0.06290   0.16710   0.95850   0.00000  Uiso   1.00
H728   H     0.09481   0.22635   0.85042   0.00000  Uiso   1.00
H729   H     0.25923   0.13707   0.61113   0.00000  Uiso   1.00
H730   H     0.26749   0.22286   0.58601   0.00000  Uiso   1.00
H731   H     0.28935   0.20582   0.63812   0.00000  Uiso   1.00
H732   H     0.24037   0.23532   0.63688   0.00000  Uiso   1.00
H733   H     0.26833   0.15469   0.54066   0.00000  Uiso   1.00
H734   H     0.13647   0.04359   0.68808   0.00000  Uiso   1.00
H735   H     0.19687   0.28974   0.81192   0.00000  Uiso   1.00
H736   H     0.19600   0.04296   0.81232   0.00000  Uiso   1.00
H737   H     0.13731   0.29036   0.68768   0.00000  Uiso   1.00
H738   H     0.07164   0.13499   0.89241   0.00000  Uiso   1.00
H739   H     0.06331   0.22295   0.89968   0.00000  Uiso   1.00
H740   H     0.04596   0.19754   0.84848   0.00000  Uiso   1.00
N741   N     0.16667   0.28402   0.75000   0.00000  Uiso   1.00
N742   N     0.27597   0.28218   0.70637   0.00000  Uiso   1.00
N743   N     0.27414   0.06653   0.81973   0.00000  Uiso   1.00
N744   N     0.05857   0.26743   0.68258   0.00000  Uiso   1.00
N745   N     0.16667   0.04931   0.75000   0.00000  Uiso   1.00
N746   N     0.26897   0.18909   0.86031   0.00000  Uiso   1.00
N747   N     0.06270   0.15018   0.64196   0.00000  Uiso   1.00
N748   N     0.09206   0.15980   0.88103   0.00000  Uiso   1.00
N749   N     0.23995   0.16469   0.61784   0.00000  Uiso   1.00
N750   N     0.01798   0.17893   0.55603   0.00000  Uiso   1.00
N751   N     0.31234   0.14325   0.94222   0.00000  Uiso   1.00
N752   N     0.06017   0.06621   0.81831   0.00000  Uiso   1.00
O753   O     0.10655   0.20625   0.74999   0.00000  Uiso   1.00
O754   O     0.22679   0.12709   0.75000   0.00000  Uiso   1.00
O755   O     0.22679   0.20625   0.75000   0.00000  Uiso   1.00
O756   O     0.10655   0.12709   0.74999   0.00000  Uiso   1.00
O757   O     0.16666   0.20627   0.68513   0.00000  Uiso   1.00
O758   O     0.16668   0.12707   0.81487   0.00000  Uiso   1.00
O759   O     0.16668   0.20627   0.81487   0.00000  Uiso   1.00
O760   O     0.16666   0.12707   0.68513   0.00000  Uiso   1.00
C761   C     0.42082   0.16667   0.75014   0.00000  Uiso   1.00
C762   C     0.37621   0.16688   0.75106   0.00000  Uiso   1.00
C763   C     0.48336   0.02494   0.71560   0.00000  Uiso   1.00
C764   C     0.51664   0.30838   0.78440   0.00000  Uiso   1.00
C765   C     0.51644   0.02459   0.78449   0.00000  Uiso   1.00
C766   C     0.48356   0.30874   0.71551   0.00000  Uiso   1.00
C767   C     0.49994   0.16667   0.66457   0.00000  Uiso   1.00
C768   C     0.49948   0.16659   0.83534   0.00000  Uiso   1.00
C769   C     0.53687   0.16859   0.90616   0.00000  Uiso   1.00
C770   C     0.46147   0.16373   0.59395   0.00000  Uiso   1.00
C771   C     0.49960   0.16641   0.88346   0.00000  Uiso   1.00
C772   C     0.57925   0.16688   0.75103   0.00000  Uiso   1.00
C773   C     0.49903   0.16623   0.61628   0.00000  Uiso   1.00
C774   C     0.46228   0.16339   0.90601   0.00000  Uiso   1.00
C775   C     0.53611   0.16479   0.59329   0.00000  Uiso   1.00
C776   C     0.46201   0.16366   0.95267   0.00000  Uiso   1.00
C777   C     0.53605   0.16216   0.54675   0.00000  Uiso   1.00
C778   C     0.49936   0.16342   0.97628   0.00000  Uiso   1.00
C779   C     0.49862   0.16341   0.52333   0.00000  Uiso   1.00
C780   C     0.53739   0.16353   0.95291   0.00000  Uiso   1.00
C781   C     0.46065   0.16467   0.54683   0.00000  Uiso   1.00
C782   C     0.42501   0.16534   0.97598   0.00000  Uiso   1.00
C783   C     0.42377   0.16682   0.52196   0.00000  Uiso   1.00
C784   C     0.57292   0.15823   0.52337   0.00000  Uiso   1.00
C785   C     0.57342   0.17974   0.88075   0.00000  Uiso   1.00
C786   C     0.42493   0.15647   0.62053   0.00000  Uiso   1.00
C787   C     0.40652   0.20401   0.86944   0.00000  Uiso   1.00
C788   C     0.59357   0.20957   0.61975   0.00000  Uiso   1.00
C789   C     0.38361   0.17345   0.54116   0.00000  Uiso   1.00
C790   C     0.61381   0.15013   0.95766   0.00000  Uiso   1.00
C791   C     0.37640   0.09503   0.79866   0.00000  Uiso   1.00
C792   C     0.62527   0.24827   0.71840   0.00000  Uiso   1.00
C793   C     0.62407   0.09525   0.79938   0.00000  Uiso   1.00
C794   C     0.57412   0.15847   0.97746   0.00000  Uiso   1.00
C795   C     0.37569   0.23927   0.70399   0.00000  Uiso   1.00
C796   C     0.35482   0.13119   0.77397   0.00000  Uiso   1.00
C797   C     0.64568   0.20599   0.73387   0.00000  Uiso   1.00
C798   C     0.64542   0.13125   0.77420   0.00000  Uiso   1.00
C799   C     0.35478   0.20394   0.73053   0.00000  Uiso   1.00
C800   C     0.62398   0.16790   0.75290   0.00000  Uiso   1.00
Cu801  Cu    0.50000   0.21355   0.75000   0.00000  Uiso   1.00
Cu802  Cu    0.50000   0.11978   0.75000   0.00000  Uiso   1.00
H803   H     0.39624   0.16710   0.95850   0.00000  Uiso   1.00
H804   H     0.42814   0.22635   0.85042   0.00000  Uiso   1.00
H805   H     0.59256   0.13707   0.61113   0.00000  Uiso   1.00
H806   H     0.60082   0.22286   0.58601   0.00000  Uiso   1.00
H807   H     0.62268   0.20582   0.63812   0.00000  Uiso   1.00
H808   H     0.57370   0.23532   0.63688   0.00000  Uiso   1.00
H809   H     0.60166   0.15469   0.54066   0.00000  Uiso   1.00
H810   H     0.46980   0.04359   0.68808   0.00000  Uiso   1.00
H811   H     0.53020   0.28974   0.81192   0.00000  Uiso   1.00
H812   H     0.52934   0.04296   0.81232   0.00000  Uiso   1.00
H813   H     0.47064   0.29036   0.68768   0.00000  Uiso   1.00
H814   H     0.40497   0.13499   0.89241   0.00000  Uiso   1.00
H815   H     0.39664   0.22295   0.89968   0.00000  Uiso   1.00
H816   H     0.37929   0.19754   0.84848   0.00000  Uiso   1.00
N817   N     0.50000   0.28402   0.75000   0.00000  Uiso   1.00
N818   N     0.60930   0.28218   0.70637   0.00000  Uiso   1.00
N819   N     0.60747   0.06653   0.81973   0.00000  Uiso   1.00
N820   N     0.39190   0.26743   0.68258   0.00000  Uiso   1.00
N821   N     0.50000   0.04931   0.75000   0.00000  Uiso   1.00
N822   N     0.60231   0.18909   0.86031   0.00000  Uiso   1.00
N823   N     0.39604   0.15018   0.64196   0.00000  Uiso   1.00
N824   N     0.42539   0.15980   0.88103   0.00000  Uiso   1.00
N825   N     0.57328   0.16469   0.61784   0.00000  Uiso   1.00
N826   N     0.35131   0.17893   0.55603   0.00000  Uiso   1.00
N827   N     0.64567   0.14325   0.94222   0.00000  Uiso   1.00
N828   N     0.39350   0.06621   0.81831   0.00000  Uiso   1.00
O829   O     0.43988   0.20625   0.74999   0.00000  Uiso   1.00
O830   O     0.56012   0.12709   0.75000   0.00000  Uiso   1.00
O831   O     0.56012   0.20625   0.75000   0.00000  Uiso   1.00
O832   O     0.43988   0.12709   0.74999   0.00000  Uiso   1.00
O833   O     0.49999   0.20627   0.68513   0.00000  Uiso   1.00
O834   O     0.50001   0.12707   0.81487   0.00000  Uiso   1.00
O835   O     0.50001   0.20627   0.81487   0.00000  Uiso   1.00
O836   O     0.49999   0.12707   0.68513   0.00000  Uiso   1.00
C837   C     0.75415   0.16667   0.75014   0.00000  Uiso   1.00
C838   C     0.70954   0.16688   0.75106   0.00000  Uiso   1.00
C839   C     0.81670   0.02494   0.71560   0.00000  Uiso   1.00
C840   C     0.84997   0.30838   0.78440   0.00000  Uiso   1.00
C841   C     0.84977   0.02459   0.78449   0.00000  Uiso   1.00
C842   C     0.81690   0.30874   0.71551   0.00000  Uiso   1.00
C843   C     0.83328   0.16667   0.66457   0.00000  Uiso   1.00
C844   C     0.83281   0.16659   0.83534   0.00000  Uiso   1.00
C845   C     0.87021   0.16859   0.90616   0.00000  Uiso   1.00
C846   C     0.79480   0.16373   0.59395   0.00000  Uiso   1.00
C847   C     0.83293   0.16641   0.88346   0.00000  Uiso   1.00
C848   C     0.91259   0.16688   0.75103   0.00000  Uiso   1.00
C849   C     0.83236   0.16623   0.61628   0.00000  Uiso   1.00
C850   C     0.79562   0.16339   0.90601   0.00000  Uiso   1.00
C851   C     0.86944   0.16479   0.59329   0.00000  Uiso   1.00
C852   C     0.79534   0.16366   0.95267   0.00000  Uiso   1.00
C853   C     0.86938   0.16216   0.54675   0.00000  Uiso   1.00
C854   C     0.83269   0.16342   0.97628   0.00000  Uiso   1.00
C855   C     0.83196   0.16341   0.52333   0.00000  Uiso   1.00
C856   C     0.87073   0.16353   0.95291   0.00000  Uiso   1.00
C857   C     0.79398   0.16467   0.54683   0.00000  Uiso   1.00
C858   C     0.75834   0.16534   0.97598   0.00000  Uiso   1.00
C859   C     0.75710   0.16682   0.52196   0.00000  Uiso   1.00
C860   C     0.90625   0.15823   0.52337   0.00000  Uiso   1.00
C861   C     0.90675   0.17974   0.88075   0.00000  Uiso   1.00
C862   C     0.75826   0.15647   0.62053   0.00000  Uiso   1.00
C863   C     0.73985   0.20401   0.86944   0.00000  Uiso   1.00
C864   C     0.92690   0.20957   0.61975   0.00000  Uiso   1.00
C865   C     0.71694   0.17345   0.54116   0.00000  Uiso   1.00
C866   C     0.94714   0.15013   0.95766   0.00000  Uiso   1.00
C867   C     0.70973   0.09503   0.79866   0.00000  Uiso   1.00
C868   C     0.95860   0.24827   0.71840   0.00000  Uiso   1.00
C869   C     0.95741   0.09525   0.79938   0.00000  Uiso   1.00
C870   C     0.90746   0.15847   0.97746   0.00000  Uiso   1.00
C871   C     0.70903   0.23927   0.70399   0.00000  Uiso   1.00
C872   C     0.68815   0.13119   0.77397   0.00000  Uiso   1.00
C873   C     0.97901   0.20599   0.73387   0.00000  Uiso   1.00
C874   C     0.97875   0.13125   0.77420   0.00000  Uiso   1.00
C875   C     0.68812   0.20394   0.73053   0.00000  Uiso   1.00
C876   C     0.95732   0.16790   0.75290   0.00000  Uiso   1.00
Cu877  Cu    0.83333   0.21355   0.75000   0.00000  Uiso   1.00
Cu878  Cu    0.83333   0.11978   0.75000   0.00000  Uiso   1.00
H879   H     0.72957   0.16710   0.95850   0.00000  Uiso   1.00
H880   H     0.76148   0.22635   0.85042   0.00000  Uiso   1.00
H881   H     0.92589   0.13707   0.61113   0.00000  Uiso   1.00
H882   H     0.93415   0.22286   0.58601   0.00000  Uiso   1.00
H883   H     0.95601   0.20582   0.63812   0.00000  Uiso   1.00
H884   H     0.90704   0.23532   0.63688   0.00000  Uiso   1.00
H885   H     0.93499   0.15469   0.54066   0.00000  Uiso   1.00
H886   H     0.80314   0.04359   0.68808   0.00000  Uiso   1.00
H887   H     0.86353   0.28974   0.81192   0.00000  Uiso   1.00
H888   H     0.86267   0.04296   0.81232   0.00000  Uiso   1.00
H889   H     0.80398   0.29036   0.68768   0.00000  Uiso   1.00
H890   H     0.73831   0.13499   0.89241   0.00000  Uiso   1.00
H891   H     0.72997   0.22295   0.89968   0.00000  Uiso   1.00
H892   H     0.71263   0.19754   0.84848   0.00000  Uiso   1.00
N893   N     0.83333   0.28402   0.75000   0.00000  Uiso   1.00
N894   N     0.94263   0.28218   0.70637   0.00000  Uiso   1.00
N895   N     0.94081   0.06653   0.81973   0.00000  Uiso   1.00
N896   N     0.72524   0.26743   0.68258   0.00000  Uiso   1.00
N897   N     0.83333   0.04931   0.75000   0.00000  Uiso   1.00
N898   N     0.93564   0.18909   0.86031   0.00000  Uiso   1.00
N899   N     0.72937   0.15018   0.64196   0.00000  Uiso   1.00
N900   N     0.75873   0.15980   0.88103   0.00000  Uiso   1.00
N901   N     0.90661   0.16469   0.61784   0.00000  Uiso   1.00
N902   N     0.68465   0.17893   0.55603   0.00000  Uiso   1.00
N903   N     0.97900   0.14325   0.94222   0.00000  Uiso   1.00
N904   N     0.72683   0.06621   0.81831   0.00000  Uiso   1.00
O905   O     0.77321   0.20625   0.74999   0.00000  Uiso   1.00
O906   O     0.89345   0.12709   0.75000   0.00000  Uiso   1.00
O907   O     0.89345   0.20625   0.75000   0.00000  Uiso   1.00
O908   O     0.77321   0.12709   0.74999   0.00000  Uiso   1.00
O909   O     0.83332   0.20627   0.68513   0.00000  Uiso   1.00
O910   O     0.83334   0.12707   0.81487   0.00000  Uiso   1.00
O911   O     0.83334   0.20627   0.81487   0.00000  Uiso   1.00
O912   O     0.83332   0.12707   0.68513   0.00000  Uiso   1.00
C913   C     0.08748   0.50000   0.75014   0.00000  Uiso   1.00
C914   C     0.04287   0.50021   0.75106   0.00000  Uiso   1.00
C915   C     0.15003   0.35828   0.71560   0.00000  Uiso   1.00
C916   C     0.18331   0.64172   0.78440   0.00000  Uiso   1.00
C917   C     0.18310   0.35792   0.78449   0.00000  Uiso   1.00
C918   C     0.15023   0.64207   0.71551   0.00000  Uiso   1.00
C919   C     0.16661   0.50000   0.66457   0.00000  Uiso   1.00
C920   C     0.16614   0.49993   0.83534   0.00000  Uiso   1.00
C921   C     0.20354   0.50193   0.90616   0.00000  Uiso   1.00
C922   C     0.12813   0.49707   0.59395   0.00000  Uiso   1.00
C923   C     0.16627   0.49974   0.88346   0.00000  Uiso   1.00
C924   C     0.24592   0.50022   0.75103   0.00000  Uiso   1.00
C925   C     0.16569   0.49956   0.61628   0.00000  Uiso   1.00
C926   C     0.12895   0.49673   0.90601   0.00000  Uiso   1.00
C927   C     0.20278   0.49813   0.59329   0.00000  Uiso   1.00
C928   C     0.12867   0.49700   0.95267   0.00000  Uiso   1.00
C929   C     0.20272   0.49549   0.54675   0.00000  Uiso   1.00
C930   C     0.16603   0.49676   0.97628   0.00000  Uiso   1.00
C931   C     0.16529   0.49675   0.52333   0.00000  Uiso   1.00
C932   C     0.20406   0.49686   0.95291   0.00000  Uiso   1.00
C933   C     0.12731   0.49800   0.54683   0.00000  Uiso   1.00
C934   C     0.09168   0.49867   0.97598   0.00000  Uiso   1.00
C935   C     0.09043   0.50015   0.52196   0.00000  Uiso   1.00
C936   C     0.23959   0.49156   0.52337   0.00000  Uiso   1.00
C937   C     0.24009   0.51308   0.88075   0.00000  Uiso   1.00
C938   C     0.09160   0.48980   0.62053   0.00000  Uiso   1.00
C939   C     0.07319   0.53734   0.86944   0.00000  Uiso   1.00
C940   C     0.26024   0.54291   0.61975   0.00000  Uiso   1.00
C941   C     0.05028   0.50678   0.54116   0.00000  Uiso   1.00
C942   C     0.28048   0.48346   0.95766   0.00000  Uiso   1.00
C943   C     0.04307   0.42836   0.79866   0.00000  Uiso   1.00
C944   C     0.29193   0.58161   0.71840   0.00000  Uiso   1.00
C945   C     0.29074   0.42858   0.79938   0.00000  Uiso   1.00
C946   C     0.24079   0.49181   0.97746   0.00000  Uiso   1.00
C947   C     0.04236   0.57260   0.70399   0.00000  Uiso   1.00
C948   C     0.02149   0.46452   0.77397   0.00000  Uiso   1.00
C949   C     0.31235   0.53933   0.73387   0.00000  Uiso   1.00
C950   C     0.31209   0.46458   0.77420   0.00000  Uiso   1.00
C951   C     0.02145   0.53727   0.73053   0.00000  Uiso   1.00
C952   C     0.29065   0.50123   0.75290   0.00000  Uiso   1.00
Cu953  Cu    0.16667   0.54689   0.75000   0.00000  Uiso   1.00
Cu954  Cu    0.16667   0.45311   0.75000   0.00000  Uiso   1.00
H955   H     0.06290   0.50043   0.95850   0.00000  Uiso   1.00
H956   H     0.09481   0.55968   0.85042   0.00000  Uiso   1.00
H957   H     0.25923   0.47040   0.61113   0.00000  Uiso   1.00
H958   H     0.26749   0.55620   0.58601   0.00000  Uiso   1.00
H959   H     0.28935   0.53915   0.63812   0.00000  Uiso   1.00
H960   H     0.24037   0.56866   0.63688   0.00000  Uiso   1.00
H961   H     0.26833   0.48802   0.54066   0.00000  Uiso   1.00
H962   H     0.13647   0.37692   0.68808   0.00000  Uiso   1.00
H963   H     0.19687   0.62307   0.81192   0.00000  Uiso   1.00
H964   H     0.19600   0.37630   0.81232   0.00000  Uiso   1.00
H965   H     0.13731   0.62369   0.68768   0.00000  Uiso   1.00
H966   H     0.07164   0.46833   0.89241   0.00000  Uiso   1.00
H967   H     0.06331   0.55628   0.89968   0.00000  Uiso   1.00
H968   H     0.04596   0.53087   0.84848   0.00000  Uiso   1.00
N969   N     0.16667   0.61736   0.75000   0.00000  Uiso   1.00
N970   N     0.27597   0.61551   0.70637   0.00000  Uiso   1.00
N971   N     0.27414   0.39986   0.81973   0.00000  Uiso   1.00
N972   N     0.05857   0.60076   0.68258   0.00000  Uiso   1.00
N973   N     0.16667   0.38264   0.75000   0.00000  Uiso   1.00
N974   N     0.26897   0.52242   0.86031   0.00000  Uiso   1.00
N975   N     0.06270   0.48351   0.64196   0.00000  Uiso   1.00
N976   N     0.09206   0.49313   0.88103   0.00000  Uiso   1.00
N977   N     0.23995   0.49802   0.61784   0.00000  Uiso   1.00
N978   N     0.01798   0.51226   0.55603   0.00000  Uiso   1.00
N979   N     0.31234   0.47659   0.94222   0.00000  Uiso   1.00
N980   N     0.06017   0.39954   0.81831   0.00000  Uiso   1.00
O981   O     0.10655   0.53958   0.74999   0.00000  Uiso   1.00
O982   O     0.22679   0.46042   0.75000   0.00000  Uiso   1.00
O983   O     0.22679   0.53958   0.75000   0.00000  Uiso   1.00
O984   O     0.10655   0.46042   0.74999   0.00000  Uiso   1.00
O985   O     0.16666   0.53960   0.68513   0.00000  Uiso   1.00
O986   O     0.16668   0.46040   0.81487   0.00000  Uiso   1.00
O987   O     0.16668   0.53960   0.81487   0.00000  Uiso   1.00
O988   O     0.16666   0.46040   0.68513   0.00000  Uiso   1.00
C989   C     0.42082   0.50000   0.75014   0.00000  Uiso   1.00
C990   C     0.37621   0.50021   0.75106   0.00000  Uiso   1.00
C991   C     0.48336   0.35828   0.71560   0.00000  Uiso   1.00
C992   C     0.51664   0.64172   0.78440   0.00000  Uiso   1.00
C993   C     0.51644   0.35792   0.78449   0.00000  Uiso   1.00
C994   C     0.48356   0.64207   0.71551   0.00000  Uiso   1.00
C995   C     0.49994   0.50000   0.66457   0.00000  Uiso   1.00
C996   C     0.49948   0.49993   0.83534   0.00000  Uiso   1.00
C997   C     0.53687   0.50193   0.90616   0.00000  Uiso   1.00
C998   C     0.46147   0.49707   0.59395   0.00000  Uiso   1.00
C999   C     0.49960   0.49974   0.88346   0.00000  Uiso   1.00
C1000  C     0.57925   0.50022   0.75103   0.00000  Uiso   1.00
C1001  C     0.49903   0.49956   0.61628   0.00000  Uiso   1.00
C1002  C     0.46228   0.49673   0.90601   0.00000  Uiso   1.00
C1003  C     0.53611   0.49813   0.59329   0.00000  Uiso   1.00
C1004  C     0.46201   0.49700   0.95267   0.00000  Uiso   1.00
C1005  C     0.53605   0.49549   0.54675   0.00000  Uiso   1.00
C1006  C     0.49936   0.49676   0.97628   0.00000  Uiso   1.00
C1007  C     0.49862   0.49675   0.52333   0.00000  Uiso   1.00
C1008  C     0.53739   0.49686   0.95291   0.00000  Uiso   1.00
C1009  C     0.46065   0.49800   0.54683   0.00000  Uiso   1.00
C1010  C     0.42501   0.49867   0.97598   0.00000  Uiso   1.00
C1011  C     0.42377   0.50015   0.52196   0.00000  Uiso   1.00
C1012  C     0.57292   0.49156   0.52337   0.00000  Uiso   1.00
C1013  C     0.57342   0.51308   0.88075   0.00000  Uiso   1.00
C1014  C     0.42493   0.48980   0.62053   0.00000  Uiso   1.00
C1015  C     0.40652   0.53734   0.86944   0.00000  Uiso   1.00
C1016  C     0.59357   0.54291   0.61975   0.00000  Uiso   1.00
C1017  C     0.38361   0.50678   0.54116   0.00000  Uiso   1.00
C1018  C     0.61381   0.48346   0.95766   0.00000  Uiso   1.00
C1019  C     0.37640   0.42836   0.79866   0.00000  Uiso   1.00
C1020  C     0.62527   0.58161   0.71840   0.00000  Uiso   1.00
C1021  C     0.62407   0.42858   0.79938   0.00000  Uiso   1.00
C1022  C     0.57412   0.49181   0.97746   0.00000  Uiso   1.00
C1023  C     0.37569   0.57260   0.70399   0.00000  Uiso   1.00
C1024  C     0.35482   0.46452   0.77397   0.00000  Uiso   1.00
C1025  C     0.64568   0.53933   0.73387   0.00000  Uiso   1.00
C1026  C     0.64542   0.46458   0.77420   0.00000  Uiso   1.00
C1027  C     0.35478   0.53727   0.73053   0.00000  Uiso   1.00
C1028  C     0.62398   0.50123   0.75290   0.00000  Uiso   1.00
Cu1029 Cu    0.50000   0.54689   0.75000   0.00000  Uiso   1.00
Cu1030 Cu    0.50000   0.45311   0.75000   0.00000  Uiso   1.00
H1031  H     0.39624   0.50043   0.95850   0.00000  Uiso   1.00
H1032  H     0.42814   0.55968   0.85042   0.00000  Uiso   1.00
H1033  H     0.59256   0.47040   0.61113   0.00000  Uiso   1.00
H1034  H     0.60082   0.55620   0.58601   0.00000  Uiso   1.00
H1035  H     0.62268   0.53915   0.63812   0.00000  Uiso   1.00
H1036  H     0.57370   0.56866   0.63688   0.00000  Uiso   1.00
H1037  H     0.60166   0.48802   0.54066   0.00000  Uiso   1.00
H1038  H     0.46980   0.37692   0.68808   0.00000  Uiso   1.00
H1039  H     0.53020   0.62307   0.81192   0.00000  Uiso   1.00
H1040  H     0.52934   0.37630   0.81232   0.00000  Uiso   1.00
H1041  H     0.47064   0.62369   0.68768   0.00000  Uiso   1.00
H1042  H     0.40497   0.46833   0.89241   0.00000  Uiso   1.00
H1043  H     0.39664   0.55628   0.89968   0.00000  Uiso   1.00
H1044  H     0.37929   0.53087   0.84848   0.00000  Uiso   1.00
N1045  N     0.50000   0.61736   0.75000   0.00000  Uiso   1.00
N1046  N     0.60930   0.61551   0.70637   0.00000  Uiso   1.00
N1047  N     0.60747   0.39986   0.81973   0.00000  Uiso   1.00
N1048  N     0.39190   0.60076   0.68258   0.00000  Uiso   1.00
N1049  N     0.50000   0.38264   0.75000   0.00000  Uiso   1.00
N1050  N     0.60231   0.52242   0.86031   0.00000  Uiso   1.00
N1051  N     0.39604   0.48351   0.64196   0.00000  Uiso   1.00
N1052  N     0.42539   0.49313   0.88103   0.00000  Uiso   1.00
N1053  N     0.57328   0.49802   0.61784   0.00000  Uiso   1.00
N1054  N     0.35131   0.51226   0.55603   0.00000  Uiso   1.00
N1055  N     0.64567   0.47659   0.94222   0.00000  Uiso   1.00
N1056  N     0.39350   0.39954   0.81831   0.00000  Uiso   1.00
O1057  O     0.43988   0.53958   0.74999   0.00000  Uiso   1.00
O1058  O     0.56012   0.46042   0.75000   0.00000  Uiso   1.00
O1059  O     0.56012   0.53958   0.75000   0.00000  Uiso   1.00
O1060  O     0.43988   0.46042   0.74999   0.00000  Uiso   1.00
O1061  O     0.49999   0.53960   0.68513   0.00000  Uiso   1.00
O1062  O     0.50001   0.46040   0.81487   0.00000  Uiso   1.00
O1063  O     0.50001   0.53960   0.81487   0.00000  Uiso   1.00
O1064  O     0.49999   0.46040   0.68513   0.00000  Uiso   1.00
C1065  C     0.75415   0.50000   0.75014   0.00000  Uiso   1.00
C1066  C     0.70954   0.50021   0.75106   0.00000  Uiso   1.00
C1067  C     0.81670   0.35828   0.71560   0.00000  Uiso   1.00
C1068  C     0.84997   0.64172   0.78440   0.00000  Uiso   1.00
C1069  C     0.84977   0.35792   0.78449   0.00000  Uiso   1.00
C1070  C     0.81690   0.64207   0.71551   0.00000  Uiso   1.00
C1071  C     0.83328   0.50000   0.66457   0.00000  Uiso   1.00
C1072  C     0.83281   0.49993   0.83534   0.00000  Uiso   1.00
C1073  C     0.87021   0.50193   0.90616   0.00000  Uiso   1.00
C1074  C     0.79480   0.49707   0.59395   0.00000  Uiso   1.00
C1075  C     0.83293   0.49974   0.88346   0.00000  Uiso   1.00
C1076  C     0.91259   0.50022   0.75103   0.00000  Uiso   1.00
C1077  C     0.83236   0.49956   0.61628   0.00000  Uiso   1.00
C1078  C     0.79562   0.49673   0.90601   0.00000  Uiso   1.00
C1079  C     0.86944   0.49813   0.59329   0.00000  Uiso   1.00
C1080  C     0.79534   0.49700   0.95267   0.00000  Uiso   1.00
C1081  C     0.86938   0.49549   0.54675   0.00000  Uiso   1.00
C1082  C     0.83269   0.49676   0.97628   0.00000  Uiso   1.00
C1083  C     0.83196   0.49675   0.52333   0.00000  Uiso   1.00
C1084  C     0.87073   0.49686   0.95291   0.00000  Uiso   1.00
C1085  C     0.79398   0.49800   0.54683   0.00000  Uiso   1.00
C1086  C     0.75834   0.49867   0.97598   0.00000  Uiso   1.00
C1087  C     0.75710   0.50015   0.52196   0.00000  Uiso   1.00
C1088  C     0.90625   0.49156   0.52337   0.00000  Uiso   1.00
C1089  C     0.90675   0.51308   0.88075   0.00000  Uiso   1.00
C1090  C     0.75826   0.48980   0.62053   0.00000  Uiso   1.00
C1091  C     0.73985   0.53734   0.86944   0.00000  Uiso   1.00
C1092  C     0.92690   0.54291   0.61975   0.00000  Uiso   1.00
C1093  C     0.71694   0.50678   0.54116   0.00000  Uiso   1.00
C1094  C     0.94714   0.48346   0.95766   0.00000  Uiso   1.00
C1095  C     0.70973   0.42836   0.79866   0.00000  Uiso   1.00
C1096  C     0.95860   0.58161   0.71840   0.00000  Uiso   1.00
C1097  C     0.95741   0.42858   0.79938   0.00000  Uiso   1.00
C1098  C     0.90746   0.49181   0.97746   0.00000  Uiso   1.00
C1099  C     0.70903   0.57260   0.70399   0.00000  Uiso   1.00
C1100  C     0.68815   0.46452   0.77397   0.00000  Uiso   1.00
C1101  C     0.97901   0.53933   0.73387   0.00000  Uiso   1.00
C1102  C     0.97875   0.46458   0.77420   0.00000  Uiso   1.00
C1103  C     0.68812   0.53727   0.73053   0.00000  Uiso   1.00
C1104  C     0.95732   0.50123   0.75290   0.00000  Uiso   1.00
Cu1105 Cu    0.83333   0.54689   0.75000   0.00000  Uiso   1.00
Cu1106 Cu    0.83333   0.45311   0.75000   0.00000  Uiso   1.00
H1107  H     0.72957   0.50043   0.95850   0.00000  Uiso   1.00
H1108  H     0.76148   0.55968   0.85042   0.00000  Uiso   1.00
H1109  H     0.92589   0.47040   0.61113   0.00000  Uiso   1.00
H1110  H     0.93415   0.55620   0.58601   0.00000  Uiso   1.00
H1111  H     0.95601   0.53915   0.63812   0.00000  Uiso   1.00
H1112  H     0.90704   0.56866   0.63688   0.00000  Uiso   1.00
H1113  H     0.93499   0.48802   0.54066   0.00000  Uiso   1.00
H1114  H     0.80314   0.37692   0.68808   0.00000  Uiso   1.00
H1115  H     0.86353   0.62307   0.81192   0.00000  Uiso   1.00
H1116  H     0.86267   0.37630   0.81232   0.00000  Uiso   1.00
H1117  H     0.80398   0.62369   0.68768   0.00000  Uiso   1.00
H1118  H     0.73831   0.46833   0.89241   0.00000  Uiso   1.00
H1119  H     0.72997   0.55628   0.89968   0.00000  Uiso   1.00
H1120  H     0.71263   0.53087   0.84848   0.00000  Uiso   1.00
N1121  N     0.83333   0.61736   0.75000   0.00000  Uiso   1.00
N1122  N     0.94263   0.61551   0.70637   0.00000  Uiso   1.00
N1123  N     0.94081   0.39986   0.81973   0.00000  Uiso   1.00
N1124  N     0.72524   0.60076   0.68258   0.00000  Uiso   1.00
N1125  N     0.83333   0.38264   0.75000   0.00000  Uiso   1.00
N1126  N     0.93564   0.52242   0.86031   0.00000  Uiso   1.00
N1127  N     0.72937   0.48351   0.64196   0.00000  Uiso   1.00
N1128  N     0.75873   0.49313   0.88103   0.00000  Uiso   1.00
N1129  N     0.90661   0.49802   0.61784   0.00000  Uiso   1.00
N1130  N     0.68465   0.51226   0.55603   0.00000  Uiso   1.00
N1131  N     0.97900   0.47659   0.94222   0.00000  Uiso   1.00
N1132  N     0.72683   0.39954   0.81831   0.00000  Uiso   1.00
O1133  O     0.77321   0.53958   0.74999   0.00000  Uiso   1.00
O1134  O     0.89345   0.46042   0.75000   0.00000  Uiso   1.00
O1135  O     0.89345   0.53958   0.75000   0.00000  Uiso   1.00
O1136  O     0.77321   0.46042   0.74999   0.00000  Uiso   1.00
O1137  O     0.83332   0.53960   0.68513   0.00000  Uiso   1.00
O1138  O     0.83334   0.46040   0.81487   0.00000  Uiso   1.00
O1139  O     0.83334   0.53960   0.81487   0.00000  Uiso   1.00
O1140  O     0.83332   0.46040   0.68513   0.00000  Uiso   1.00
C1141  C     0.08748   0.83334   0.75014   0.00000  Uiso   1.00
C1142  C     0.04287   0.83355   0.75106   0.00000  Uiso   1.00
C1143  C     0.15003   0.69161   0.71560   0.00000  Uiso   1.00
C1144  C     0.18331   0.97505   0.78440   0.00000  Uiso   1.00
C1145  C     0.18310   0.69126   0.78449   0.00000  Uiso   1.00
C1146  C     0.15023   0.97540   0.71551   0.00000  Uiso   1.00
C1147  C     0.16661   0.83333   0.66457   0.00000  Uiso   1.00
C1148  C     0.16614   0.83326   0.83534   0.00000  Uiso   1.00
C1149  C     0.20354   0.83526   0.90616   0.00000  Uiso   1.00
C1150  C     0.12813   0.83040   0.59395   0.00000  Uiso   1.00
C1151  C     0.16627   0.83308   0.88346   0.00000  Uiso   1.00
C1152  C     0.24592   0.83355   0.75103   0.00000  Uiso   1.00
C1153  C     0.16569   0.83289   0.61628   0.00000  Uiso   1.00
C1154  C     0.12895   0.83006   0.90601   0.00000  Uiso   1.00
C1155  C     0.20278   0.83146   0.59329   0.00000  Uiso   1.00
C1156  C     0.12867   0.83033   0.95267   0.00000  Uiso   1.00
C1157  C     0.20272   0.82882   0.54675   0.00000  Uiso   1.00
C1158  C     0.16603   0.83009   0.97628   0.00000  Uiso   1.00
C1159  C     0.16529   0.83008   0.52333   0.00000  Uiso   1.00
C1160  C     0.20406   0.83019   0.95291   0.00000  Uiso   1.00
C1161  C     0.12731   0.83134   0.54683   0.00000  Uiso   1.00
C1162  C     0.09168   0.83201   0.97598   0.00000  Uiso   1.00
C1163  C     0.09043   0.83348   0.52196   0.00000  Uiso   1.00
C1164  C     0.23959   0.82489   0.52337   0.00000  Uiso   1.00
C1165  C     0.24009   0.84641   0.88075   0.00000  Uiso   1.00
C1166  C     0.09160   0.82314   0.62053   0.00000  Uiso   1.00
C1167  C     0.07319   0.87067   0.86944   0.00000  Uiso   1.00
C1168  C     0.26024   0.87624   0.61975   0.00000  Uiso   1.00
C1169  C     0.05028   0.84011   0.54116   0.00000  Uiso   1.00
C1170  C     0.28048   0.81679   0.95766   0.00000  Uiso   1.00
C1171  C     0.04307   0.76169   0.79866   0.00000  Uiso   1.00
C1172  C     0.29193   0.91494   0.71840   0.00000  Uiso   1.00
C1173  C     0.29074   0.76192   0.79938   0.00000  Uiso   1.00
C1174  C     0.24079   0.82514   0.97746   0.00000  Uiso   1.00
C1175  C     0.04236   0.90593   0.70399   0.00000  Uiso   1.00
C1176  C     0.02149   0.79785   0.77397   0.00000  Uiso   1.00
C1177  C     0.31235   0.87266   0.73387   0.00000  Uiso   1.00
C1178  C     0.31209   0.79791   0.77420   0.00000  Uiso   1.00
C1179  C     0.02145   0.87061   0.73053   0.00000  Uiso   1.00
C1180  C     0.29065   0.83457   0.75290   0.00000  Uiso   1.00
Cu1181 Cu    0.16667   0.88022   0.75000   0.00000  Uiso   1.00
Cu1182 Cu    0.16667   0.78645   0.75000   0.00000  Uiso   1.00
H1183  H     0.06290   0.83376   0.95850   0.00000  Uiso   1.00
H1184  H     0.09481   0.89301   0.85042   0.00000  Uiso   1.00
H1185  H     0.25923   0.80373   0.61113   0.00000  Uiso   1.00
H1186  H     0.26749   0.88953   0.58601   0.00000  Uiso   1.00
H1187  H     0.28935   0.87248   0.63812   0.00000  Uiso   1.00
H1188  H     0.24037   0.90199   0.63688   0.00000  Uiso   1.00
H1189  H     0.26833   0.82135   0.54066   0.00000  Uiso   1.00
H1190  H     0.13647   0.71026   0.68808   0.00000  Uiso   1.00
H1191  H     0.19687   0.95640   0.81192   0.00000  Uiso   1.00
H1192  H     0.19600   0.70963   0.81232   0.00000  Uiso   1.00
H1193  H     0.13731   0.95703   0.68768   0.00000  Uiso   1.00
H1194  H     0.07164   0.80166   0.89241   0.00000  Uiso   1.00
H1195  H     0.06331   0.88962   0.89968   0.00000  Uiso   1.00
H1196  H     0.04596   0.86420   0.84848   0.00000  Uiso   1.00
N1197  N     0.16667   0.95069   0.75000   0.00000  Uiso   1.00
N1198  N     0.27597   0.94884   0.70637   0.00000  Uiso   1.00
N1199  N     0.27414   0.73320   0.81973   0.00000  Uiso   1.00
N1200  N     0.05857   0.93409   0.68258   0.00000  Uiso   1.00
N1201  N     0.16667   0.71598   0.75000   0.00000  Uiso   1.00
N1202  N     0.26897   0.85575   0.86031   0.00000  Uiso   1.00
N1203  N     0.06270   0.81684   0.64196   0.00000  Uiso   1.00
N1204  N     0.09206   0.82647   0.88103   0.00000  Uiso   1.00
N1205  N     0.23995   0.83135   0.61784   0.00000  Uiso   1.00
N1206  N     0.01798   0.84559   0.55603   0.00000  Uiso   1.00
N1207  N     0.31234   0.80992   0.94222   0.00000  Uiso   1.00
N1208  N     0.06017   0.73288   0.81831   0.00000  Uiso   1.00
O1209  O     0.10655   0.87291   0.74999   0.00000  Uiso   1.00
O1210  O     0.22679   0.79375   0.75000   0.00000  Uiso   1.00
O1211  O     0.22679   0.87291   0.75000   0.00000  Uiso   1.00
O1212  O     0.10655   0.79375   0.74999   0.00000  Uiso   1.00
O1213  O     0.16666   0.87293   0.68513   0.00000  Uiso   1.00
O1214  O     0.16668   0.79373   0.81487   0.00000  Uiso   1.00
O1215  O     0.16668   0.87293   0.81487   0.00000  Uiso   1.00
O1216  O     0.16666   0.79373   0.68513   0.00000  Uiso   1.00
C1217  C     0.42082   0.83334   0.75014   0.00000  Uiso   1.00
C1218  C     0.37621   0.83355   0.75106   0.00000  Uiso   1.00
C1219  C     0.48336   0.69161   0.71560   0.00000  Uiso   1.00
C1220  C     0.51664   0.97505   0.78440   0.00000  Uiso   1.00
C1221  C     0.51644   0.69126   0.78449   0.00000  Uiso   1.00
C1222  C     0.48356   0.97540   0.71551   0.00000  Uiso   1.00
C1223  C     0.49994   0.83333   0.66457   0.00000  Uiso   1.00
C1224  C     0.49948   0.83326   0.83534   0.00000  Uiso   1.00
C1225  C     0.53687   0.83526   0.90616   0.00000  Uiso   1.00
C1226  C     0.46147   0.83040   0.59395   0.00000  Uiso   1.00
C1227  C     0.49960   0.83308   0.88346   0.00000  Uiso   1.00
C1228  C     0.57925   0.83355   0.75103   0.00000  Uiso   1.00
C1229  C     0.49903   0.83289   0.61628   0.00000  Uiso   1.00
C1230  C     0.46228   0.83006   0.90601   0.00000  Uiso   1.00
C1231  C     0.53611   0.83146   0.59329   0.00000  Uiso   1.00
C1232  C     0.46201   0.83033   0.95267   0.00000  Uiso   1.00
C1233  C     0.53605   0.82882   0.54675   0.00000  Uiso   1.00
C1234  C     0.49936   0.83009   0.97628   0.00000  Uiso   1.00
C1235  C     0.49862   0.83008   0.52333   0.00000  Uiso   1.00
C1236  C     0.53739   0.83019   0.95291   0.00000  Uiso   1.00
C1237  C     0.46065   0.83134   0.54683   0.00000  Uiso   1.00
C1238  C     0.42501   0.83201   0.97598   0.00000  Uiso   1.00
C1239  C     0.42377   0.83348   0.52196   0.00000  Uiso   1.00
C1240  C     0.57292   0.82489   0.52337   0.00000  Uiso   1.00
C1241  C     0.57342   0.84641   0.88075   0.00000  Uiso   1.00
C1242  C     0.42493   0.82314   0.62053   0.00000  Uiso   1.00
C1243  C     0.40652   0.87067   0.86944   0.00000  Uiso   1.00
C1244  C     0.59357   0.87624   0.61975   0.00000  Uiso   1.00
C1245  C     0.38361   0.84011   0.54116   0.00000  Uiso   1.00
C1246  C     0.61381   0.81679   0.95766   0.00000  Uiso   1.00
C1247  C     0.37640   0.76169   0.79866   0.00000  Uiso   1.00
C1248  C     0.62527   0.91494   0.71840   0.00000  Uiso   1.00
C1249  C     0.62407   0.76192   0.79938   0.00000  Uiso   1.00
C1250  C     0.57412   0.82514   0.97746   0.00000  Uiso   1.00
C1251  C     0.37569   0.90593   0.70399   0.00000  Uiso   1.00
C1252  C     0.35482   0.79785   0.77397   0.00000  Uiso   1.00
C1253  C     0.64568   0.87266   0.73387   0.00000  Uiso   1.00
C1254  C     0.64542   0.79791   0.77420   0.00000  Uiso   1.00
C1255  C     0.35478   0.87061   0.73053   0.00000  Uiso   1.00
C1256  C     0.62398   0.83457   0.75290   0.00000  Uiso   1.00
Cu1257 Cu    0.50000   0.88022   0.75000   0.00000  Uiso   1.00
Cu1258 Cu    0.50000   0.78645   0.75000   0.00000  Uiso   1.00
H1259  H     0.39624   0.83376   0.95850   0.00000  Uiso   1.00
H1260  H     0.42814   0.89301   0.85042   0.00000  Uiso   1.00
H1261  H     0.59256   0.80373   0.61113   0.00000  Uiso   1.00
H1262  H     0.60082   0.88953   0.58601   0.00000  Uiso   1.00
H1263  H     0.62268   0.87248   0.63812   0.00000  Uiso   1.00
H1264  H     0.57370   0.90199   0.63688   0.00000  Uiso   1.00
H1265  H     0.60166   0.82135   0.54066   0.00000  Uiso   1.00
H1266  H     0.46980   0.71026   0.68808   0.00000  Uiso   1.00
H1267  H     0.53020   0.95640   0.81192   0.00000  Uiso   1.00
H1268  H     0.52934   0.70963   0.81232   0.00000  Uiso   1.00
H1269  H     0.47064   0.95703   0.68768   0.00000  Uiso   1.00
H1270  H     0.40497   0.80166   0.89241   0.00000  Uiso   1.00
H1271  H     0.39664   0.88962   0.89968   0.00000  Uiso   1.00
H1272  H     0.37929   0.86420   0.84848   0.00000  Uiso   1.00
N1273  N     0.50000   0.95069   0.75000   0.00000  Uiso   1.00
N1274  N     0.60930   0.94884   0.70637   0.00000  Uiso   1.00
N1275  N     0.60747   0.73320   0.81973   0.00000  Uiso   1.00
N1276  N     0.39190   0.93409   0.68258   0.00000  Uiso   1.00
N1277  N     0.50000   0.71598   0.75000   0.00000  Uiso   1.00
N1278  N     0.60231   0.85575   0.86031   0.00000  Uiso   1.00
N1279  N     0.39604   0.81684   0.64196   0.00000  Uiso   1.00
N1280  N     0.42539   0.82647   0.88103   0.00000  Uiso   1.00
N1281  N     0.57328   0.83135   0.61784   0.00000  Uiso   1.00
N1282  N     0.35131   0.84559   0.55603   0.00000  Uiso   1.00
N1283  N     0.64567   0.80992   0.94222   0.00000  Uiso   1.00
N1284  N     0.39350   0.73288   0.81831   0.00000  Uiso   1.00
O1285  O     0.43988   0.87291   0.74999   0.00000  Uiso   1.00
O1286  O     0.56012   0.79375   0.75000   0.00000  Uiso   1.00
O1287  O     0.56012   0.87291   0.75000   0.00000  Uiso   1.00
O1288  O     0.43988   0.79375   0.74999   0.00000  Uiso   1.00
O1289  O     0.49999   0.87293   0.68513   0.00000  Uiso   1.00
O1290  O     0.50001   0.79373   0.81487   0.00000  Uiso   1.00
O1291  O     0.50001   0.87293   0.81487   0.00000  Uiso   1.00
O1292  O     0.49999   0.79373   0.68513   0.00000  Uiso   1.00
C1293  C     0.75415   0.83334   0.75014   0.00000  Uiso   1.00
C1294  C     0.70954   0.83355   0.75106   0.00000  Uiso   1.00
C1295  C     0.81670   0.69161   0.71560   0.00000  Uiso   1.00
C1296  C     0.84997   0.97505   0.78440   0.00000  Uiso   1.00
C1297  C     0.84977   0.69126   0.78449   0.00000  Uiso   1.00
C1298  C     0.81690   0.97540   0.71551   0.00000  Uiso   1.00
C1299  C     0.83328   0.83333   0.66457   0.00000  Uiso   1.00
C1300  C     0.83281   0.83326   0.83534   0.00000  Uiso   1.00
C1301  C     0.87021   0.83526   0.90616   0.00000  Uiso   1.00
C1302  C     0.79480   0.83040   0.59395   0.00000  Uiso   1.00
C1303  C     0.83293   0.83308   0.88346   0.00000  Uiso   1.00
C1304  C     0.91259   0.83355   0.75103   0.00000  Uiso   1.00
C1305  C     0.83236   0.83289   0.61628   0.00000  Uiso   1.00
C1306  C     0.79562   0.83006   0.90601   0.00000  Uiso   1.00
C1307  C     0.86944   0.83146   0.59329   0.00000  Uiso   1.00
C1308  C     0.79534   0.83033   0.95267   0.00000  Uiso   1.00
C1309  C     0.86938   0.82882   0.54675   0.00000  Uiso   1.00
C1310  C     0.83269   0.83009   0.97628   0.00000  Uiso   1.00
C1311  C     0.83196   0.83008   0.52333   0.00000  Uiso   1.00
C1312  C     0.87073   0.83019   0.95291   0.00000  Uiso   1.00
C1313  C     0.79398   0.83134   0.54683   0.00000  Uiso   1.00
C1314  C     0.75834   0.83201   0.97598   0.00000  Uiso   1.00
C1315  C     0.75710   0.83348   0.52196   0.00000  Uiso   1.00
C1316  C     0.90625   0.82489   0.52337   0.00000  Uiso   1.00
C1317  C     0.90675   0.84641   0.88075   0.00000  Uiso   1.00
C1318  C     0.75826   0.82314   0.62053   0.00000  Uiso   1.00
C1319  C     0.73985   0.87067   0.86944   0.00000  Uiso   1.00
C1320  C     0.92690   0.87624   0.61975   0.00000  Uiso   1.00
C1321  C     0.71694   0.84011   0.54116   0.00000  Uiso   1.00
C1322  C     0.94714   0.81679   0.95766   0.00000  Uiso   1.00
C1323  C     0.70973   0.76169   0.79866   0.00000  Uiso   1.00
C1324  C     0.95860   0.91494   0.71840   0.00000  Uiso   1.00
C1325  C     0.95741   0.76192   0.79938   0.00000  Uiso   1.00
C1326  C     0.90746   0.82514   0.97746   0.00000  Uiso   1.00
C1327  C     0.70903   0.90593   0.70399   0.00000  Uiso   1.00
C1328  C     0.68815   0.79785   0.77397   0.00000  Uiso   1.00
C1329  C     0.97901   0.87266   0.73387   0.00000  Uiso   1.00
C1330  C     0.97875   0.79791   0.77420   0.00000  Uiso   1.00
C1331  C     0.68812   0.87061   0.73053   0.00000  Uiso   1.00
C1332  C     0.95732   0.83457   0.75290   0.00000  Uiso   1.00
Cu1333 Cu    0.83333   0.88022   0.75000   0.00000  Uiso   1.00
Cu1334 Cu    0.83333   0.78645   0.75000   0.00000  Uiso   1.00
H1335  H     0.72957   0.83376   0.95850   0.00000  Uiso   1.00
H1336  H     0.76148   0.89301   0.85042   0.00000  Uiso   1.00
H1337  H     0.92589   0.80373   0.61113   0.00000  Uiso   1.00
H1338  H     0.93415   0.88953   0.58601   0.00000  Uiso   1.00
H1339  H     0.95601   0.87248   0.63812   0.00000  Uiso   1.00
H1340  H     0.90704   0.90199   0.63688   0.00000  Uiso   1.00
H1341  H     0.93499   0.82135   0.54066   0.00000  Uiso   1.00
H1342  H     0.80314   0.71026   0.68808   0.00000  Uiso   1.00
H1343  H     0.86353   0.95640   0.81192   0.00000  Uiso   1.00
H1344  H     0.86267   0.70963   0.81232   0.00000  Uiso   1.00
H1345  H     0.80398   0.95703   0.68768   0.00000  Uiso   1.00
H1346  H     0.73831   0.80166   0.89241   0.00000  Uiso   1.00
H1347  H     0.72997   0.88962   0.89968   0.00000  Uiso   1.00
H1348  H     0.71263   0.86420   0.84848   0.00000  Uiso   1.00
N1349  N     0.83333   0.95069   0.75000   0.00000  Uiso   1.00
N1350  N     0.94263   0.94884   0.70637   0.00000  Uiso   1.00
N1351  N     0.94081   0.73320   0.81973   0.00000  Uiso   1.00
N1352  N     0.72524   0.93409   0.68258   0.00000  Uiso   1.00
N1353  N     0.83333   0.71598   0.75000   0.00000  Uiso   1.00
N1354  N     0.93564   0.85575   0.86031   0.00000  Uiso   1.00
N1355  N     0.72937   0.81684   0.64196   0.00000  Uiso   1.00
N1356  N     0.75873   0.82647   0.88103   0.00000  Uiso   1.00
N1357  N     0.90661   0.83135   0.61784   0.00000  Uiso   1.00
N1358  N     0.68465   0.84559   0.55603   0.00000  Uiso   1.00
N1359  N     0.97900   0.80992   0.94222   0.00000  Uiso   1.00
N1360  N     0.72683   0.73288   0.81831   0.00000  Uiso   1.00
O1361  O     0.77321   0.87291   0.74999   0.00000  Uiso   1.00
O1362  O     0.89345   0.79375   0.75000   0.00000  Uiso   1.00
O1363  O     0.89345   0.87291   0.75000   0.00000  Uiso   1.00
O1364  O     0.77321   0.79375   0.74999   0.00000  Uiso   1.00
O1365  O     0.83332   0.87293   0.68513   0.00000  Uiso   1.00
O1366  O     0.83334   0.79373   0.81487   0.00000  Uiso   1.00
O1367  O     0.83334   0.87293   0.81487   0.00000  Uiso   1.00
O1368  O     0.83332   0.79373   0.68513   0.00000  Uiso   1.00
loop_
_geom_bond_atom_site_label_1
_geom_bond_atom_site_label_2
_geom_bond_distance
_geom_bond_site_symmetry_2
_ccdc_geom_bond_type
C1     C2      1.460   .     S
C1     O72     1.291   .     A
C1     O69     1.291   .     A
C2     C39     1.412   .     A
C2     C36     1.413   .     A
C3     H50     1.081   .     S
C3     N61     1.367   .     A
C3     C462    1.415   1_545 S
C4     N57     1.367   .     A
C4     H51     1.081   .     S
C4     C233    1.415   .     S
C5     H52     1.080   .     S
C5     N61     1.367   .     A
C5     C460    1.415   1_545 S
C6     N57     1.367   .     A
C6     H53     1.080   .     S
C6     C231    1.415   .     S
C7     O73     1.293   .     A
C7     O76     1.288   .     A
C7     C13     1.458   .     S
C8     O74     1.290   .     A
C8     O75     1.288   .     A
C8     C11     1.452   .     S
C9     C25     1.453   .     S
C9     C20     1.418   .     A
C9     C11     1.402   .     A
C10    C26     1.452   .     S
C10    C21     1.423   .     A
C10    C13     1.405   .     A
C11    C14     1.398   .     A
C12    C40     1.465   .     S
C12    O71     1.287   .     A
C12    O70     1.298   .     A
C13    C15     1.396   .     A
C14    N64     1.429   .     S
C14    C16     1.408   .     A
C15    N65     1.426   .     S
C15    C17     1.407   .     A
C16    C22     1.399   .     A
C16    C18     1.417   .     A
C17    C24     1.400   .     A
C17    C19     1.416   .     A
C18    C20     1.428   .     A
C18    C703    1.420   .     S
C19    C21     1.429   .     A
C19    C702    1.420   1_554 S
C20    C34     1.421   .     A
C21    C23     1.424   .     A
C22    H43     1.082   .     S
C22    C707    1.389   .     S
C23    C29     1.447   .     S
C23    C706    1.389   1_554 S
C24    H49     1.081   .     S
C24    C718    1.386   1_554 S
C25    N62     1.157   .     T
C26    N63     1.157   .     T
C27    H55     1.110   .     S
C27    H44     1.110   .     S
C27    H56     1.110   .     S
C27    N64     1.448   .     S
C28    H47     1.109   .     S
C28    H46     1.110   .     S
C28    H48     1.110   .     S
C28    N65     1.445   .     S
C29    N66     1.158   .     T
C30    N67     1.158   .     T
C30    C34     1.448   .     S
C31    N68     1.158   .     T
C31    C36     1.455   .     S
C32    N58     1.158   .     T
C32    C37     1.456   .     S
C33    N59     1.157   .     T
C33    C38     1.453   .     S
C34    C708    1.386   .     S
C35    N60     1.157   .     T
C35    C39     1.455   .     S
C36    C190    1.398   1_455 S
C37    C40     1.417   .     A
C37    C115    1.393   .     S
C38    C40     1.414   .     A
C38    C112    1.398   .     S
C39    C189    1.393   1_455 S
Cu41   Cu42    2.679   .     S
Cu41   O71     1.978   .     S
Cu41   O75     1.968   .     S
Cu41   O69     1.978   .     S
Cu41   N57     2.013   .     S
Cu41   O73     1.970   .     S
Cu42   O70     1.978   .     S
Cu42   O74     1.970   .     S
Cu42   O72     1.978   .     S
Cu42   N61     2.013   .     S
Cu42   O76     1.968   .     S
H45    N65     1.031   .     S
H54    N64     1.031   .     S
C77    C78     1.460   .     S
C77    O148    1.291   .     A
C77    O145    1.291   .     A
C78    C115    1.412   .     A
C78    C112    1.413   .     A
C79    H126    1.081   .     S
C79    N137    1.367   .     A
C79    C538    1.415   1_545 S
C80    N133    1.367   .     A
C80    H127    1.081   .     S
C80    C309    1.415   .     S
C81    H128    1.080   .     S
C81    N137    1.367   .     A
C81    C536    1.415   1_545 S
C82    N133    1.367   .     A
C82    H129    1.080   .     S
C82    C307    1.415   .     S
C83    O149    1.293   .     A
C83    O152    1.288   .     A
C83    C89     1.458   .     S
C84    O150    1.290   .     A
C84    O151    1.288   .     A
C84    C87     1.452   .     S
C85    C101    1.453   .     S
C85    C96     1.418   .     A
C85    C87     1.402   .     A
C86    C102    1.452   .     S
C86    C97     1.423   .     A
C86    C89     1.405   .     A
C87    C90     1.398   .     A
C88    C116    1.465   .     S
C88    O147    1.287   .     A
C88    O146    1.298   .     A
C89    C91     1.396   .     A
C90    N140    1.429   .     S
C90    C92     1.408   .     A
C91    N141    1.426   .     S
C91    C93     1.407   .     A
C92    C98     1.399   .     A
C92    C94     1.417   .     A
C93    C100    1.400   .     A
C93    C95     1.416   .     A
C94    C96     1.428   .     A
C94    C779    1.420   .     S
C95    C97     1.429   .     A
C95    C778    1.420   1_554 S
C96    C110    1.421   .     A
C97    C99     1.424   .     A
C98    H119    1.082   .     S
C98    C783    1.389   .     S
C99    C105    1.447   .     S
C99    C782    1.389   1_554 S
C100   H125    1.081   .     S
C100   C794    1.386   1_554 S
C101   N138    1.157   .     T
C102   N139    1.157   .     T
C103   H131    1.110   .     S
C103   H120    1.110   .     S
C103   H132    1.110   .     S
C103   N140    1.448   .     S
C104   H123    1.109   .     S
C104   H122    1.110   .     S
C104   H124    1.110   .     S
C104   N141    1.445   .     S
C105   N142    1.158   .     T
C106   N143    1.158   .     T
C106   C110    1.448   .     S
C107   N144    1.158   .     T
C107   C112    1.455   .     S
C108   N134    1.158   .     T
C108   C113    1.456   .     S
C109   N135    1.157   .     T
C109   C114    1.453   .     S
C110   C784    1.386   .     S
C111   N136    1.157   .     T
C111   C115    1.455   .     S
C113   C116    1.417   .     A
C113   C191    1.393   .     S
C114   C116    1.414   .     A
C114   C188    1.398   .     S
Cu117  Cu118   2.679   .     S
Cu117  O147    1.978   .     S
Cu117  O151    1.968   .     S
Cu117  O145    1.978   .     S
Cu117  N133    2.013   .     S
Cu117  O149    1.970   .     S
Cu118  O146    1.978   .     S
Cu118  O150    1.970   .     S
Cu118  O148    1.978   .     S
Cu118  N137    2.013   .     S
Cu118  O152    1.968   .     S
H121   N141    1.031   .     S
H130   N140    1.031   .     S
C153   C154    1.460   .     S
C153   O224    1.291   .     A
C153   O221    1.291   .     A
C154   C191    1.412   .     A
C154   C188    1.413   .     A
C155   H202    1.081   .     S
C155   N213    1.367   .     A
C155   C614    1.415   1_545 S
C156   N209    1.367   .     A
C156   H203    1.081   .     S
C156   C385    1.415   .     S
C157   H204    1.080   .     S
C157   N213    1.367   .     A
C157   C612    1.415   1_545 S
C158   N209    1.367   .     A
C158   H205    1.080   .     S
C158   C383    1.415   .     S
C159   O225    1.293   .     A
C159   O228    1.288   .     A
C159   C165    1.458   .     S
C160   O226    1.290   .     A
C160   O227    1.288   .     A
C160   C163    1.452   .     S
C161   C177    1.453   .     S
C161   C172    1.418   .     A
C161   C163    1.402   .     A
C162   C178    1.452   .     S
C162   C173    1.423   .     A
C162   C165    1.405   .     A
C163   C166    1.398   .     A
C164   C192    1.465   .     S
C164   O223    1.287   .     A
C164   O222    1.298   .     A
C165   C167    1.396   .     A
C166   N216    1.429   .     S
C166   C168    1.408   .     A
C167   N217    1.426   .     S
C167   C169    1.407   .     A
C168   C174    1.399   .     A
C168   C170    1.417   .     A
C169   C176    1.400   .     A
C169   C171    1.416   .     A
C170   C172    1.428   .     A
C170   C855    1.420   .     S
C171   C173    1.429   .     A
C171   C854    1.420   1_554 S
C172   C186    1.421   .     A
C173   C175    1.424   .     A
C174   H195    1.082   .     S
C174   C859    1.389   .     S
C175   C181    1.447   .     S
C175   C858    1.389   1_554 S
C176   H201    1.081   .     S
C176   C870    1.386   1_554 S
C177   N214    1.157   .     T
C178   N215    1.157   .     T
C179   H207    1.110   .     S
C179   H196    1.110   .     S
C179   H208    1.110   .     S
C179   N216    1.448   .     S
C180   H199    1.109   .     S
C180   H198    1.110   .     S
C180   H200    1.110   .     S
C180   N217    1.445   .     S
C181   N218    1.158   .     T
C182   N219    1.158   .     T
C182   C186    1.448   .     S
C183   N220    1.158   .     T
C183   C188    1.455   .     S
C184   N210    1.158   .     T
C184   C189    1.456   .     S
C185   N211    1.157   .     T
C185   C190    1.453   .     S
C186   C860    1.386   .     S
C187   N212    1.157   .     T
C187   C191    1.455   .     S
C189   C192    1.417   .     A
C189   C39     1.393   1_655 S
C190   C192    1.414   .     A
C190   C36     1.398   1_655 S
Cu193  Cu194   2.679   .     S
Cu193  O223    1.978   .     S
Cu193  O227    1.968   .     S
Cu193  O221    1.978   .     S
Cu193  N209    2.013   .     S
Cu193  O225    1.970   .     S
Cu194  O222    1.978   .     S
Cu194  O226    1.970   .     S
Cu194  O224    1.978   .     S
Cu194  N213    2.013   .     S
Cu194  O228    1.968   .     S
H197   N217    1.031   .     S
H206   N216    1.031   .     S
C229   C230    1.460   .     S
C229   O300    1.291   .     A
C229   O297    1.291   .     A
C230   C267    1.412   .     A
C230   C264    1.413   .     A
C231   H278    1.081   .     S
C231   N289    1.367   .     A
C232   N285    1.367   .     A
C232   H279    1.081   .     S
C232   C461    1.415   .     S
C233   H280    1.080   .     S
C233   N289    1.367   .     A
C234   N285    1.367   .     A
C234   H281    1.080   .     S
C234   C459    1.415   .     S
C235   O301    1.293   .     A
C235   O304    1.288   .     A
C235   C241    1.458   .     S
C236   O302    1.290   .     A
C236   O303    1.288   .     A
C236   C239    1.452   .     S
C237   C253    1.453   .     S
C237   C248    1.418   .     A
C237   C239    1.402   .     A
C238   C254    1.452   .     S
C238   C249    1.423   .     A
C238   C241    1.405   .     A
C239   C242    1.398   .     A
C240   C268    1.465   .     S
C240   O299    1.287   .     A
C240   O298    1.298   .     A
C241   C243    1.396   .     A
C242   N292    1.429   .     S
C242   C244    1.408   .     A
C243   N293    1.426   .     S
C243   C245    1.407   .     A
C244   C250    1.399   .     A
C244   C246    1.417   .     A
C245   C252    1.400   .     A
C245   C247    1.416   .     A
C246   C248    1.428   .     A
C246   C931    1.420   .     S
C247   C249    1.429   .     A
C247   C930    1.420   1_554 S
C248   C262    1.421   .     A
C249   C251    1.424   .     A
C250   H271    1.082   .     S
C250   C935    1.389   .     S
C251   C257    1.447   .     S
C251   C934    1.389   1_554 S
C252   H277    1.081   .     S
C252   C946    1.386   1_554 S
C253   N290    1.157   .     T
C254   N291    1.157   .     T
C255   H283    1.110   .     S
C255   H272    1.110   .     S
C255   H284    1.110   .     S
C255   N292    1.448   .     S
C256   H275    1.109   .     S
C256   H274    1.110   .     S
C256   H276    1.110   .     S
C256   N293    1.445   .     S
C257   N294    1.158   .     T
C258   N295    1.158   .     T
C258   C262    1.448   .     S
C259   N296    1.158   .     T
C259   C264    1.455   .     S
C260   N286    1.158   .     T
C260   C265    1.456   .     S
C261   N287    1.157   .     T
C261   C266    1.453   .     S
C262   C936    1.386   .     S
C263   N288    1.157   .     T
C263   C267    1.455   .     S
C264   C418    1.398   1_455 S
C265   C268    1.417   .     A
C265   C343    1.393   .     S
C266   C268    1.414   .     A
C266   C340    1.398   .     S
C267   C417    1.393   1_455 S
Cu269  Cu270   2.679   .     S
Cu269  O299    1.978   .     S
Cu269  O303    1.968   .     S
Cu269  O297    1.978   .     S
Cu269  N285    2.013   .     S
Cu269  O301    1.970   .     S
Cu270  O298    1.978   .     S
Cu270  O302    1.970   .     S
Cu270  O300    1.978   .     S
Cu270  N289    2.013   .     S
Cu270  O304    1.968   .     S
H273   N293    1.031   .     S
H282   N292    1.031   .     S
C305   C306    1.460   .     S
C305   O376    1.291   .     A
C305   O373    1.291   .     A
C306   C343    1.412   .     A
C306   C340    1.413   .     A
C307   H354    1.081   .     S
C307   N365    1.367   .     A
C308   N361    1.367   .     A
C308   H355    1.081   .     S
C308   C537    1.415   .     S
C309   H356    1.080   .     S
C309   N365    1.367   .     A
C310   N361    1.367   .     A
C310   H357    1.080   .     S
C310   C535    1.415   .     S
C311   O377    1.293   .     A
C311   O380    1.288   .     A
C311   C317    1.458   .     S
C312   O378    1.290   .     A
C312   O379    1.288   .     A
C312   C315    1.452   .     S
C313   C329    1.453   .     S
C313   C324    1.418   .     A
C313   C315    1.402   .     A
C314   C330    1.452   .     S
C314   C325    1.423   .     A
C314   C317    1.405   .     A
C315   C318    1.398   .     A
C316   C344    1.465   .     S
C316   O375    1.287   .     A
C316   O374    1.298   .     A
C317   C319    1.396   .     A
C318   N368    1.429   .     S
C318   C320    1.408   .     A
C319   N369    1.426   .     S
C319   C321    1.407   .     A
C320   C326    1.399   .     A
C320   C322    1.417   .     A
C321   C328    1.400   .     A
C321   C323    1.416   .     A
C322   C324    1.428   .     A
C322   C1007   1.420   .     S
C323   C325    1.429   .     A
C323   C1006   1.420   1_554 S
C324   C338    1.421   .     A
C325   C327    1.424   .     A
C326   H347    1.082   .     S
C326   C1011   1.389   .     S
C327   C333    1.447   .     S
C327   C1010   1.389   1_554 S
C328   H353    1.081   .     S
C328   C1022   1.386   1_554 S
C329   N366    1.157   .     T
C330   N367    1.157   .     T
C331   H359    1.110   .     S
C331   H348    1.110   .     S
C331   H360    1.110   .     S
C331   N368    1.448   .     S
C332   H351    1.109   .     S
C332   H350    1.110   .     S
C332   H352    1.110   .     S
C332   N369    1.445   .     S
C333   N370    1.158   .     T
C334   N371    1.158   .     T
C334   C338    1.448   .     S
C335   N372    1.158   .     T
C335   C340    1.455   .     S
C336   N362    1.158   .     T
C336   C341    1.456   .     S
C337   N363    1.157   .     T
C337   C342    1.453   .     S
C338   C1012   1.386   .     S
C339   N364    1.157   .     T
C339   C343    1.455   .     S
C341   C344    1.417   .     A
C341   C419    1.393   .     S
C342   C344    1.414   .     A
C342   C416    1.398   .     S
Cu345  Cu346   2.679   .     S
Cu345  O375    1.978   .     S
Cu345  O379    1.968   .     S
Cu345  O373    1.978   .     S
Cu345  N361    2.013   .     S
Cu345  O377    1.970   .     S
Cu346  O374    1.978   .     S
Cu346  O378    1.970   .     S
Cu346  O376    1.978   .     S
Cu346  N365    2.013   .     S
Cu346  O380    1.968   .     S
H349   N369    1.031   .     S
H358   N368    1.031   .     S
C381   C382    1.460   .     S
C381   O452    1.291   .     A
C381   O449    1.291   .     A
C382   C419    1.412   .     A
C382   C416    1.413   .     A
C383   H430    1.081   .     S
C383   N441    1.367   .     A
C384   N437    1.367   .     A
C384   H431    1.081   .     S
C384   C613    1.415   .     S
C385   H432    1.080   .     S
C385   N441    1.367   .     A
C386   N437    1.367   .     A
C386   H433    1.080   .     S
C386   C611    1.415   .     S
C387   O453    1.293   .     A
C387   O456    1.288   .     A
C387   C393    1.458   .     S
C388   O454    1.290   .     A
C388   O455    1.288   .     A
C388   C391    1.452   .     S
C389   C405    1.453   .     S
C389   C400    1.418   .     A
C389   C391    1.402   .     A
C390   C406    1.452   .     S
C390   C401    1.423   .     A
C390   C393    1.405   .     A
C391   C394    1.398   .     A
C392   C420    1.465   .     S
C392   O451    1.287   .     A
C392   O450    1.298   .     A
C393   C395    1.396   .     A
C394   N444    1.429   .     S
C394   C396    1.408   .     A
C395   N445    1.426   .     S
C395   C397    1.407   .     A
C396   C402    1.399   .     A
C396   C398    1.417   .     A
C397   C404    1.400   .     A
C397   C399    1.416   .     A
C398   C400    1.428   .     A
C398   C1083   1.420   .     S
C399   C401    1.429   .     A
C399   C1082   1.420   1_554 S
C400   C414    1.421   .     A
C401   C403    1.424   .     A
C402   H423    1.082   .     S
C402   C1087   1.389   .     S
C403   C409    1.447   .     S
C403   C1086   1.389   1_554 S
C404   H429    1.081   .     S
C404   C1098   1.386   1_554 S
C405   N442    1.157   .     T
C406   N443    1.157   .     T
C407   H435    1.110   .     S
C407   H424    1.110   .     S
C407   H436    1.110   .     S
C407   N444    1.448   .     S
C408   H427    1.109   .     S
C408   H426    1.110   .     S
C408   H428    1.110   .     S
C408   N445    1.445   .     S
C409   N446    1.158   .     T
C410   N447    1.158   .     T
C410   C414    1.448   .     S
C411   N448    1.158   .     T
C411   C416    1.455   .     S
C412   N438    1.158   .     T
C412   C417    1.456   .     S
C413   N439    1.157   .     T
C413   C418    1.453   .     S
C414   C1088   1.386   .     S
C415   N440    1.157   .     T
C415   C419    1.455   .     S
C417   C420    1.417   .     A
C417   C267    1.393   1_655 S
C418   C420    1.414   .     A
C418   C264    1.398   1_655 S
Cu421  Cu422   2.679   .     S
Cu421  O451    1.978   .     S
Cu421  O455    1.968   .     S
Cu421  O449    1.978   .     S
Cu421  N437    2.013   .     S
Cu421  O453    1.970   .     S
Cu422  O450    1.978   .     S
Cu422  O454    1.970   .     S
Cu422  O452    1.978   .     S
Cu422  N441    2.013   .     S
Cu422  O456    1.968   .     S
H425   N445    1.031   .     S
H434   N444    1.031   .     S
C457   C458    1.460   .     S
C457   O528    1.291   .     A
C457   O525    1.291   .     A
C458   C495    1.412   .     A
C458   C492    1.413   .     A
C459   H506    1.081   .     S
C459   N517    1.367   .     A
C460   N513    1.367   .     A
C460   H507    1.081   .     S
C460   C5      1.415   1_565 S
C461   H508    1.080   .     S
C461   N517    1.367   .     A
C462   N513    1.367   .     A
C462   H509    1.080   .     S
C462   C3      1.415   1_565 S
C463   O529    1.293   .     A
C463   O532    1.288   .     A
C463   C469    1.458   .     S
C464   O530    1.290   .     A
C464   O531    1.288   .     A
C464   C467    1.452   .     S
C465   C481    1.453   .     S
C465   C476    1.418   .     A
C465   C467    1.402   .     A
C466   C482    1.452   .     S
C466   C477    1.423   .     A
C466   C469    1.405   .     A
C467   C470    1.398   .     A
C468   C496    1.465   .     S
C468   O527    1.287   .     A
C468   O526    1.298   .     A
C469   C471    1.396   .     A
C470   N520    1.429   .     S
C470   C472    1.408   .     A
C471   N521    1.426   .     S
C471   C473    1.407   .     A
C472   C478    1.399   .     A
C472   C474    1.417   .     A
C473   C480    1.400   .     A
C473   C475    1.416   .     A
C474   C476    1.428   .     A
C474   C1159   1.420   .     S
C475   C477    1.429   .     A
C475   C1158   1.420   1_554 S
C476   C490    1.421   .     A
C477   C479    1.424   .     A
C478   H499    1.082   .     S
C478   C1163   1.389   .     S
C479   C485    1.447   .     S
C479   C1162   1.389   1_554 S
C480   H505    1.081   .     S
C480   C1174   1.386   1_554 S
C481   N518    1.157   .     T
C482   N519    1.157   .     T
C483   H511    1.110   .     S
C483   H500    1.110   .     S
C483   H512    1.110   .     S
C483   N520    1.448   .     S
C484   H503    1.109   .     S
C484   H502    1.110   .     S
C484   H504    1.110   .     S
C484   N521    1.445   .     S
C485   N522    1.158   .     T
C486   N523    1.158   .     T
C486   C490    1.448   .     S
C487   N524    1.158   .     T
C487   C492    1.455   .     S
C488   N514    1.158   .     T
C488   C493    1.456   .     S
C489   N515    1.157   .     T
C489   C494    1.453   .     S
C490   C1164   1.386   .     S
C491   N516    1.157   .     T
C491   C495    1.455   .     S
C492   C646    1.398   1_455 S
C493   C496    1.417   .     A
C493   C571    1.393   .     S
C494   C496    1.414   .     A
C494   C568    1.398   .     S
C495   C645    1.393   1_455 S
Cu497  Cu498   2.679   .     S
Cu497  O527    1.978   .     S
Cu497  O531    1.968   .     S
Cu497  O525    1.978   .     S
Cu497  N513    2.013   .     S
Cu497  O529    1.970   .     S
Cu498  O526    1.978   .     S
Cu498  O530    1.970   .     S
Cu498  O528    1.978   .     S
Cu498  N517    2.013   .     S
Cu498  O532    1.968   .     S
H501   N521    1.031   .     S
H510   N520    1.031   .     S
C533   C534    1.460   .     S
C533   O604    1.291   .     A
C533   O601    1.291   .     A
C534   C571    1.412   .     A
C534   C568    1.413   .     A
C535   H582    1.081   .     S
C535   N593    1.367   .     A
C536   N589    1.367   .     A
C536   H583    1.081   .     S
C536   C81     1.415   1_565 S
C537   H584    1.080   .     S
C537   N593    1.367   .     A
C538   N589    1.367   .     A
C538   H585    1.080   .     S
C538   C79     1.415   1_565 S
C539   O605    1.293   .     A
C539   O608    1.288   .     A
C539   C545    1.458   .     S
C540   O606    1.290   .     A
C540   O607    1.288   .     A
C540   C543    1.452   .     S
C541   C557    1.453   .     S
C541   C552    1.418   .     A
C541   C543    1.402   .     A
C542   C558    1.452   .     S
C542   C553    1.423   .     A
C542   C545    1.405   .     A
C543   C546    1.398   .     A
C544   C572    1.465   .     S
C544   O603    1.287   .     A
C544   O602    1.298   .     A
C545   C547    1.396   .     A
C546   N596    1.429   .     S
C546   C548    1.408   .     A
C547   N597    1.426   .     S
C547   C549    1.407   .     A
C548   C554    1.399   .     A
C548   C550    1.417   .     A
C549   C556    1.400   .     A
C549   C551    1.416   .     A
C550   C552    1.428   .     A
C550   C1235   1.420   .     S
C551   C553    1.429   .     A
C551   C1234   1.420   1_554 S
C552   C566    1.421   .     A
C553   C555    1.424   .     A
C554   H575    1.082   .     S
C554   C1239   1.389   .     S
C555   C561    1.447   .     S
C555   C1238   1.389   1_554 S
C556   H581    1.081   .     S
C556   C1250   1.386   1_554 S
C557   N594    1.157   .     T
C558   N595    1.157   .     T
C559   H587    1.110   .     S
C559   H576    1.110   .     S
C559   H588    1.110   .     S
C559   N596    1.448   .     S
C560   H579    1.109   .     S
C560   H578    1.110   .     S
C560   H580    1.110   .     S
C560   N597    1.445   .     S
C561   N598    1.158   .     T
C562   N599    1.158   .     T
C562   C566    1.448   .     S
C563   N600    1.158   .     T
C563   C568    1.455   .     S
C564   N590    1.158   .     T
C564   C569    1.456   .     S
C565   N591    1.157   .     T
C565   C570    1.453   .     S
C566   C1240   1.386   .     S
C567   N592    1.157   .     T
C567   C571    1.455   .     S
C569   C572    1.417   .     A
C569   C647    1.393   .     S
C570   C572    1.414   .     A
C570   C644    1.398   .     S
Cu573  Cu574   2.679   .     S
Cu573  O603    1.978   .     S
Cu573  O607    1.968   .     S
Cu573  O601    1.978   .     S
Cu573  N589    2.013   .     S
Cu573  O605    1.970   .     S
Cu574  O602    1.978   .     S
Cu574  O606    1.970   .     S
Cu574  O604    1.978   .     S
Cu574  N593    2.013   .     S
Cu574  O608    1.968   .     S
H577   N597    1.031   .     S
H586   N596    1.031   .     S
C609   C610    1.460   .     S
C609   O680    1.291   .     A
C609   O677    1.291   .     A
C610   C647    1.412   .     A
C610   C644    1.413   .     A
C611   H658    1.081   .     S
C611   N669    1.367   .     A
C612   N665    1.367   .     A
C612   H659    1.081   .     S
C612   C157    1.415   1_565 S
C613   H660    1.080   .     S
C613   N669    1.367   .     A
C614   N665    1.367   .     A
C614   H661    1.080   .     S
C614   C155    1.415   1_565 S
C615   O681    1.293   .     A
C615   O684    1.288   .     A
C615   C621    1.458   .     S
C616   O682    1.290   .     A
C616   O683    1.288   .     A
C616   C619    1.452   .     S
C617   C633    1.453   .     S
C617   C628    1.418   .     A
C617   C619    1.402   .     A
C618   C634    1.452   .     S
C618   C629    1.423   .     A
C618   C621    1.405   .     A
C619   C622    1.398   .     A
C620   C648    1.465   .     S
C620   O679    1.287   .     A
C620   O678    1.298   .     A
C621   C623    1.396   .     A
C622   N672    1.429   .     S
C622   C624    1.408   .     A
C623   N673    1.426   .     S
C623   C625    1.407   .     A
C624   C630    1.399   .     A
C624   C626    1.417   .     A
C625   C632    1.400   .     A
C625   C627    1.416   .     A
C626   C628    1.428   .     A
C626   C1311   1.420   .     S
C627   C629    1.429   .     A
C627   C1310   1.420   1_554 S
C628   C642    1.421   .     A
C629   C631    1.424   .     A
C630   H651    1.082   .     S
C630   C1315   1.389   .     S
C631   C637    1.447   .     S
C631   C1314   1.389   1_554 S
C632   H657    1.081   .     S
C632   C1326   1.386   1_554 S
C633   N670    1.157   .     T
C634   N671    1.157   .     T
C635   H663    1.110   .     S
C635   H652    1.110   .     S
C635   H664    1.110   .     S
C635   N672    1.448   .     S
C636   H655    1.109   .     S
C636   H654    1.110   .     S
C636   H656    1.110   .     S
C636   N673    1.445   .     S
C637   N674    1.158   .     T
C638   N675    1.158   .     T
C638   C642    1.448   .     S
C639   N676    1.158   .     T
C639   C644    1.455   .     S
C640   N666    1.158   .     T
C640   C645    1.456   .     S
C641   N667    1.157   .     T
C641   C646    1.453   .     S
C642   C1316   1.386   .     S
C643   N668    1.157   .     T
C643   C647    1.455   .     S
C645   C648    1.417   .     A
C645   C495    1.393   1_655 S
C646   C648    1.414   .     A
C646   C492    1.398   1_655 S
Cu649  Cu650   2.679   .     S
Cu649  O679    1.978   .     S
Cu649  O683    1.968   .     S
Cu649  O677    1.978   .     S
Cu649  N665    2.013   .     S
Cu649  O681    1.970   .     S
Cu650  O678    1.978   .     S
Cu650  O682    1.970   .     S
Cu650  O680    1.978   .     S
Cu650  N669    2.013   .     S
Cu650  O684    1.968   .     S
H653   N673    1.031   .     S
H662   N672    1.031   .     S
C685   C686    1.460   .     S
C685   O756    1.291   .     A
C685   O753    1.291   .     A
C686   C723    1.412   .     A
C686   C720    1.413   .     A
C687   H734    1.081   .     S
C687   N745    1.367   .     A
C687   C1146   1.415   1_545 S
C688   N741    1.367   .     A
C688   H735    1.081   .     S
C688   C917    1.415   .     S
C689   H736    1.080   .     S
C689   N745    1.367   .     A
C689   C1144   1.415   1_545 S
C690   N741    1.367   .     A
C690   H737    1.080   .     S
C690   C915    1.415   .     S
C691   O757    1.293   .     A
C691   O760    1.288   .     A
C691   C697    1.458   .     S
C692   O758    1.290   .     A
C692   O759    1.288   .     A
C692   C695    1.452   .     S
C693   C709    1.453   .     S
C693   C704    1.418   .     A
C693   C695    1.402   .     A
C694   C710    1.452   .     S
C694   C705    1.423   .     A
C694   C697    1.405   .     A
C695   C698    1.398   .     A
C696   C724    1.465   .     S
C696   O755    1.287   .     A
C696   O754    1.298   .     A
C697   C699    1.396   .     A
C698   N748    1.429   .     S
C698   C700    1.408   .     A
C699   N749    1.426   .     S
C699   C701    1.407   .     A
C700   C706    1.399   .     A
C700   C702    1.417   .     A
C701   C708    1.400   .     A
C701   C703    1.416   .     A
C702   C704    1.428   .     A
C702   C19     1.420   1_556 S
C703   C705    1.429   .     A
C704   C718    1.421   .     A
C705   C707    1.424   .     A
C706   H727    1.082   .     S
C706   C23     1.389   1_556 S
C707   C713    1.447   .     S
C708   H733    1.081   .     S
C709   N746    1.157   .     T
C710   N747    1.157   .     T
C711   H739    1.110   .     S
C711   H728    1.110   .     S
C711   H740    1.110   .     S
C711   N748    1.448   .     S
C712   H731    1.109   .     S
C712   H730    1.110   .     S
C712   H732    1.110   .     S
C712   N749    1.445   .     S
C713   N750    1.158   .     T
C714   N751    1.158   .     T
C714   C718    1.448   .     S
C715   N752    1.158   .     T
C715   C720    1.455   .     S
C716   N742    1.158   .     T
C716   C721    1.456   .     S
C717   N743    1.157   .     T
C717   C722    1.453   .     S
C718   C24     1.386   1_556 S
C719   N744    1.157   .     T
C719   C723    1.455   .     S
C720   C874    1.398   1_455 S
C721   C724    1.417   .     A
C721   C799    1.393   .     S
C722   C724    1.414   .     A
C722   C796    1.398   .     S
C723   C873    1.393   1_455 S
Cu725  Cu726   2.679   .     S
Cu725  O755    1.978   .     S
Cu725  O759    1.968   .     S
Cu725  O753    1.978   .     S
Cu725  N741    2.013   .     S
Cu725  O757    1.970   .     S
Cu726  O754    1.978   .     S
Cu726  O758    1.970   .     S
Cu726  O756    1.978   .     S
Cu726  N745    2.013   .     S
Cu726  O760    1.968   .     S
H729   N749    1.031   .     S
H738   N748    1.031   .     S
C761   C762    1.460   .     S
C761   O832    1.291   .     A
C761   O829    1.291   .     A
C762   C799    1.412   .     A
C762   C796    1.413   .     A
C763   H810    1.081   .     S
C763   N821    1.367   .     A
C763   C1222   1.415   1_545 S
C764   N817    1.367   .     A
C764   H811    1.081   .     S
C764   C993    1.415   .     S
C765   H812    1.080   .     S
C765   N821    1.367   .     A
C765   C1220   1.415   1_545 S
C766   N817    1.367   .     A
C766   H813    1.080   .     S
C766   C991    1.415   .     S
C767   O833    1.293   .     A
C767   O836    1.288   .     A
C767   C773    1.458   .     S
C768   O834    1.290   .     A
C768   O835    1.288   .     A
C768   C771    1.452   .     S
C769   C785    1.453   .     S
C769   C780    1.418   .     A
C769   C771    1.402   .     A
C770   C786    1.452   .     S
C770   C781    1.423   .     A
C770   C773    1.405   .     A
C771   C774    1.398   .     A
C772   C800    1.465   .     S
C772   O831    1.287   .     A
C772   O830    1.298   .     A
C773   C775    1.396   .     A
C774   N824    1.429   .     S
C774   C776    1.408   .     A
C775   N825    1.426   .     S
C775   C777    1.407   .     A
C776   C782    1.399   .     A
C776   C778    1.417   .     A
C777   C784    1.400   .     A
C777   C779    1.416   .     A
C778   C780    1.428   .     A
C778   C95     1.420   1_556 S
C779   C781    1.429   .     A
C780   C794    1.421   .     A
C781   C783    1.424   .     A
C782   H803    1.082   .     S
C782   C99     1.389   1_556 S
C783   C789    1.447   .     S
C784   H809    1.081   .     S
C785   N822    1.157   .     T
C786   N823    1.157   .     T
C787   H815    1.110   .     S
C787   H804    1.110   .     S
C787   H816    1.110   .     S
C787   N824    1.448   .     S
C788   H807    1.109   .     S
C788   H806    1.110   .     S
C788   H808    1.110   .     S
C788   N825    1.445   .     S
C789   N826    1.158   .     T
C790   N827    1.158   .     T
C790   C794    1.448   .     S
C791   N828    1.158   .     T
C791   C796    1.455   .     S
C792   N818    1.158   .     T
C792   C797    1.456   .     S
C793   N819    1.157   .     T
C793   C798    1.453   .     S
C794   C100    1.386   1_556 S
C795   N820    1.157   .     T
C795   C799    1.455   .     S
C797   C800    1.417   .     A
C797   C875    1.393   .     S
C798   C800    1.414   .     A
C798   C872    1.398   .     S
Cu801  Cu802   2.679   .     S
Cu801  O831    1.978   .     S
Cu801  O835    1.968   .     S
Cu801  O829    1.978   .     S
Cu801  N817    2.013   .     S
Cu801  O833    1.970   .     S
Cu802  O830    1.978   .     S
Cu802  O834    1.970   .     S
Cu802  O832    1.978   .     S
Cu802  N821    2.013   .     S
Cu802  O836    1.968   .     S
H805   N825    1.031   .     S
H814   N824    1.031   .     S
C837   C838    1.460   .     S
C837   O908    1.291   .     A
C837   O905    1.291   .     A
C838   C875    1.412   .     A
C838   C872    1.413   .     A
C839   H886    1.081   .     S
C839   N897    1.367   .     A
C839   C1298   1.415   1_545 S
C840   N893    1.367   .     A
C840   H887    1.081   .     S
C840   C1069   1.415   .     S
C841   H888    1.080   .     S
C841   N897    1.367   .     A
C841   C1296   1.415   1_545 S
C842   N893    1.367   .     A
C842   H889    1.080   .     S
C842   C1067   1.415   .     S
C843   O909    1.293   .     A
C843   O912    1.288   .     A
C843   C849    1.458   .     S
C844   O910    1.290   .     A
C844   O911    1.288   .     A
C844   C847    1.452   .     S
C845   C861    1.453   .     S
C845   C856    1.418   .     A
C845   C847    1.402   .     A
C846   C862    1.452   .     S
C846   C857    1.423   .     A
C846   C849    1.405   .     A
C847   C850    1.398   .     A
C848   C876    1.465   .     S
C848   O907    1.287   .     A
C848   O906    1.298   .     A
C849   C851    1.396   .     A
C850   N900    1.429   .     S
C850   C852    1.408   .     A
C851   N901    1.426   .     S
C851   C853    1.407   .     A
C852   C858    1.399   .     A
C852   C854    1.417   .     A
C853   C860    1.400   .     A
C853   C855    1.416   .     A
C854   C856    1.428   .     A
C854   C171    1.420   1_556 S
C855   C857    1.429   .     A
C856   C870    1.421   .     A
C857   C859    1.424   .     A
C858   H879    1.082   .     S
C858   C175    1.389   1_556 S
C859   C865    1.447   .     S
C860   H885    1.081   .     S
C861   N898    1.157   .     T
C862   N899    1.157   .     T
C863   H891    1.110   .     S
C863   H880    1.110   .     S
C863   H892    1.110   .     S
C863   N900    1.448   .     S
C864   H883    1.109   .     S
C864   H882    1.110   .     S
C864   H884    1.110   .     S
C864   N901    1.445   .     S
C865   N902    1.158   .     T
C866   N903    1.158   .     T
C866   C870    1.448   .     S
C867   N904    1.158   .     T
C867   C872    1.455   .     S
C868   N894    1.158   .     T
C868   C873    1.456   .     S
C869   N895    1.157   .     T
C869   C874    1.453   .     S
C870   C176    1.386   1_556 S
C871   N896    1.157   .     T
C871   C875    1.455   .     S
C873   C876    1.417   .     A
C873   C723    1.393   1_655 S
C874   C876    1.414   .     A
C874   C720    1.398   1_655 S
Cu877  Cu878   2.679   .     S
Cu877  O907    1.978   .     S
Cu877  O911    1.968   .     S
Cu877  O905    1.978   .     S
Cu877  N893    2.013   .     S
Cu877  O909    1.970   .     S
Cu878  O906    1.978   .     S
Cu878  O910    1.970   .     S
Cu878  O908    1.978   .     S
Cu878  N897    2.013   .     S
Cu878  O912    1.968   .     S
H881   N901    1.031   .     S
H890   N900    1.031   .     S
C913   C914    1.460   .     S
C913   O984    1.291   .     A
C913   O981    1.291   .     A
C914   C951    1.412   .     A
C914   C948    1.413   .     A
C915   H962    1.081   .     S
C915   N973    1.367   .     A
C916   N969    1.367   .     A
C916   H963    1.081   .     S
C916   C1145   1.415   .     S
C917   H964    1.080   .     S
C917   N973    1.367   .     A
C918   N969    1.367   .     A
C918   H965    1.080   .     S
C918   C1143   1.415   .     S
C919   O985    1.293   .     A
C919   O988    1.288   .     A
C919   C925    1.458   .     S
C920   O986    1.290   .     A
C920   O987    1.288   .     A
C920   C923    1.452   .     S
C921   C937    1.453   .     S
C921   C932    1.418   .     A
C921   C923    1.402   .     A
C922   C938    1.452   .     S
C922   C933    1.423   .     A
C922   C925    1.405   .     A
C923   C926    1.398   .     A
C924   C952    1.465   .     S
C924   O983    1.287   .     A
C924   O982    1.298   .     A
C925   C927    1.396   .     A
C926   N976    1.429   .     S
C926   C928    1.408   .     A
C927   N977    1.426   .     S
C927   C929    1.407   .     A
C928   C934    1.399   .     A
C928   C930    1.417   .     A
C929   C936    1.400   .     A
C929   C931    1.416   .     A
C930   C932    1.428   .     A
C930   C247    1.420   1_556 S
C931   C933    1.429   .     A
C932   C946    1.421   .     A
C933   C935    1.424   .     A
C934   H955    1.082   .     S
C934   C251    1.389   1_556 S
C935   C941    1.447   .     S
C936   H961    1.081   .     S
C937   N974    1.157   .     T
C938   N975    1.157   .     T
C939   H967    1.110   .     S
C939   H956    1.110   .     S
C939   H968    1.110   .     S
C939   N976    1.448   .     S
C940   H959    1.109   .     S
C940   H958    1.110   .     S
C940   H960    1.110   .     S
C940   N977    1.445   .     S
C941   N978    1.158   .     T
C942   N979    1.158   .     T
C942   C946    1.448   .     S
C943   N980    1.158   .     T
C943   C948    1.455   .     S
C944   N970    1.158   .     T
C944   C949    1.456   .     S
C945   N971    1.157   .     T
C945   C950    1.453   .     S
C946   C252    1.386   1_556 S
C947   N972    1.157   .     T
C947   C951    1.455   .     S
C948   C1102   1.398   1_455 S
C949   C952    1.417   .     A
C949   C1027   1.393   .     S
C950   C952    1.414   .     A
C950   C1024   1.398   .     S
C951   C1101   1.393   1_455 S
Cu953  Cu954   2.679   .     S
Cu953  O983    1.978   .     S
Cu953  O987    1.968   .     S
Cu953  O981    1.978   .     S
Cu953  N969    2.013   .     S
Cu953  O985    1.970   .     S
Cu954  O982    1.978   .     S
Cu954  O986    1.970   .     S
Cu954  O984    1.978   .     S
Cu954  N973    2.013   .     S
Cu954  O988    1.968   .     S
H957   N977    1.031   .     S
H966   N976    1.031   .     S
C989   C990    1.460   .     S
C989   O1060   1.291   .     A
C989   O1057   1.291   .     A
C990   C1027   1.412   .     A
C990   C1024   1.413   .     A
C991   H1038   1.081   .     S
C991   N1049   1.367   .     A
C992   N1045   1.367   .     A
C992   H1039   1.081   .     S
C992   C1221   1.415   .     S
C993   H1040   1.080   .     S
C993   N1049   1.367   .     A
C994   N1045   1.367   .     A
C994   H1041   1.080   .     S
C994   C1219   1.415   .     S
C995   O1061   1.293   .     A
C995   O1064   1.288   .     A
C995   C1001   1.458   .     S
C996   O1062   1.290   .     A
C996   O1063   1.288   .     A
C996   C999    1.452   .     S
C997   C1013   1.453   .     S
C997   C1008   1.418   .     A
C997   C999    1.402   .     A
C998   C1014   1.452   .     S
C998   C1009   1.423   .     A
C998   C1001   1.405   .     A
C999   C1002   1.398   .     A
C1000  C1028   1.465   .     S
C1000  O1059   1.287   .     A
C1000  O1058   1.298   .     A
C1001  C1003   1.396   .     A
C1002  N1052   1.429   .     S
C1002  C1004   1.408   .     A
C1003  N1053   1.426   .     S
C1003  C1005   1.407   .     A
C1004  C1010   1.399   .     A
C1004  C1006   1.417   .     A
C1005  C1012   1.400   .     A
C1005  C1007   1.416   .     A
C1006  C1008   1.428   .     A
C1006  C323    1.420   1_556 S
C1007  C1009   1.429   .     A
C1008  C1022   1.421   .     A
C1009  C1011   1.424   .     A
C1010  H1031   1.082   .     S
C1010  C327    1.389   1_556 S
C1011  C1017   1.447   .     S
C1012  H1037   1.081   .     S
C1013  N1050   1.157   .     T
C1014  N1051   1.157   .     T
C1015  H1043   1.110   .     S
C1015  H1032   1.110   .     S
C1015  H1044   1.110   .     S
C1015  N1052   1.448   .     S
C1016  H1035   1.109   .     S
C1016  H1034   1.110   .     S
C1016  H1036   1.110   .     S
C1016  N1053   1.445   .     S
C1017  N1054   1.158   .     T
C1018  N1055   1.158   .     T
C1018  C1022   1.448   .     S
C1019  N1056   1.158   .     T
C1019  C1024   1.455   .     S
C1020  N1046   1.158   .     T
C1020  C1025   1.456   .     S
C1021  N1047   1.157   .     T
C1021  C1026   1.453   .     S
C1022  C328    1.386   1_556 S
C1023  N1048   1.157   .     T
C1023  C1027   1.455   .     S
C1025  C1028   1.417   .     A
C1025  C1103   1.393   .     S
C1026  C1028   1.414   .     A
C1026  C1100   1.398   .     S
Cu1029 Cu1030  2.679   .     S
Cu1029 O1059   1.978   .     S
Cu1029 O1063   1.968   .     S
Cu1029 O1057   1.978   .     S
Cu1029 N1045   2.013   .     S
Cu1029 O1061   1.970   .     S
Cu1030 O1058   1.978   .     S
Cu1030 O1062   1.970   .     S
Cu1030 O1060   1.978   .     S
Cu1030 N1049   2.013   .     S
Cu1030 O1064   1.968   .     S
H1033  N1053   1.031   .     S
H1042  N1052   1.031   .     S
C1065  C1066   1.460   .     S
C1065  O1136   1.291   .     A
C1065  O1133   1.291   .     A
C1066  C1103   1.412   .     A
C1066  C1100   1.413   .     A
C1067  H1114   1.081   .     S
C1067  N1125   1.367   .     A
C1068  N1121   1.367   .     A
C1068  H1115   1.081   .     S
C1068  C1297   1.415   .     S
C1069  H1116   1.080   .     S
C1069  N1125   1.367   .     A
C1070  N1121   1.367   .     A
C1070  H1117   1.080   .     S
C1070  C1295   1.415   .     S
C1071  O1137   1.293   .     A
C1071  O1140   1.288   .     A
C1071  C1077   1.458   .     S
C1072  O1138   1.290   .     A
C1072  O1139   1.288   .     A
C1072  C1075   1.452   .     S
C1073  C1089   1.453   .     S
C1073  C1084   1.418   .     A
C1073  C1075   1.402   .     A
C1074  C1090   1.452   .     S
C1074  C1085   1.423   .     A
C1074  C1077   1.405   .     A
C1075  C1078   1.398   .     A
C1076  C1104   1.465   .     S
C1076  O1135   1.287   .     A
C1076  O1134   1.298   .     A
C1077  C1079   1.396   .     A
C1078  N1128   1.429   .     S
C1078  C1080   1.408   .     A
C1079  N1129   1.426   .     S
C1079  C1081   1.407   .     A
C1080  C1086   1.399   .     A
C1080  C1082   1.417   .     A
C1081  C1088   1.400   .     A
C1081  C1083   1.416   .     A
C1082  C1084   1.428   .     A
C1082  C399    1.420   1_556 S
C1083  C1085   1.429   .     A
C1084  C1098   1.421   .     A
C1085  C1087   1.424   .     A
C1086  H1107   1.082   .     S
C1086  C403    1.389   1_556 S
C1087  C1093   1.447   .     S
C1088  H1113   1.081   .     S
C1089  N1126   1.157   .     T
C1090  N1127   1.157   .     T
C1091  H1119   1.110   .     S
C1091  H1108   1.110   .     S
C1091  H1120   1.110   .     S
C1091  N1128   1.448   .     S
C1092  H1111   1.109   .     S
C1092  H1110   1.110   .     S
C1092  H1112   1.110   .     S
C1092  N1129   1.445   .     S
C1093  N1130   1.158   .     T
C1094  N1131   1.158   .     T
C1094  C1098   1.448   .     S
C1095  N1132   1.158   .     T
C1095  C1100   1.455   .     S
C1096  N1122   1.158   .     T
C1096  C1101   1.456   .     S
C1097  N1123   1.157   .     T
C1097  C1102   1.453   .     S
C1098  C404    1.386   1_556 S
C1099  N1124   1.157   .     T
C1099  C1103   1.455   .     S
C1101  C1104   1.417   .     A
C1101  C951    1.393   1_655 S
C1102  C1104   1.414   .     A
C1102  C948    1.398   1_655 S
Cu1105 Cu1106  2.679   .     S
Cu1105 O1135   1.978   .     S
Cu1105 O1139   1.968   .     S
Cu1105 O1133   1.978   .     S
Cu1105 N1121   2.013   .     S
Cu1105 O1137   1.970   .     S
Cu1106 O1134   1.978   .     S
Cu1106 O1138   1.970   .     S
Cu1106 O1136   1.978   .     S
Cu1106 N1125   2.013   .     S
Cu1106 O1140   1.968   .     S
H1109  N1129   1.031   .     S
H1118  N1128   1.031   .     S
C1141  C1142   1.460   .     S
C1141  O1212   1.291   .     A
C1141  O1209   1.291   .     A
C1142  C1179   1.412   .     A
C1142  C1176   1.413   .     A
C1143  H1190   1.081   .     S
C1143  N1201   1.367   .     A
C1144  N1197   1.367   .     A
C1144  H1191   1.081   .     S
C1144  C689    1.415   1_565 S
C1145  H1192   1.080   .     S
C1145  N1201   1.367   .     A
C1146  N1197   1.367   .     A
C1146  H1193   1.080   .     S
C1146  C687    1.415   1_565 S
C1147  O1213   1.293   .     A
C1147  O1216   1.288   .     A
C1147  C1153   1.458   .     S
C1148  O1214   1.290   .     A
C1148  O1215   1.288   .     A
C1148  C1151   1.452   .     S
C1149  C1165   1.453   .     S
C1149  C1160   1.418   .     A
C1149  C1151   1.402   .     A
C1150  C1166   1.452   .     S
C1150  C1161   1.423   .     A
C1150  C1153   1.405   .     A
C1151  C1154   1.398   .     A
C1152  C1180   1.465   .     S
C1152  O1211   1.287   .     A
C1152  O1210   1.298   .     A
C1153  C1155   1.396   .     A
C1154  N1204   1.429   .     S
C1154  C1156   1.408   .     A
C1155  N1205   1.426   .     S
C1155  C1157   1.407   .     A
C1156  C1162   1.399   .     A
C1156  C1158   1.417   .     A
C1157  C1164   1.400   .     A
C1157  C1159   1.416   .     A
C1158  C1160   1.428   .     A
C1158  C475    1.420   1_556 S
C1159  C1161   1.429   .     A
C1160  C1174   1.421   .     A
C1161  C1163   1.424   .     A
C1162  H1183   1.082   .     S
C1162  C479    1.389   1_556 S
C1163  C1169   1.447   .     S
C1164  H1189   1.081   .     S
C1165  N1202   1.157   .     T
C1166  N1203   1.157   .     T
C1167  H1195   1.110   .     S
C1167  H1184   1.110   .     S
C1167  H1196   1.110   .     S
C1167  N1204   1.448   .     S
C1168  H1187   1.109   .     S
C1168  H1186   1.110   .     S
C1168  H1188   1.110   .     S
C1168  N1205   1.445   .     S
C1169  N1206   1.158   .     T
C1170  N1207   1.158   .     T
C1170  C1174   1.448   .     S
C1171  N1208   1.158   .     T
C1171  C1176   1.455   .     S
C1172  N1198   1.158   .     T
C1172  C1177   1.456   .     S
C1173  N1199   1.157   .     T
C1173  C1178   1.453   .     S
C1174  C480    1.386   1_556 S
C1175  N1200   1.157   .     T
C1175  C1179   1.455   .     S
C1176  C1330   1.398   1_455 S
C1177  C1180   1.417   .     A
C1177  C1255   1.393   .     S
C1178  C1180   1.414   .     A
C1178  C1252   1.398   .     S
C1179  C1329   1.393   1_455 S
Cu1181 Cu1182  2.679   .     S
Cu1181 O1211   1.978   .     S
Cu1181 O1215   1.968   .     S
Cu1181 O1209   1.978   .     S
Cu1181 N1197   2.013   .     S
Cu1181 O1213   1.970   .     S
Cu1182 O1210   1.978   .     S
Cu1182 O1214   1.970   .     S
Cu1182 O1212   1.978   .     S
Cu1182 N1201   2.013   .     S
Cu1182 O1216   1.968   .     S
H1185  N1205   1.031   .     S
H1194  N1204   1.031   .     S
C1217  C1218   1.460   .     S
C1217  O1288   1.291   .     A
C1217  O1285   1.291   .     A
C1218  C1255   1.412   .     A
C1218  C1252   1.413   .     A
C1219  H1266   1.081   .     S
C1219  N1277   1.367   .     A
C1220  N1273   1.367   .     A
C1220  H1267   1.081   .     S
C1220  C765    1.415   1_565 S
C1221  H1268   1.080   .     S
C1221  N1277   1.367   .     A
C1222  N1273   1.367   .     A
C1222  H1269   1.080   .     S
C1222  C763    1.415   1_565 S
C1223  O1289   1.293   .     A
C1223  O1292   1.288   .     A
C1223  C1229   1.458   .     S
C1224  O1290   1.290   .     A
C1224  O1291   1.288   .     A
C1224  C1227   1.452   .     S
C1225  C1241   1.453   .     S
C1225  C1236   1.418   .     A
C1225  C1227   1.402   .     A
C1226  C1242   1.452   .     S
C1226  C1237   1.423   .     A
C1226  C1229   1.405   .     A
C1227  C1230   1.398   .     A
C1228  C1256   1.465   .     S
C1228  O1287   1.287   .     A
C1228  O1286   1.298   .     A
C1229  C1231   1.396   .     A
C1230  N1280   1.429   .     S
C1230  C1232   1.408   .     A
C1231  N1281   1.426   .     S
C1231  C1233   1.407   .     A
C1232  C1238   1.399   .     A
C1232  C1234   1.417   .     A
C1233  C1240   1.400   .     A
C1233  C1235   1.416   .     A
C1234  C1236   1.428   .     A
C1234  C551    1.420   1_556 S
C1235  C1237   1.429   .     A
C1236  C1250   1.421   .     A
C1237  C1239   1.424   .     A
C1238  H1259   1.082   .     S
C1238  C555    1.389   1_556 S
C1239  C1245   1.447   .     S
C1240  H1265   1.081   .     S
C1241  N1278   1.157   .     T
C1242  N1279   1.157   .     T
C1243  H1271   1.110   .     S
C1243  H1260   1.110   .     S
C1243  H1272   1.110   .     S
C1243  N1280   1.448   .     S
C1244  H1263   1.109   .     S
C1244  H1262   1.110   .     S
C1244  H1264   1.110   .     S
C1244  N1281   1.445   .     S
C1245  N1282   1.158   .     T
C1246  N1283   1.158   .     T
C1246  C1250   1.448   .     S
C1247  N1284   1.158   .     T
C1247  C1252   1.455   .     S
C1248  N1274   1.158   .     T
C1248  C1253   1.456   .     S
C1249  N1275   1.157   .     T
C1249  C1254   1.453   .     S
C1250  C556    1.386   1_556 S
C1251  N1276   1.157   .     T
C1251  C1255   1.455   .     S
C1253  C1256   1.417   .     A
C1253  C1331   1.393   .     S
C1254  C1256   1.414   .     A
C1254  C1328   1.398   .     S
Cu1257 Cu1258  2.679   .     S
Cu1257 O1287   1.978   .     S
Cu1257 O1291   1.968   .     S
Cu1257 O1285   1.978   .     S
Cu1257 N1273   2.013   .     S
Cu1257 O1289   1.970   .     S
Cu1258 O1286   1.978   .     S
Cu1258 O1290   1.970   .     S
Cu1258 O1288   1.978   .     S
Cu1258 N1277   2.013   .     S
Cu1258 O1292   1.968   .     S
H1261  N1281   1.031   .     S
H1270  N1280   1.031   .     S
C1293  C1294   1.460   .     S
C1293  O1364   1.291   .     A
C1293  O1361   1.291   .     A
C1294  C1331   1.412   .     A
C1294  C1328   1.413   .     A
C1295  H1342   1.081   .     S
C1295  N1353   1.367   .     A
C1296  N1349   1.367   .     A
C1296  H1343   1.081   .     S
C1296  C841    1.415   1_565 S
C1297  H1344   1.080   .     S
C1297  N1353   1.367   .     A
C1298  N1349   1.367   .     A
C1298  H1345   1.080   .     S
C1298  C839    1.415   1_565 S
C1299  O1365   1.293   .     A
C1299  O1368   1.288   .     A
C1299  C1305   1.458   .     S
C1300  O1366   1.290   .     A
C1300  O1367   1.288   .     A
C1300  C1303   1.452   .     S
C1301  C1317   1.453   .     S
C1301  C1312   1.418   .     A
C1301  C1303   1.402   .     A
C1302  C1318   1.452   .     S
C1302  C1313   1.423   .     A
C1302  C1305   1.405   .     A
C1303  C1306   1.398   .     A
C1304  C1332   1.465   .     S
C1304  O1363   1.287   .     A
C1304  O1362   1.298   .     A
C1305  C1307   1.396   .     A
C1306  N1356   1.429   .     S
C1306  C1308   1.408   .     A
C1307  N1357   1.426   .     S
C1307  C1309   1.407   .     A
C1308  C1314   1.399   .     A
C1308  C1310   1.417   .     A
C1309  C1316   1.400   .     A
C1309  C1311   1.416   .     A
C1310  C1312   1.428   .     A
C1310  C627    1.420   1_556 S
C1311  C1313   1.429   .     A
C1312  C1326   1.421   .     A
C1313  C1315   1.424   .     A
C1314  H1335   1.082   .     S
C1314  C631    1.389   1_556 S
C1315  C1321   1.447   .     S
C1316  H1341   1.081   .     S
C1317  N1354   1.157   .     T
C1318  N1355   1.157   .     T
C1319  H1347   1.110   .     S
C1319  H1336   1.110   .     S
C1319  H1348   1.110   .     S
C1319  N1356   1.448   .     S
C1320  H1339   1.109   .     S
C1320  H1338   1.110   .     S
C1320  H1340   1.110   .     S
C1320  N1357   1.445   .     S
C1321  N1358   1.158   .     T
C1322  N1359   1.158   .     T
C1322  C1326   1.448   .     S
C1323  N1360   1.158   .     T
C1323  C1328   1.455   .     S
C1324  N1350   1.158   .     T
C1324  C1329   1.456   .     S
C1325  N1351   1.157   .     T
C1325  C1330   1.453   .     S
C1326  C632    1.386   1_556 S
C1327  N1352   1.157   .     T
C1327  C1331   1.455   .     S
C1329  C1332   1.417   .     A
C1329  C1179   1.393   1_655 S
C1330  C1332   1.414   .     A
C1330  C1176   1.398   1_655 S
Cu1333 Cu1334  2.679   .     S
Cu1333 O1363   1.978   .     S
Cu1333 O1367   1.968   .     S
Cu1333 O1361   1.978   .     S
Cu1333 N1349   2.013   .     S
Cu1333 O1365   1.970   .     S
Cu1334 O1362   1.978   .     S
Cu1334 O1366   1.970   .     S
Cu1334 O1364   1.978   .     S
Cu1334 N1353   2.013   .     S
Cu1334 O1368   1.968   .     S
H1337  N1357   1.031   .     S
H1346  N1356   1.031   .     S
