data_str_m2_o2_o10_pcu_sym.182
_audit_creation_date              2020-01-03
_audit_creation_method            'Materials Studio'
_symmetry_space_group_name_H-M    'P1'
_symmetry_Int_Tables_number       1
_symmetry_cell_setting            triclinic
loop_
_symmetry_equiv_pos_as_xyz
  x,y,z
_cell_length_a                    26.1701
_cell_length_b                    30.2816
_cell_length_c                    27.8461
_cell_angle_alpha                 89.3070
_cell_angle_beta                  97.2447
_cell_angle_gamma                 90.9498
loop_
_atom_site_label
_atom_site_type_symbol
_atom_site_fract_x
_atom_site_fract_y
_atom_site_fract_z
_atom_site_U_iso_or_equiv
_atom_site_adp_type
_atom_site_occupancy
C1     C     0.16628   0.16506   0.25020   0.00000  Uiso   1.00
C2     C     0.16610   0.33507   0.24977   0.00000  Uiso   1.00
C3     C     0.20655   0.26705   0.05728   0.00000  Uiso   1.00
C4     C     0.14617   0.21554   0.44495   0.00000  Uiso   1.00
C5     C     0.20686   0.26790   0.10783   0.00000  Uiso   1.00
C6     C     0.14546   0.21545   0.39427   0.00000  Uiso   1.00
C7     C     0.12481   0.23324   0.10062   0.00000  Uiso   1.00
C8     C     0.18606   0.28580   0.39666   0.00000  Uiso   1.00
C9     C     0.12127   0.23491   0.04936   0.00000  Uiso   1.00
C10    C     0.18381   0.28865   0.44713   0.00000  Uiso   1.00
C11    C     0.16349   0.25160   0.02682   0.00000  Uiso   1.00
C12    C     0.16415   0.25237   0.47237   0.00000  Uiso   1.00
C13    C     0.06803   0.24948   0.23778   0.00000  Uiso   1.00
C14    C     0.26532   0.25054   0.26224   0.00000  Uiso   1.00
C15    C     0.01293   0.24744   0.23121   0.00000  Uiso   1.00
C16    C     0.32045   0.25261   0.26890   0.00000  Uiso   1.00
C17    C     0.18618   0.04756   0.29135   0.00000  Uiso   1.00
C18    C     0.16904   0.45345   0.20753   0.00000  Uiso   1.00
C19    C     0.18670   0.09348   0.29151   0.00000  Uiso   1.00
C20    C     0.16921   0.40757   0.20716   0.00000  Uiso   1.00
C21    C     0.16498   0.11696   0.25054   0.00000  Uiso   1.00
C22    C     0.16453   0.38341   0.24964   0.00000  Uiso   1.00
C23    C     0.14185   0.09422   0.20977   0.00000  Uiso   1.00
C24    C     0.15808   0.40583   0.29225   0.00000  Uiso   1.00
C25    C     0.14032   0.04834   0.20997   0.00000  Uiso   1.00
C26    C     0.15680   0.45169   0.29240   0.00000  Uiso   1.00
C27    C     0.16292   0.02456   0.25058   0.00000  Uiso   1.00
C28    C     0.16280   0.47595   0.25016   0.00000  Uiso   1.00
Cu29   Cu    0.16667   0.25000   0.29821   0.00000  Uiso   1.00
Cu30   Cu    0.16667   0.25001   0.20178   0.00000  Uiso   1.00
H31    H     0.32690   0.24082   0.19521   0.00000  Uiso   1.00
H32    H     0.00651   0.25917   0.30497   0.00000  Uiso   1.00
H33    H     0.20475   0.03014   0.32281   0.00000  Uiso   1.00
H34    H     0.17447   0.47125   0.17456   0.00000  Uiso   1.00
H35    H     0.20505   0.11063   0.32317   0.00000  Uiso   1.00
H36    H     0.17331   0.39117   0.17371   0.00000  Uiso   1.00
H37    H     0.12428   0.11194   0.17805   0.00000  Uiso   1.00
H38    H     0.15364   0.38799   0.32546   0.00000  Uiso   1.00
H39    H     0.12109   0.03154   0.17848   0.00000  Uiso   1.00
H40    H     0.15074   0.46809   0.32550   0.00000  Uiso   1.00
H41    H     0.24016   0.27933   0.04200   0.00000  Uiso   1.00
H42    H     0.13206   0.18661   0.46267   0.00000  Uiso   1.00
H43    H     0.09290   0.21948   0.11730   0.00000  Uiso   1.00
H44    H     0.20222   0.31321   0.37810   0.00000  Uiso   1.00
N45    N     0.16667   0.25001   0.12934   0.00000  Uiso   1.00
N46    N     0.16667   0.24999   0.37065   0.00000  Uiso   1.00
O47    O     0.16667   0.18572   0.29071   0.00000  Uiso   1.00
O48    O     0.16666   0.31428   0.20928   0.00000  Uiso   1.00
O49    O     0.16667   0.18573   0.20928   0.00000  Uiso   1.00
O50    O     0.16666   0.31427   0.29072   0.00000  Uiso   1.00
O51    O     0.09161   0.25000   0.28132   0.00000  Uiso   1.00
O52    O     0.24172   0.25000   0.21868   0.00000  Uiso   1.00
O53    O     0.09161   0.25000   0.19988   0.00000  Uiso   1.00
O54    O     0.24172   0.25000   0.30011   0.00000  Uiso   1.00
N55    N     0.24939   0.28837   0.13596   0.00000  Uiso   1.00
H56    H     0.28423   0.27604   0.12915   0.00000  Uiso   1.00
C57    C     0.24943   0.33620   0.13494   0.00000  Uiso   1.00
H58    H     0.27854   0.34902   0.11225   0.00000  Uiso   1.00
H59    H     0.25951   0.34858   0.17234   0.00000  Uiso   1.00
H60    H     0.21124   0.34932   0.11984   0.00000  Uiso   1.00
N61    N     0.12267   0.17883   0.36799   0.00000  Uiso   1.00
H62    H     0.14060   0.14954   0.37839   0.00000  Uiso   1.00
C63    C     0.06735   0.17500   0.36662   0.00000  Uiso   1.00
H64    H     0.05700   0.16490   0.40271   0.00000  Uiso   1.00
H65    H     0.05227   0.14966   0.33978   0.00000  Uiso   1.00
H66    H     0.04895   0.20690   0.35579   0.00000  Uiso   1.00
N67    N     0.07492   0.22036   0.02131   0.00000  Uiso   1.00
H68    H     0.05471   0.19658   0.03831   0.00000  Uiso   1.00
C69    C     0.04209   0.25561   0.00089   0.00000  Uiso   1.00
H70    H     0.00802   0.24133   0.47819   0.00000  Uiso   1.00
H71    H     0.06293   0.27771   0.47760   0.00000  Uiso   1.00
H72    H     0.02859   0.27517   0.03026   0.00000  Uiso   1.00
N73    N     0.20074   0.32829   0.47159   0.00000  Uiso   1.00
H74    H     0.22825   0.34588   0.45554   0.00000  Uiso   1.00
C75    C     0.15959   0.35609   0.48303   0.00000  Uiso   1.00
H76    H     0.17625   0.38520   0.00364   0.00000  Uiso   1.00
H77    H     0.13415   0.33793   0.00576   0.00000  Uiso   1.00
H78    H     0.13641   0.36779   0.44920   0.00000  Uiso   1.00
C79    C     0.49962   0.16506   0.25020   0.00000  Uiso   1.00
C80    C     0.49943   0.33507   0.24977   0.00000  Uiso   1.00
C81    C     0.53988   0.26705   0.05728   0.00000  Uiso   1.00
C82    C     0.47950   0.21554   0.44495   0.00000  Uiso   1.00
C83    C     0.54019   0.26790   0.10783   0.00000  Uiso   1.00
C84    C     0.47879   0.21545   0.39427   0.00000  Uiso   1.00
C85    C     0.45814   0.23324   0.10062   0.00000  Uiso   1.00
C86    C     0.51939   0.28580   0.39666   0.00000  Uiso   1.00
C87    C     0.45460   0.23491   0.04936   0.00000  Uiso   1.00
C88    C     0.51714   0.28865   0.44713   0.00000  Uiso   1.00
C89    C     0.49683   0.25160   0.02682   0.00000  Uiso   1.00
C90    C     0.49748   0.25237   0.47237   0.00000  Uiso   1.00
C91    C     0.40136   0.24948   0.23778   0.00000  Uiso   1.00
C92    C     0.59865   0.25054   0.26224   0.00000  Uiso   1.00
C93    C     0.34626   0.24744   0.23121   0.00000  Uiso   1.00
C94    C     0.65378   0.25261   0.26890   0.00000  Uiso   1.00
C95    C     0.51951   0.04756   0.29135   0.00000  Uiso   1.00
C96    C     0.50238   0.45345   0.20753   0.00000  Uiso   1.00
C97    C     0.52003   0.09348   0.29151   0.00000  Uiso   1.00
C98    C     0.50254   0.40757   0.20716   0.00000  Uiso   1.00
C99    C     0.49831   0.11696   0.25054   0.00000  Uiso   1.00
C100   C     0.49786   0.38341   0.24964   0.00000  Uiso   1.00
C101   C     0.47519   0.09422   0.20977   0.00000  Uiso   1.00
C102   C     0.49141   0.40583   0.29225   0.00000  Uiso   1.00
C103   C     0.47365   0.04834   0.20997   0.00000  Uiso   1.00
C104   C     0.49013   0.45169   0.29240   0.00000  Uiso   1.00
C105   C     0.49625   0.02456   0.25058   0.00000  Uiso   1.00
C106   C     0.49614   0.47595   0.25016   0.00000  Uiso   1.00
Cu107  Cu    0.50000   0.25000   0.29821   0.00000  Uiso   1.00
Cu108  Cu    0.50000   0.25001   0.20178   0.00000  Uiso   1.00
H109   H     0.66023   0.24082   0.19521   0.00000  Uiso   1.00
H110   H     0.33984   0.25917   0.30497   0.00000  Uiso   1.00
H111   H     0.53809   0.03014   0.32281   0.00000  Uiso   1.00
H112   H     0.50780   0.47125   0.17456   0.00000  Uiso   1.00
H113   H     0.53838   0.11063   0.32317   0.00000  Uiso   1.00
H114   H     0.50664   0.39117   0.17371   0.00000  Uiso   1.00
H115   H     0.45762   0.11194   0.17805   0.00000  Uiso   1.00
H116   H     0.48698   0.38799   0.32546   0.00000  Uiso   1.00
H117   H     0.45443   0.03154   0.17848   0.00000  Uiso   1.00
H118   H     0.48407   0.46809   0.32550   0.00000  Uiso   1.00
H119   H     0.57349   0.27933   0.04200   0.00000  Uiso   1.00
H120   H     0.46539   0.18661   0.46267   0.00000  Uiso   1.00
H121   H     0.42624   0.21948   0.11730   0.00000  Uiso   1.00
H122   H     0.53556   0.31321   0.37810   0.00000  Uiso   1.00
N123   N     0.50000   0.25001   0.12934   0.00000  Uiso   1.00
N124   N     0.50000   0.24999   0.37065   0.00000  Uiso   1.00
O125   O     0.50000   0.18572   0.29071   0.00000  Uiso   1.00
O126   O     0.50000   0.31428   0.20928   0.00000  Uiso   1.00
O127   O     0.50000   0.18573   0.20928   0.00000  Uiso   1.00
O128   O     0.50000   0.31427   0.29072   0.00000  Uiso   1.00
O129   O     0.42495   0.25000   0.28132   0.00000  Uiso   1.00
O130   O     0.57505   0.25000   0.21868   0.00000  Uiso   1.00
O131   O     0.42495   0.25000   0.19988   0.00000  Uiso   1.00
O132   O     0.57505   0.25000   0.30011   0.00000  Uiso   1.00
N133   N     0.58272   0.28837   0.13596   0.00000  Uiso   1.00
H134   H     0.61756   0.27604   0.12915   0.00000  Uiso   1.00
C135   C     0.58276   0.33620   0.13494   0.00000  Uiso   1.00
H136   H     0.61187   0.34902   0.11225   0.00000  Uiso   1.00
H137   H     0.59284   0.34858   0.17234   0.00000  Uiso   1.00
H138   H     0.54458   0.34932   0.11984   0.00000  Uiso   1.00
N139   N     0.45600   0.17883   0.36799   0.00000  Uiso   1.00
H140   H     0.47394   0.14954   0.37839   0.00000  Uiso   1.00
C141   C     0.40068   0.17500   0.36662   0.00000  Uiso   1.00
H142   H     0.39034   0.16490   0.40271   0.00000  Uiso   1.00
H143   H     0.38560   0.14966   0.33978   0.00000  Uiso   1.00
H144   H     0.38229   0.20690   0.35579   0.00000  Uiso   1.00
N145   N     0.40826   0.22036   0.02131   0.00000  Uiso   1.00
H146   H     0.38805   0.19658   0.03831   0.00000  Uiso   1.00
C147   C     0.37543   0.25561   0.00089   0.00000  Uiso   1.00
H148   H     0.34136   0.24133   0.47819   0.00000  Uiso   1.00
H149   H     0.39626   0.27771   0.47760   0.00000  Uiso   1.00
H150   H     0.36192   0.27517   0.03026   0.00000  Uiso   1.00
N151   N     0.53407   0.32829   0.47159   0.00000  Uiso   1.00
H152   H     0.56158   0.34588   0.45554   0.00000  Uiso   1.00
C153   C     0.49292   0.35609   0.48303   0.00000  Uiso   1.00
H154   H     0.50958   0.38520   0.00364   0.00000  Uiso   1.00
H155   H     0.46748   0.33793   0.00576   0.00000  Uiso   1.00
H156   H     0.46975   0.36779   0.44920   0.00000  Uiso   1.00
C157   C     0.83295   0.16506   0.25020   0.00000  Uiso   1.00
C158   C     0.83277   0.33507   0.24977   0.00000  Uiso   1.00
C159   C     0.87321   0.26705   0.05728   0.00000  Uiso   1.00
C160   C     0.81284   0.21554   0.44495   0.00000  Uiso   1.00
C161   C     0.87352   0.26790   0.10783   0.00000  Uiso   1.00
C162   C     0.81213   0.21545   0.39427   0.00000  Uiso   1.00
C163   C     0.79147   0.23324   0.10062   0.00000  Uiso   1.00
C164   C     0.85273   0.28580   0.39666   0.00000  Uiso   1.00
C165   C     0.78794   0.23491   0.04936   0.00000  Uiso   1.00
C166   C     0.85048   0.28865   0.44713   0.00000  Uiso   1.00
C167   C     0.83016   0.25160   0.02682   0.00000  Uiso   1.00
C168   C     0.83082   0.25237   0.47237   0.00000  Uiso   1.00
C169   C     0.73470   0.24948   0.23778   0.00000  Uiso   1.00
C170   C     0.93198   0.25054   0.26224   0.00000  Uiso   1.00
C171   C     0.67959   0.24744   0.23121   0.00000  Uiso   1.00
C172   C     0.98711   0.25261   0.26890   0.00000  Uiso   1.00
C173   C     0.85284   0.04756   0.29135   0.00000  Uiso   1.00
C174   C     0.83571   0.45345   0.20753   0.00000  Uiso   1.00
C175   C     0.85336   0.09348   0.29151   0.00000  Uiso   1.00
C176   C     0.83587   0.40757   0.20716   0.00000  Uiso   1.00
C177   C     0.83164   0.11696   0.25054   0.00000  Uiso   1.00
C178   C     0.83119   0.38341   0.24964   0.00000  Uiso   1.00
C179   C     0.80852   0.09422   0.20977   0.00000  Uiso   1.00
C180   C     0.82474   0.40583   0.29225   0.00000  Uiso   1.00
C181   C     0.80698   0.04834   0.20997   0.00000  Uiso   1.00
C182   C     0.82347   0.45169   0.29240   0.00000  Uiso   1.00
C183   C     0.82958   0.02456   0.25058   0.00000  Uiso   1.00
C184   C     0.82947   0.47595   0.25016   0.00000  Uiso   1.00
Cu185  Cu    0.83333   0.25000   0.29821   0.00000  Uiso   1.00
Cu186  Cu    0.83333   0.25001   0.20178   0.00000  Uiso   1.00
H187   H     0.99356   0.24082   0.19521   0.00000  Uiso   1.00
H188   H     0.67317   0.25917   0.30497   0.00000  Uiso   1.00
H189   H     0.87142   0.03014   0.32281   0.00000  Uiso   1.00
H190   H     0.84114   0.47125   0.17456   0.00000  Uiso   1.00
H191   H     0.87172   0.11063   0.32317   0.00000  Uiso   1.00
H192   H     0.83998   0.39117   0.17371   0.00000  Uiso   1.00
H193   H     0.79095   0.11194   0.17805   0.00000  Uiso   1.00
H194   H     0.82031   0.38799   0.32546   0.00000  Uiso   1.00
H195   H     0.78776   0.03154   0.17848   0.00000  Uiso   1.00
H196   H     0.81740   0.46809   0.32550   0.00000  Uiso   1.00
H197   H     0.90683   0.27933   0.04200   0.00000  Uiso   1.00
H198   H     0.79873   0.18661   0.46267   0.00000  Uiso   1.00
H199   H     0.75957   0.21948   0.11730   0.00000  Uiso   1.00
H200   H     0.86889   0.31321   0.37810   0.00000  Uiso   1.00
N201   N     0.83333   0.25001   0.12934   0.00000  Uiso   1.00
N202   N     0.83333   0.24999   0.37065   0.00000  Uiso   1.00
O203   O     0.83334   0.18572   0.29071   0.00000  Uiso   1.00
O204   O     0.83333   0.31428   0.20928   0.00000  Uiso   1.00
O205   O     0.83334   0.18573   0.20928   0.00000  Uiso   1.00
O206   O     0.83333   0.31427   0.29072   0.00000  Uiso   1.00
O207   O     0.75828   0.25000   0.28132   0.00000  Uiso   1.00
O208   O     0.90839   0.25000   0.21868   0.00000  Uiso   1.00
O209   O     0.75828   0.25000   0.19988   0.00000  Uiso   1.00
O210   O     0.90839   0.25000   0.30011   0.00000  Uiso   1.00
N211   N     0.91605   0.28837   0.13596   0.00000  Uiso   1.00
H212   H     0.95090   0.27604   0.12915   0.00000  Uiso   1.00
C213   C     0.91610   0.33620   0.13494   0.00000  Uiso   1.00
H214   H     0.94520   0.34902   0.11225   0.00000  Uiso   1.00
H215   H     0.92618   0.34858   0.17234   0.00000  Uiso   1.00
H216   H     0.87791   0.34932   0.11984   0.00000  Uiso   1.00
N217   N     0.78934   0.17883   0.36799   0.00000  Uiso   1.00
H218   H     0.80727   0.14954   0.37839   0.00000  Uiso   1.00
C219   C     0.73402   0.17500   0.36662   0.00000  Uiso   1.00
H220   H     0.72367   0.16490   0.40271   0.00000  Uiso   1.00
H221   H     0.71893   0.14966   0.33978   0.00000  Uiso   1.00
H222   H     0.71562   0.20690   0.35579   0.00000  Uiso   1.00
N223   N     0.74159   0.22036   0.02131   0.00000  Uiso   1.00
H224   H     0.72138   0.19658   0.03831   0.00000  Uiso   1.00
C225   C     0.70876   0.25561   0.00089   0.00000  Uiso   1.00
H226   H     0.67469   0.24133   0.47819   0.00000  Uiso   1.00
H227   H     0.72959   0.27771   0.47760   0.00000  Uiso   1.00
H228   H     0.69525   0.27517   0.03026   0.00000  Uiso   1.00
N229   N     0.86740   0.32829   0.47159   0.00000  Uiso   1.00
H230   H     0.89491   0.34588   0.45554   0.00000  Uiso   1.00
C231   C     0.82626   0.35609   0.48303   0.00000  Uiso   1.00
H232   H     0.84292   0.38520   0.00364   0.00000  Uiso   1.00
H233   H     0.80082   0.33793   0.00576   0.00000  Uiso   1.00
H234   H     0.80308   0.36779   0.44920   0.00000  Uiso   1.00
C235   C     0.16628   0.66506   0.25020   0.00000  Uiso   1.00
C236   C     0.16610   0.83507   0.24977   0.00000  Uiso   1.00
C237   C     0.20655   0.76705   0.05728   0.00000  Uiso   1.00
C238   C     0.14617   0.71554   0.44495   0.00000  Uiso   1.00
C239   C     0.20686   0.76790   0.10783   0.00000  Uiso   1.00
C240   C     0.14546   0.71545   0.39427   0.00000  Uiso   1.00
C241   C     0.12481   0.73324   0.10062   0.00000  Uiso   1.00
C242   C     0.18606   0.78580   0.39666   0.00000  Uiso   1.00
C243   C     0.12127   0.73491   0.04936   0.00000  Uiso   1.00
C244   C     0.18381   0.78865   0.44713   0.00000  Uiso   1.00
C245   C     0.16349   0.75160   0.02682   0.00000  Uiso   1.00
C246   C     0.16415   0.75237   0.47237   0.00000  Uiso   1.00
C247   C     0.06803   0.74948   0.23778   0.00000  Uiso   1.00
C248   C     0.26532   0.75054   0.26224   0.00000  Uiso   1.00
C249   C     0.01293   0.74744   0.23121   0.00000  Uiso   1.00
C250   C     0.32045   0.75261   0.26890   0.00000  Uiso   1.00
C251   C     0.18618   0.54756   0.29135   0.00000  Uiso   1.00
C252   C     0.16904   0.95345   0.20753   0.00000  Uiso   1.00
C253   C     0.18670   0.59348   0.29151   0.00000  Uiso   1.00
C254   C     0.16921   0.90757   0.20716   0.00000  Uiso   1.00
C255   C     0.16498   0.61696   0.25054   0.00000  Uiso   1.00
C256   C     0.16453   0.88341   0.24964   0.00000  Uiso   1.00
C257   C     0.14185   0.59422   0.20977   0.00000  Uiso   1.00
C258   C     0.15808   0.90583   0.29225   0.00000  Uiso   1.00
C259   C     0.14032   0.54834   0.20997   0.00000  Uiso   1.00
C260   C     0.15680   0.95169   0.29240   0.00000  Uiso   1.00
C261   C     0.16292   0.52456   0.25058   0.00000  Uiso   1.00
C262   C     0.16280   0.97595   0.25016   0.00000  Uiso   1.00
Cu263  Cu    0.16667   0.75000   0.29821   0.00000  Uiso   1.00
Cu264  Cu    0.16667   0.75001   0.20178   0.00000  Uiso   1.00
H265   H     0.32690   0.74082   0.19521   0.00000  Uiso   1.00
H266   H     0.00651   0.75917   0.30497   0.00000  Uiso   1.00
H267   H     0.20475   0.53014   0.32281   0.00000  Uiso   1.00
H268   H     0.17447   0.97125   0.17456   0.00000  Uiso   1.00
H269   H     0.20505   0.61063   0.32317   0.00000  Uiso   1.00
H270   H     0.17331   0.89117   0.17371   0.00000  Uiso   1.00
H271   H     0.12428   0.61194   0.17805   0.00000  Uiso   1.00
H272   H     0.15364   0.88799   0.32546   0.00000  Uiso   1.00
H273   H     0.12109   0.53154   0.17848   0.00000  Uiso   1.00
H274   H     0.15074   0.96809   0.32550   0.00000  Uiso   1.00
H275   H     0.24016   0.77933   0.04200   0.00000  Uiso   1.00
H276   H     0.13206   0.68661   0.46267   0.00000  Uiso   1.00
H277   H     0.09290   0.71948   0.11730   0.00000  Uiso   1.00
H278   H     0.20222   0.81321   0.37810   0.00000  Uiso   1.00
N279   N     0.16667   0.75001   0.12934   0.00000  Uiso   1.00
N280   N     0.16667   0.74999   0.37065   0.00000  Uiso   1.00
O281   O     0.16667   0.68572   0.29071   0.00000  Uiso   1.00
O282   O     0.16666   0.81428   0.20928   0.00000  Uiso   1.00
O283   O     0.16667   0.68573   0.20928   0.00000  Uiso   1.00
O284   O     0.16666   0.81427   0.29072   0.00000  Uiso   1.00
O285   O     0.09161   0.75000   0.28132   0.00000  Uiso   1.00
O286   O     0.24172   0.75000   0.21868   0.00000  Uiso   1.00
O287   O     0.09161   0.75000   0.19988   0.00000  Uiso   1.00
O288   O     0.24172   0.75000   0.30011   0.00000  Uiso   1.00
N289   N     0.24939   0.78837   0.13596   0.00000  Uiso   1.00
H290   H     0.28423   0.77604   0.12915   0.00000  Uiso   1.00
C291   C     0.24943   0.83620   0.13494   0.00000  Uiso   1.00
H292   H     0.27854   0.84902   0.11225   0.00000  Uiso   1.00
H293   H     0.25951   0.84858   0.17234   0.00000  Uiso   1.00
H294   H     0.21124   0.84932   0.11984   0.00000  Uiso   1.00
N295   N     0.12267   0.67883   0.36799   0.00000  Uiso   1.00
H296   H     0.14060   0.64954   0.37839   0.00000  Uiso   1.00
C297   C     0.06735   0.67500   0.36662   0.00000  Uiso   1.00
H298   H     0.05700   0.66490   0.40271   0.00000  Uiso   1.00
H299   H     0.05227   0.64966   0.33978   0.00000  Uiso   1.00
H300   H     0.04895   0.70690   0.35579   0.00000  Uiso   1.00
N301   N     0.07492   0.72036   0.02131   0.00000  Uiso   1.00
H302   H     0.05471   0.69658   0.03831   0.00000  Uiso   1.00
C303   C     0.04209   0.75561   0.00089   0.00000  Uiso   1.00
H304   H     0.00802   0.74133   0.47819   0.00000  Uiso   1.00
H305   H     0.06293   0.77771   0.47760   0.00000  Uiso   1.00
H306   H     0.02859   0.77517   0.03026   0.00000  Uiso   1.00
N307   N     0.20074   0.82829   0.47159   0.00000  Uiso   1.00
H308   H     0.22825   0.84588   0.45554   0.00000  Uiso   1.00
C309   C     0.15959   0.85609   0.48303   0.00000  Uiso   1.00
H310   H     0.17625   0.88520   0.00364   0.00000  Uiso   1.00
H311   H     0.13415   0.83793   0.00576   0.00000  Uiso   1.00
H312   H     0.13641   0.86779   0.44920   0.00000  Uiso   1.00
C313   C     0.49962   0.66506   0.25020   0.00000  Uiso   1.00
C314   C     0.49943   0.83507   0.24977   0.00000  Uiso   1.00
C315   C     0.53988   0.76705   0.05728   0.00000  Uiso   1.00
C316   C     0.47950   0.71554   0.44495   0.00000  Uiso   1.00
C317   C     0.54019   0.76790   0.10783   0.00000  Uiso   1.00
C318   C     0.47879   0.71545   0.39427   0.00000  Uiso   1.00
C319   C     0.45814   0.73324   0.10062   0.00000  Uiso   1.00
C320   C     0.51939   0.78580   0.39666   0.00000  Uiso   1.00
C321   C     0.45460   0.73491   0.04936   0.00000  Uiso   1.00
C322   C     0.51714   0.78865   0.44713   0.00000  Uiso   1.00
C323   C     0.49683   0.75160   0.02682   0.00000  Uiso   1.00
C324   C     0.49748   0.75237   0.47237   0.00000  Uiso   1.00
C325   C     0.40136   0.74948   0.23778   0.00000  Uiso   1.00
C326   C     0.59865   0.75054   0.26224   0.00000  Uiso   1.00
C327   C     0.34626   0.74744   0.23121   0.00000  Uiso   1.00
C328   C     0.65378   0.75261   0.26890   0.00000  Uiso   1.00
C329   C     0.51951   0.54756   0.29135   0.00000  Uiso   1.00
C330   C     0.50238   0.95345   0.20753   0.00000  Uiso   1.00
C331   C     0.52003   0.59348   0.29151   0.00000  Uiso   1.00
C332   C     0.50254   0.90757   0.20716   0.00000  Uiso   1.00
C333   C     0.49831   0.61696   0.25054   0.00000  Uiso   1.00
C334   C     0.49786   0.88341   0.24964   0.00000  Uiso   1.00
C335   C     0.47519   0.59422   0.20977   0.00000  Uiso   1.00
C336   C     0.49141   0.90583   0.29225   0.00000  Uiso   1.00
C337   C     0.47365   0.54834   0.20997   0.00000  Uiso   1.00
C338   C     0.49013   0.95169   0.29240   0.00000  Uiso   1.00
C339   C     0.49625   0.52456   0.25058   0.00000  Uiso   1.00
C340   C     0.49614   0.97595   0.25016   0.00000  Uiso   1.00
Cu341  Cu    0.50000   0.75000   0.29821   0.00000  Uiso   1.00
Cu342  Cu    0.50000   0.75001   0.20178   0.00000  Uiso   1.00
H343   H     0.66023   0.74082   0.19521   0.00000  Uiso   1.00
H344   H     0.33984   0.75917   0.30497   0.00000  Uiso   1.00
H345   H     0.53809   0.53014   0.32281   0.00000  Uiso   1.00
H346   H     0.50780   0.97125   0.17456   0.00000  Uiso   1.00
H347   H     0.53838   0.61063   0.32317   0.00000  Uiso   1.00
H348   H     0.50664   0.89117   0.17371   0.00000  Uiso   1.00
H349   H     0.45762   0.61194   0.17805   0.00000  Uiso   1.00
H350   H     0.48698   0.88799   0.32546   0.00000  Uiso   1.00
H351   H     0.45443   0.53154   0.17848   0.00000  Uiso   1.00
H352   H     0.48407   0.96809   0.32550   0.00000  Uiso   1.00
H353   H     0.57349   0.77933   0.04200   0.00000  Uiso   1.00
H354   H     0.46539   0.68661   0.46267   0.00000  Uiso   1.00
H355   H     0.42624   0.71948   0.11730   0.00000  Uiso   1.00
H356   H     0.53556   0.81321   0.37810   0.00000  Uiso   1.00
N357   N     0.50000   0.75001   0.12934   0.00000  Uiso   1.00
N358   N     0.50000   0.74999   0.37065   0.00000  Uiso   1.00
O359   O     0.50000   0.68572   0.29071   0.00000  Uiso   1.00
O360   O     0.50000   0.81428   0.20928   0.00000  Uiso   1.00
O361   O     0.50000   0.68573   0.20928   0.00000  Uiso   1.00
O362   O     0.50000   0.81427   0.29072   0.00000  Uiso   1.00
O363   O     0.42495   0.75000   0.28132   0.00000  Uiso   1.00
O364   O     0.57505   0.75000   0.21868   0.00000  Uiso   1.00
O365   O     0.42495   0.75000   0.19988   0.00000  Uiso   1.00
O366   O     0.57505   0.75000   0.30011   0.00000  Uiso   1.00
N367   N     0.58272   0.78837   0.13596   0.00000  Uiso   1.00
H368   H     0.61756   0.77604   0.12915   0.00000  Uiso   1.00
C369   C     0.58276   0.83620   0.13494   0.00000  Uiso   1.00
H370   H     0.61187   0.84902   0.11225   0.00000  Uiso   1.00
H371   H     0.59284   0.84858   0.17234   0.00000  Uiso   1.00
H372   H     0.54458   0.84932   0.11984   0.00000  Uiso   1.00
N373   N     0.45600   0.67883   0.36799   0.00000  Uiso   1.00
H374   H     0.47394   0.64954   0.37839   0.00000  Uiso   1.00
C375   C     0.40068   0.67500   0.36662   0.00000  Uiso   1.00
H376   H     0.39034   0.66490   0.40271   0.00000  Uiso   1.00
H377   H     0.38560   0.64966   0.33978   0.00000  Uiso   1.00
H378   H     0.38229   0.70690   0.35579   0.00000  Uiso   1.00
N379   N     0.40826   0.72036   0.02131   0.00000  Uiso   1.00
H380   H     0.38805   0.69658   0.03831   0.00000  Uiso   1.00
C381   C     0.37543   0.75561   0.00089   0.00000  Uiso   1.00
H382   H     0.34136   0.74133   0.47819   0.00000  Uiso   1.00
H383   H     0.39626   0.77771   0.47760   0.00000  Uiso   1.00
H384   H     0.36192   0.77517   0.03026   0.00000  Uiso   1.00
N385   N     0.53407   0.82829   0.47159   0.00000  Uiso   1.00
H386   H     0.56158   0.84588   0.45554   0.00000  Uiso   1.00
C387   C     0.49292   0.85609   0.48303   0.00000  Uiso   1.00
H388   H     0.50958   0.88520   0.00364   0.00000  Uiso   1.00
H389   H     0.46748   0.83793   0.00576   0.00000  Uiso   1.00
H390   H     0.46975   0.86779   0.44920   0.00000  Uiso   1.00
C391   C     0.83295   0.66506   0.25020   0.00000  Uiso   1.00
C392   C     0.83277   0.83507   0.24977   0.00000  Uiso   1.00
C393   C     0.87321   0.76705   0.05728   0.00000  Uiso   1.00
C394   C     0.81284   0.71554   0.44495   0.00000  Uiso   1.00
C395   C     0.87352   0.76790   0.10783   0.00000  Uiso   1.00
C396   C     0.81213   0.71545   0.39427   0.00000  Uiso   1.00
C397   C     0.79147   0.73324   0.10062   0.00000  Uiso   1.00
C398   C     0.85273   0.78580   0.39666   0.00000  Uiso   1.00
C399   C     0.78794   0.73491   0.04936   0.00000  Uiso   1.00
C400   C     0.85048   0.78865   0.44713   0.00000  Uiso   1.00
C401   C     0.83016   0.75160   0.02682   0.00000  Uiso   1.00
C402   C     0.83082   0.75237   0.47237   0.00000  Uiso   1.00
C403   C     0.73470   0.74948   0.23778   0.00000  Uiso   1.00
C404   C     0.93198   0.75054   0.26224   0.00000  Uiso   1.00
C405   C     0.67959   0.74744   0.23121   0.00000  Uiso   1.00
C406   C     0.98711   0.75261   0.26890   0.00000  Uiso   1.00
C407   C     0.85284   0.54756   0.29135   0.00000  Uiso   1.00
C408   C     0.83571   0.95345   0.20753   0.00000  Uiso   1.00
C409   C     0.85336   0.59348   0.29151   0.00000  Uiso   1.00
C410   C     0.83587   0.90757   0.20716   0.00000  Uiso   1.00
C411   C     0.83164   0.61696   0.25054   0.00000  Uiso   1.00
C412   C     0.83119   0.88341   0.24964   0.00000  Uiso   1.00
C413   C     0.80852   0.59422   0.20977   0.00000  Uiso   1.00
C414   C     0.82474   0.90583   0.29225   0.00000  Uiso   1.00
C415   C     0.80698   0.54834   0.20997   0.00000  Uiso   1.00
C416   C     0.82347   0.95169   0.29240   0.00000  Uiso   1.00
C417   C     0.82958   0.52456   0.25058   0.00000  Uiso   1.00
C418   C     0.82947   0.97595   0.25016   0.00000  Uiso   1.00
Cu419  Cu    0.83333   0.75000   0.29821   0.00000  Uiso   1.00
Cu420  Cu    0.83333   0.75001   0.20178   0.00000  Uiso   1.00
H421   H     0.99356   0.74082   0.19521   0.00000  Uiso   1.00
H422   H     0.67317   0.75917   0.30497   0.00000  Uiso   1.00
H423   H     0.87142   0.53014   0.32281   0.00000  Uiso   1.00
H424   H     0.84114   0.97125   0.17456   0.00000  Uiso   1.00
H425   H     0.87172   0.61063   0.32317   0.00000  Uiso   1.00
H426   H     0.83998   0.89117   0.17371   0.00000  Uiso   1.00
H427   H     0.79095   0.61194   0.17805   0.00000  Uiso   1.00
H428   H     0.82031   0.88799   0.32546   0.00000  Uiso   1.00
H429   H     0.78776   0.53154   0.17848   0.00000  Uiso   1.00
H430   H     0.81740   0.96809   0.32550   0.00000  Uiso   1.00
H431   H     0.90683   0.77933   0.04200   0.00000  Uiso   1.00
H432   H     0.79873   0.68661   0.46267   0.00000  Uiso   1.00
H433   H     0.75957   0.71948   0.11730   0.00000  Uiso   1.00
H434   H     0.86889   0.81321   0.37810   0.00000  Uiso   1.00
N435   N     0.83333   0.75001   0.12934   0.00000  Uiso   1.00
N436   N     0.83333   0.74999   0.37065   0.00000  Uiso   1.00
O437   O     0.83334   0.68572   0.29071   0.00000  Uiso   1.00
O438   O     0.83333   0.81428   0.20928   0.00000  Uiso   1.00
O439   O     0.83334   0.68573   0.20928   0.00000  Uiso   1.00
O440   O     0.83333   0.81427   0.29072   0.00000  Uiso   1.00
O441   O     0.75828   0.75000   0.28132   0.00000  Uiso   1.00
O442   O     0.90839   0.75000   0.21868   0.00000  Uiso   1.00
O443   O     0.75828   0.75000   0.19988   0.00000  Uiso   1.00
O444   O     0.90839   0.75000   0.30011   0.00000  Uiso   1.00
N445   N     0.91605   0.78837   0.13596   0.00000  Uiso   1.00
H446   H     0.95090   0.77604   0.12915   0.00000  Uiso   1.00
C447   C     0.91610   0.83620   0.13494   0.00000  Uiso   1.00
H448   H     0.94520   0.84902   0.11225   0.00000  Uiso   1.00
H449   H     0.92618   0.84858   0.17234   0.00000  Uiso   1.00
H450   H     0.87791   0.84932   0.11984   0.00000  Uiso   1.00
N451   N     0.78934   0.67883   0.36799   0.00000  Uiso   1.00
H452   H     0.80727   0.64954   0.37839   0.00000  Uiso   1.00
C453   C     0.73402   0.67500   0.36662   0.00000  Uiso   1.00
H454   H     0.72367   0.66490   0.40271   0.00000  Uiso   1.00
H455   H     0.71893   0.64966   0.33978   0.00000  Uiso   1.00
H456   H     0.71562   0.70690   0.35579   0.00000  Uiso   1.00
N457   N     0.74159   0.72036   0.02131   0.00000  Uiso   1.00
H458   H     0.72138   0.69658   0.03831   0.00000  Uiso   1.00
C459   C     0.70876   0.75561   0.00089   0.00000  Uiso   1.00
H460   H     0.67469   0.74133   0.47819   0.00000  Uiso   1.00
H461   H     0.72959   0.77771   0.47760   0.00000  Uiso   1.00
H462   H     0.69525   0.77517   0.03026   0.00000  Uiso   1.00
N463   N     0.86740   0.82829   0.47159   0.00000  Uiso   1.00
H464   H     0.89491   0.84588   0.45554   0.00000  Uiso   1.00
C465   C     0.82626   0.85609   0.48303   0.00000  Uiso   1.00
H466   H     0.84292   0.88520   0.00364   0.00000  Uiso   1.00
H467   H     0.80082   0.83793   0.00576   0.00000  Uiso   1.00
H468   H     0.80308   0.86779   0.44920   0.00000  Uiso   1.00
C469   C     0.16628   0.16506   0.75020   0.00000  Uiso   1.00
C470   C     0.16610   0.33507   0.74977   0.00000  Uiso   1.00
C471   C     0.20655   0.26705   0.55728   0.00000  Uiso   1.00
C472   C     0.14617   0.21554   0.94495   0.00000  Uiso   1.00
C473   C     0.20686   0.26790   0.60783   0.00000  Uiso   1.00
C474   C     0.14546   0.21545   0.89427   0.00000  Uiso   1.00
C475   C     0.12481   0.23324   0.60062   0.00000  Uiso   1.00
C476   C     0.18606   0.28580   0.89666   0.00000  Uiso   1.00
C477   C     0.12127   0.23491   0.54936   0.00000  Uiso   1.00
C478   C     0.18381   0.28865   0.94713   0.00000  Uiso   1.00
C479   C     0.16349   0.25160   0.52682   0.00000  Uiso   1.00
C480   C     0.16415   0.25237   0.97237   0.00000  Uiso   1.00
C481   C     0.06803   0.24948   0.73778   0.00000  Uiso   1.00
C482   C     0.26532   0.25054   0.76224   0.00000  Uiso   1.00
C483   C     0.01293   0.24744   0.73121   0.00000  Uiso   1.00
C484   C     0.32045   0.25261   0.76890   0.00000  Uiso   1.00
C485   C     0.18618   0.04756   0.79135   0.00000  Uiso   1.00
C486   C     0.16904   0.45345   0.70753   0.00000  Uiso   1.00
C487   C     0.18670   0.09348   0.79151   0.00000  Uiso   1.00
C488   C     0.16921   0.40757   0.70716   0.00000  Uiso   1.00
C489   C     0.16498   0.11696   0.75054   0.00000  Uiso   1.00
C490   C     0.16453   0.38341   0.74964   0.00000  Uiso   1.00
C491   C     0.14185   0.09422   0.70977   0.00000  Uiso   1.00
C492   C     0.15808   0.40583   0.79225   0.00000  Uiso   1.00
C493   C     0.14032   0.04834   0.70997   0.00000  Uiso   1.00
C494   C     0.15680   0.45169   0.79240   0.00000  Uiso   1.00
C495   C     0.16292   0.02456   0.75058   0.00000  Uiso   1.00
C496   C     0.16280   0.47595   0.75016   0.00000  Uiso   1.00
Cu497  Cu    0.16667   0.25000   0.79821   0.00000  Uiso   1.00
Cu498  Cu    0.16667   0.25001   0.70178   0.00000  Uiso   1.00
H499   H     0.32690   0.24082   0.69521   0.00000  Uiso   1.00
H500   H     0.00651   0.25917   0.80497   0.00000  Uiso   1.00
H501   H     0.20475   0.03014   0.82281   0.00000  Uiso   1.00
H502   H     0.17447   0.47125   0.67456   0.00000  Uiso   1.00
H503   H     0.20505   0.11063   0.82317   0.00000  Uiso   1.00
H504   H     0.17331   0.39117   0.67371   0.00000  Uiso   1.00
H505   H     0.12428   0.11194   0.67805   0.00000  Uiso   1.00
H506   H     0.15364   0.38799   0.82546   0.00000  Uiso   1.00
H507   H     0.12109   0.03154   0.67848   0.00000  Uiso   1.00
H508   H     0.15074   0.46809   0.82550   0.00000  Uiso   1.00
H509   H     0.24016   0.27933   0.54200   0.00000  Uiso   1.00
H510   H     0.13206   0.18661   0.96267   0.00000  Uiso   1.00
H511   H     0.09290   0.21948   0.61730   0.00000  Uiso   1.00
H512   H     0.20222   0.31321   0.87810   0.00000  Uiso   1.00
N513   N     0.16667   0.25001   0.62934   0.00000  Uiso   1.00
N514   N     0.16667   0.24999   0.87065   0.00000  Uiso   1.00
O515   O     0.16667   0.18572   0.79071   0.00000  Uiso   1.00
O516   O     0.16666   0.31428   0.70928   0.00000  Uiso   1.00
O517   O     0.16667   0.18573   0.70928   0.00000  Uiso   1.00
O518   O     0.16666   0.31427   0.79072   0.00000  Uiso   1.00
O519   O     0.09161   0.25000   0.78132   0.00000  Uiso   1.00
O520   O     0.24172   0.25000   0.71868   0.00000  Uiso   1.00
O521   O     0.09161   0.25000   0.69988   0.00000  Uiso   1.00
O522   O     0.24172   0.25000   0.80011   0.00000  Uiso   1.00
N523   N     0.24939   0.28837   0.63596   0.00000  Uiso   1.00
H524   H     0.28423   0.27604   0.62915   0.00000  Uiso   1.00
C525   C     0.24943   0.33620   0.63494   0.00000  Uiso   1.00
H526   H     0.27854   0.34902   0.61225   0.00000  Uiso   1.00
H527   H     0.25951   0.34858   0.67234   0.00000  Uiso   1.00
H528   H     0.21124   0.34932   0.61984   0.00000  Uiso   1.00
N529   N     0.12267   0.17883   0.86799   0.00000  Uiso   1.00
H530   H     0.14060   0.14954   0.87839   0.00000  Uiso   1.00
C531   C     0.06735   0.17500   0.86662   0.00000  Uiso   1.00
H532   H     0.05700   0.16490   0.90271   0.00000  Uiso   1.00
H533   H     0.05227   0.14966   0.83978   0.00000  Uiso   1.00
H534   H     0.04895   0.20690   0.85579   0.00000  Uiso   1.00
N535   N     0.07492   0.22036   0.52131   0.00000  Uiso   1.00
H536   H     0.05471   0.19658   0.53831   0.00000  Uiso   1.00
C537   C     0.04209   0.25561   0.50089   0.00000  Uiso   1.00
H538   H     0.00802   0.24133   0.97819   0.00000  Uiso   1.00
H539   H     0.06293   0.27771   0.97760   0.00000  Uiso   1.00
H540   H     0.02859   0.27517   0.53026   0.00000  Uiso   1.00
N541   N     0.20074   0.32829   0.97159   0.00000  Uiso   1.00
H542   H     0.22825   0.34588   0.95554   0.00000  Uiso   1.00
C543   C     0.15959   0.35609   0.98303   0.00000  Uiso   1.00
H544   H     0.17625   0.38520   0.50364   0.00000  Uiso   1.00
H545   H     0.13415   0.33793   0.50576   0.00000  Uiso   1.00
H546   H     0.13641   0.36779   0.94920   0.00000  Uiso   1.00
C547   C     0.49962   0.16506   0.75020   0.00000  Uiso   1.00
C548   C     0.49943   0.33507   0.74977   0.00000  Uiso   1.00
C549   C     0.53988   0.26705   0.55728   0.00000  Uiso   1.00
C550   C     0.47950   0.21554   0.94495   0.00000  Uiso   1.00
C551   C     0.54019   0.26790   0.60783   0.00000  Uiso   1.00
C552   C     0.47879   0.21545   0.89427   0.00000  Uiso   1.00
C553   C     0.45814   0.23324   0.60062   0.00000  Uiso   1.00
C554   C     0.51939   0.28580   0.89666   0.00000  Uiso   1.00
C555   C     0.45460   0.23491   0.54936   0.00000  Uiso   1.00
C556   C     0.51714   0.28865   0.94713   0.00000  Uiso   1.00
C557   C     0.49683   0.25160   0.52682   0.00000  Uiso   1.00
C558   C     0.49748   0.25237   0.97237   0.00000  Uiso   1.00
C559   C     0.40136   0.24948   0.73778   0.00000  Uiso   1.00
C560   C     0.59865   0.25054   0.76224   0.00000  Uiso   1.00
C561   C     0.34626   0.24744   0.73121   0.00000  Uiso   1.00
C562   C     0.65378   0.25261   0.76890   0.00000  Uiso   1.00
C563   C     0.51951   0.04756   0.79135   0.00000  Uiso   1.00
C564   C     0.50238   0.45345   0.70753   0.00000  Uiso   1.00
C565   C     0.52003   0.09348   0.79151   0.00000  Uiso   1.00
C566   C     0.50254   0.40757   0.70716   0.00000  Uiso   1.00
C567   C     0.49831   0.11696   0.75054   0.00000  Uiso   1.00
C568   C     0.49786   0.38341   0.74964   0.00000  Uiso   1.00
C569   C     0.47519   0.09422   0.70977   0.00000  Uiso   1.00
C570   C     0.49141   0.40583   0.79225   0.00000  Uiso   1.00
C571   C     0.47365   0.04834   0.70997   0.00000  Uiso   1.00
C572   C     0.49013   0.45169   0.79240   0.00000  Uiso   1.00
C573   C     0.49625   0.02456   0.75058   0.00000  Uiso   1.00
C574   C     0.49614   0.47595   0.75016   0.00000  Uiso   1.00
Cu575  Cu    0.50000   0.25000   0.79821   0.00000  Uiso   1.00
Cu576  Cu    0.50000   0.25001   0.70178   0.00000  Uiso   1.00
H577   H     0.66023   0.24082   0.69521   0.00000  Uiso   1.00
H578   H     0.33984   0.25917   0.80497   0.00000  Uiso   1.00
H579   H     0.53809   0.03014   0.82281   0.00000  Uiso   1.00
H580   H     0.50780   0.47125   0.67456   0.00000  Uiso   1.00
H581   H     0.53838   0.11063   0.82317   0.00000  Uiso   1.00
H582   H     0.50664   0.39117   0.67371   0.00000  Uiso   1.00
H583   H     0.45762   0.11194   0.67805   0.00000  Uiso   1.00
H584   H     0.48698   0.38799   0.82546   0.00000  Uiso   1.00
H585   H     0.45443   0.03154   0.67848   0.00000  Uiso   1.00
H586   H     0.48407   0.46809   0.82550   0.00000  Uiso   1.00
H587   H     0.57349   0.27933   0.54200   0.00000  Uiso   1.00
H588   H     0.46539   0.18661   0.96267   0.00000  Uiso   1.00
H589   H     0.42624   0.21948   0.61730   0.00000  Uiso   1.00
H590   H     0.53556   0.31321   0.87810   0.00000  Uiso   1.00
N591   N     0.50000   0.25001   0.62934   0.00000  Uiso   1.00
N592   N     0.50000   0.24999   0.87065   0.00000  Uiso   1.00
O593   O     0.50000   0.18572   0.79071   0.00000  Uiso   1.00
O594   O     0.50000   0.31428   0.70928   0.00000  Uiso   1.00
O595   O     0.50000   0.18573   0.70928   0.00000  Uiso   1.00
O596   O     0.50000   0.31427   0.79072   0.00000  Uiso   1.00
O597   O     0.42495   0.25000   0.78132   0.00000  Uiso   1.00
O598   O     0.57505   0.25000   0.71868   0.00000  Uiso   1.00
O599   O     0.42495   0.25000   0.69988   0.00000  Uiso   1.00
O600   O     0.57505   0.25000   0.80011   0.00000  Uiso   1.00
N601   N     0.58272   0.28837   0.63596   0.00000  Uiso   1.00
H602   H     0.61756   0.27604   0.62915   0.00000  Uiso   1.00
C603   C     0.58276   0.33620   0.63494   0.00000  Uiso   1.00
H604   H     0.61187   0.34902   0.61225   0.00000  Uiso   1.00
H605   H     0.59284   0.34858   0.67234   0.00000  Uiso   1.00
H606   H     0.54458   0.34932   0.61984   0.00000  Uiso   1.00
N607   N     0.45600   0.17883   0.86799   0.00000  Uiso   1.00
H608   H     0.47394   0.14954   0.87839   0.00000  Uiso   1.00
C609   C     0.40068   0.17500   0.86662   0.00000  Uiso   1.00
H610   H     0.39034   0.16490   0.90271   0.00000  Uiso   1.00
H611   H     0.38560   0.14966   0.83978   0.00000  Uiso   1.00
H612   H     0.38229   0.20690   0.85579   0.00000  Uiso   1.00
N613   N     0.40826   0.22036   0.52131   0.00000  Uiso   1.00
H614   H     0.38805   0.19658   0.53831   0.00000  Uiso   1.00
C615   C     0.37543   0.25561   0.50089   0.00000  Uiso   1.00
H616   H     0.34136   0.24133   0.97819   0.00000  Uiso   1.00
H617   H     0.39626   0.27771   0.97760   0.00000  Uiso   1.00
H618   H     0.36192   0.27517   0.53026   0.00000  Uiso   1.00
N619   N     0.53407   0.32829   0.97159   0.00000  Uiso   1.00
H620   H     0.56158   0.34588   0.95554   0.00000  Uiso   1.00
C621   C     0.49292   0.35609   0.98303   0.00000  Uiso   1.00
H622   H     0.50958   0.38520   0.50364   0.00000  Uiso   1.00
H623   H     0.46748   0.33793   0.50576   0.00000  Uiso   1.00
H624   H     0.46975   0.36779   0.94920   0.00000  Uiso   1.00
C625   C     0.83295   0.16506   0.75020   0.00000  Uiso   1.00
C626   C     0.83277   0.33507   0.74977   0.00000  Uiso   1.00
C627   C     0.87321   0.26705   0.55728   0.00000  Uiso   1.00
C628   C     0.81284   0.21554   0.94495   0.00000  Uiso   1.00
C629   C     0.87352   0.26790   0.60783   0.00000  Uiso   1.00
C630   C     0.81213   0.21545   0.89427   0.00000  Uiso   1.00
C631   C     0.79147   0.23324   0.60062   0.00000  Uiso   1.00
C632   C     0.85273   0.28580   0.89666   0.00000  Uiso   1.00
C633   C     0.78794   0.23491   0.54936   0.00000  Uiso   1.00
C634   C     0.85048   0.28865   0.94713   0.00000  Uiso   1.00
C635   C     0.83016   0.25160   0.52682   0.00000  Uiso   1.00
C636   C     0.83082   0.25237   0.97237   0.00000  Uiso   1.00
C637   C     0.73470   0.24948   0.73778   0.00000  Uiso   1.00
C638   C     0.93198   0.25054   0.76224   0.00000  Uiso   1.00
C639   C     0.67959   0.24744   0.73121   0.00000  Uiso   1.00
C640   C     0.98711   0.25261   0.76890   0.00000  Uiso   1.00
C641   C     0.85284   0.04756   0.79135   0.00000  Uiso   1.00
C642   C     0.83571   0.45345   0.70753   0.00000  Uiso   1.00
C643   C     0.85336   0.09348   0.79151   0.00000  Uiso   1.00
C644   C     0.83587   0.40757   0.70716   0.00000  Uiso   1.00
C645   C     0.83164   0.11696   0.75054   0.00000  Uiso   1.00
C646   C     0.83119   0.38341   0.74964   0.00000  Uiso   1.00
C647   C     0.80852   0.09422   0.70977   0.00000  Uiso   1.00
C648   C     0.82474   0.40583   0.79225   0.00000  Uiso   1.00
C649   C     0.80698   0.04834   0.70997   0.00000  Uiso   1.00
C650   C     0.82347   0.45169   0.79240   0.00000  Uiso   1.00
C651   C     0.82958   0.02456   0.75058   0.00000  Uiso   1.00
C652   C     0.82947   0.47595   0.75016   0.00000  Uiso   1.00
Cu653  Cu    0.83333   0.25000   0.79821   0.00000  Uiso   1.00
Cu654  Cu    0.83333   0.25001   0.70178   0.00000  Uiso   1.00
H655   H     0.99356   0.24082   0.69521   0.00000  Uiso   1.00
H656   H     0.67317   0.25917   0.80497   0.00000  Uiso   1.00
H657   H     0.87142   0.03014   0.82281   0.00000  Uiso   1.00
H658   H     0.84114   0.47125   0.67456   0.00000  Uiso   1.00
H659   H     0.87172   0.11063   0.82317   0.00000  Uiso   1.00
H660   H     0.83998   0.39117   0.67371   0.00000  Uiso   1.00
H661   H     0.79095   0.11194   0.67805   0.00000  Uiso   1.00
H662   H     0.82031   0.38799   0.82546   0.00000  Uiso   1.00
H663   H     0.78776   0.03154   0.67848   0.00000  Uiso   1.00
H664   H     0.81740   0.46809   0.82550   0.00000  Uiso   1.00
H665   H     0.90683   0.27933   0.54200   0.00000  Uiso   1.00
H666   H     0.79873   0.18661   0.96267   0.00000  Uiso   1.00
H667   H     0.75957   0.21948   0.61730   0.00000  Uiso   1.00
H668   H     0.86889   0.31321   0.87810   0.00000  Uiso   1.00
N669   N     0.83333   0.25001   0.62934   0.00000  Uiso   1.00
N670   N     0.83333   0.24999   0.87065   0.00000  Uiso   1.00
O671   O     0.83334   0.18572   0.79071   0.00000  Uiso   1.00
O672   O     0.83333   0.31428   0.70928   0.00000  Uiso   1.00
O673   O     0.83334   0.18573   0.70928   0.00000  Uiso   1.00
O674   O     0.83333   0.31427   0.79072   0.00000  Uiso   1.00
O675   O     0.75828   0.25000   0.78132   0.00000  Uiso   1.00
O676   O     0.90839   0.25000   0.71868   0.00000  Uiso   1.00
O677   O     0.75828   0.25000   0.69988   0.00000  Uiso   1.00
O678   O     0.90839   0.25000   0.80011   0.00000  Uiso   1.00
N679   N     0.91605   0.28837   0.63596   0.00000  Uiso   1.00
H680   H     0.95090   0.27604   0.62915   0.00000  Uiso   1.00
C681   C     0.91610   0.33620   0.63494   0.00000  Uiso   1.00
H682   H     0.94520   0.34902   0.61225   0.00000  Uiso   1.00
H683   H     0.92618   0.34858   0.67234   0.00000  Uiso   1.00
H684   H     0.87791   0.34932   0.61984   0.00000  Uiso   1.00
N685   N     0.78934   0.17883   0.86799   0.00000  Uiso   1.00
H686   H     0.80727   0.14954   0.87839   0.00000  Uiso   1.00
C687   C     0.73402   0.17500   0.86662   0.00000  Uiso   1.00
H688   H     0.72367   0.16490   0.90271   0.00000  Uiso   1.00
H689   H     0.71893   0.14966   0.83978   0.00000  Uiso   1.00
H690   H     0.71562   0.20690   0.85579   0.00000  Uiso   1.00
N691   N     0.74159   0.22036   0.52131   0.00000  Uiso   1.00
H692   H     0.72138   0.19658   0.53831   0.00000  Uiso   1.00
C693   C     0.70876   0.25561   0.50089   0.00000  Uiso   1.00
H694   H     0.67469   0.24133   0.97819   0.00000  Uiso   1.00
H695   H     0.72959   0.27771   0.97760   0.00000  Uiso   1.00
H696   H     0.69525   0.27517   0.53026   0.00000  Uiso   1.00
N697   N     0.86740   0.32829   0.97159   0.00000  Uiso   1.00
H698   H     0.89491   0.34588   0.95554   0.00000  Uiso   1.00
C699   C     0.82626   0.35609   0.98303   0.00000  Uiso   1.00
H700   H     0.84292   0.38520   0.50364   0.00000  Uiso   1.00
H701   H     0.80082   0.33793   0.50576   0.00000  Uiso   1.00
H702   H     0.80308   0.36779   0.94920   0.00000  Uiso   1.00
C703   C     0.16628   0.66506   0.75020   0.00000  Uiso   1.00
C704   C     0.16610   0.83507   0.74977   0.00000  Uiso   1.00
C705   C     0.20655   0.76705   0.55728   0.00000  Uiso   1.00
C706   C     0.14617   0.71554   0.94495   0.00000  Uiso   1.00
C707   C     0.20686   0.76790   0.60783   0.00000  Uiso   1.00
C708   C     0.14546   0.71545   0.89427   0.00000  Uiso   1.00
C709   C     0.12481   0.73324   0.60062   0.00000  Uiso   1.00
C710   C     0.18606   0.78580   0.89666   0.00000  Uiso   1.00
C711   C     0.12127   0.73491   0.54936   0.00000  Uiso   1.00
C712   C     0.18381   0.78865   0.94713   0.00000  Uiso   1.00
C713   C     0.16349   0.75160   0.52682   0.00000  Uiso   1.00
C714   C     0.16415   0.75237   0.97237   0.00000  Uiso   1.00
C715   C     0.06803   0.74948   0.73778   0.00000  Uiso   1.00
C716   C     0.26532   0.75054   0.76224   0.00000  Uiso   1.00
C717   C     0.01293   0.74744   0.73121   0.00000  Uiso   1.00
C718   C     0.32045   0.75261   0.76890   0.00000  Uiso   1.00
C719   C     0.18618   0.54756   0.79135   0.00000  Uiso   1.00
C720   C     0.16904   0.95345   0.70753   0.00000  Uiso   1.00
C721   C     0.18670   0.59348   0.79151   0.00000  Uiso   1.00
C722   C     0.16921   0.90757   0.70716   0.00000  Uiso   1.00
C723   C     0.16498   0.61696   0.75054   0.00000  Uiso   1.00
C724   C     0.16453   0.88341   0.74964   0.00000  Uiso   1.00
C725   C     0.14185   0.59422   0.70977   0.00000  Uiso   1.00
C726   C     0.15808   0.90583   0.79225   0.00000  Uiso   1.00
C727   C     0.14032   0.54834   0.70997   0.00000  Uiso   1.00
C728   C     0.15680   0.95169   0.79240   0.00000  Uiso   1.00
C729   C     0.16292   0.52456   0.75058   0.00000  Uiso   1.00
C730   C     0.16280   0.97595   0.75016   0.00000  Uiso   1.00
Cu731  Cu    0.16667   0.75000   0.79821   0.00000  Uiso   1.00
Cu732  Cu    0.16667   0.75001   0.70178   0.00000  Uiso   1.00
H733   H     0.32690   0.74082   0.69521   0.00000  Uiso   1.00
H734   H     0.00651   0.75917   0.80497   0.00000  Uiso   1.00
H735   H     0.20475   0.53014   0.82281   0.00000  Uiso   1.00
H736   H     0.17447   0.97125   0.67456   0.00000  Uiso   1.00
H737   H     0.20505   0.61063   0.82317   0.00000  Uiso   1.00
H738   H     0.17331   0.89117   0.67371   0.00000  Uiso   1.00
H739   H     0.12428   0.61194   0.67805   0.00000  Uiso   1.00
H740   H     0.15364   0.88799   0.82546   0.00000  Uiso   1.00
H741   H     0.12109   0.53154   0.67848   0.00000  Uiso   1.00
H742   H     0.15074   0.96809   0.82550   0.00000  Uiso   1.00
H743   H     0.24016   0.77933   0.54200   0.00000  Uiso   1.00
H744   H     0.13206   0.68661   0.96267   0.00000  Uiso   1.00
H745   H     0.09290   0.71948   0.61730   0.00000  Uiso   1.00
H746   H     0.20222   0.81321   0.87810   0.00000  Uiso   1.00
N747   N     0.16667   0.75001   0.62934   0.00000  Uiso   1.00
N748   N     0.16667   0.74999   0.87065   0.00000  Uiso   1.00
O749   O     0.16667   0.68572   0.79071   0.00000  Uiso   1.00
O750   O     0.16666   0.81428   0.70928   0.00000  Uiso   1.00
O751   O     0.16667   0.68573   0.70928   0.00000  Uiso   1.00
O752   O     0.16666   0.81427   0.79072   0.00000  Uiso   1.00
O753   O     0.09161   0.75000   0.78132   0.00000  Uiso   1.00
O754   O     0.24172   0.75000   0.71868   0.00000  Uiso   1.00
O755   O     0.09161   0.75000   0.69988   0.00000  Uiso   1.00
O756   O     0.24172   0.75000   0.80011   0.00000  Uiso   1.00
N757   N     0.24939   0.78837   0.63596   0.00000  Uiso   1.00
H758   H     0.28423   0.77604   0.62915   0.00000  Uiso   1.00
C759   C     0.24943   0.83620   0.63494   0.00000  Uiso   1.00
H760   H     0.27854   0.84902   0.61225   0.00000  Uiso   1.00
H761   H     0.25951   0.84858   0.67234   0.00000  Uiso   1.00
H762   H     0.21124   0.84932   0.61984   0.00000  Uiso   1.00
N763   N     0.12267   0.67883   0.86799   0.00000  Uiso   1.00
H764   H     0.14060   0.64954   0.87839   0.00000  Uiso   1.00
C765   C     0.06735   0.67500   0.86662   0.00000  Uiso   1.00
H766   H     0.05700   0.66490   0.90271   0.00000  Uiso   1.00
H767   H     0.05227   0.64966   0.83978   0.00000  Uiso   1.00
H768   H     0.04895   0.70690   0.85579   0.00000  Uiso   1.00
N769   N     0.07492   0.72036   0.52131   0.00000  Uiso   1.00
H770   H     0.05471   0.69658   0.53831   0.00000  Uiso   1.00
C771   C     0.04209   0.75561   0.50089   0.00000  Uiso   1.00
H772   H     0.00802   0.74133   0.97819   0.00000  Uiso   1.00
H773   H     0.06293   0.77771   0.97760   0.00000  Uiso   1.00
H774   H     0.02859   0.77517   0.53026   0.00000  Uiso   1.00
N775   N     0.20074   0.82829   0.97159   0.00000  Uiso   1.00
H776   H     0.22825   0.84588   0.95554   0.00000  Uiso   1.00
C777   C     0.15959   0.85609   0.98303   0.00000  Uiso   1.00
H778   H     0.17625   0.88520   0.50364   0.00000  Uiso   1.00
H779   H     0.13415   0.83793   0.50576   0.00000  Uiso   1.00
H780   H     0.13641   0.86779   0.94920   0.00000  Uiso   1.00
C781   C     0.49962   0.66506   0.75020   0.00000  Uiso   1.00
C782   C     0.49943   0.83507   0.74977   0.00000  Uiso   1.00
C783   C     0.53988   0.76705   0.55728   0.00000  Uiso   1.00
C784   C     0.47950   0.71554   0.94495   0.00000  Uiso   1.00
C785   C     0.54019   0.76790   0.60783   0.00000  Uiso   1.00
C786   C     0.47879   0.71545   0.89427   0.00000  Uiso   1.00
C787   C     0.45814   0.73324   0.60062   0.00000  Uiso   1.00
C788   C     0.51939   0.78580   0.89666   0.00000  Uiso   1.00
C789   C     0.45460   0.73491   0.54936   0.00000  Uiso   1.00
C790   C     0.51714   0.78865   0.94713   0.00000  Uiso   1.00
C791   C     0.49683   0.75160   0.52682   0.00000  Uiso   1.00
C792   C     0.49748   0.75237   0.97237   0.00000  Uiso   1.00
C793   C     0.40136   0.74948   0.73778   0.00000  Uiso   1.00
C794   C     0.59865   0.75054   0.76224   0.00000  Uiso   1.00
C795   C     0.34626   0.74744   0.73121   0.00000  Uiso   1.00
C796   C     0.65378   0.75261   0.76890   0.00000  Uiso   1.00
C797   C     0.51951   0.54756   0.79135   0.00000  Uiso   1.00
C798   C     0.50238   0.95345   0.70753   0.00000  Uiso   1.00
C799   C     0.52003   0.59348   0.79151   0.00000  Uiso   1.00
C800   C     0.50254   0.90757   0.70716   0.00000  Uiso   1.00
C801   C     0.49831   0.61696   0.75054   0.00000  Uiso   1.00
C802   C     0.49786   0.88341   0.74964   0.00000  Uiso   1.00
C803   C     0.47519   0.59422   0.70977   0.00000  Uiso   1.00
C804   C     0.49141   0.90583   0.79225   0.00000  Uiso   1.00
C805   C     0.47365   0.54834   0.70997   0.00000  Uiso   1.00
C806   C     0.49013   0.95169   0.79240   0.00000  Uiso   1.00
C807   C     0.49625   0.52456   0.75058   0.00000  Uiso   1.00
C808   C     0.49614   0.97595   0.75016   0.00000  Uiso   1.00
Cu809  Cu    0.50000   0.75000   0.79821   0.00000  Uiso   1.00
Cu810  Cu    0.50000   0.75001   0.70178   0.00000  Uiso   1.00
H811   H     0.66023   0.74082   0.69521   0.00000  Uiso   1.00
H812   H     0.33984   0.75917   0.80497   0.00000  Uiso   1.00
H813   H     0.53809   0.53014   0.82281   0.00000  Uiso   1.00
H814   H     0.50780   0.97125   0.67456   0.00000  Uiso   1.00
H815   H     0.53838   0.61063   0.82317   0.00000  Uiso   1.00
H816   H     0.50664   0.89117   0.67371   0.00000  Uiso   1.00
H817   H     0.45762   0.61194   0.67805   0.00000  Uiso   1.00
H818   H     0.48698   0.88799   0.82546   0.00000  Uiso   1.00
H819   H     0.45443   0.53154   0.67848   0.00000  Uiso   1.00
H820   H     0.48407   0.96809   0.82550   0.00000  Uiso   1.00
H821   H     0.57349   0.77933   0.54200   0.00000  Uiso   1.00
H822   H     0.46539   0.68661   0.96267   0.00000  Uiso   1.00
H823   H     0.42624   0.71948   0.61730   0.00000  Uiso   1.00
H824   H     0.53556   0.81321   0.87810   0.00000  Uiso   1.00
N825   N     0.50000   0.75001   0.62934   0.00000  Uiso   1.00
N826   N     0.50000   0.74999   0.87065   0.00000  Uiso   1.00
O827   O     0.50000   0.68572   0.79071   0.00000  Uiso   1.00
O828   O     0.50000   0.81428   0.70928   0.00000  Uiso   1.00
O829   O     0.50000   0.68573   0.70928   0.00000  Uiso   1.00
O830   O     0.50000   0.81427   0.79072   0.00000  Uiso   1.00
O831   O     0.42495   0.75000   0.78132   0.00000  Uiso   1.00
O832   O     0.57505   0.75000   0.71868   0.00000  Uiso   1.00
O833   O     0.42495   0.75000   0.69988   0.00000  Uiso   1.00
O834   O     0.57505   0.75000   0.80011   0.00000  Uiso   1.00
N835   N     0.58272   0.78837   0.63596   0.00000  Uiso   1.00
H836   H     0.61756   0.77604   0.62915   0.00000  Uiso   1.00
C837   C     0.58276   0.83620   0.63494   0.00000  Uiso   1.00
H838   H     0.61187   0.84902   0.61225   0.00000  Uiso   1.00
H839   H     0.59284   0.84858   0.67234   0.00000  Uiso   1.00
H840   H     0.54458   0.84932   0.61984   0.00000  Uiso   1.00
N841   N     0.45600   0.67883   0.86799   0.00000  Uiso   1.00
H842   H     0.47394   0.64954   0.87839   0.00000  Uiso   1.00
C843   C     0.40068   0.67500   0.86662   0.00000  Uiso   1.00
H844   H     0.39034   0.66490   0.90271   0.00000  Uiso   1.00
H845   H     0.38560   0.64966   0.83978   0.00000  Uiso   1.00
H846   H     0.38229   0.70690   0.85579   0.00000  Uiso   1.00
N847   N     0.40826   0.72036   0.52131   0.00000  Uiso   1.00
H848   H     0.38805   0.69658   0.53831   0.00000  Uiso   1.00
C849   C     0.37543   0.75561   0.50089   0.00000  Uiso   1.00
H850   H     0.34136   0.74133   0.97819   0.00000  Uiso   1.00
H851   H     0.39626   0.77771   0.97760   0.00000  Uiso   1.00
H852   H     0.36192   0.77517   0.53026   0.00000  Uiso   1.00
N853   N     0.53407   0.82829   0.97159   0.00000  Uiso   1.00
H854   H     0.56158   0.84588   0.95554   0.00000  Uiso   1.00
C855   C     0.49292   0.85609   0.98303   0.00000  Uiso   1.00
H856   H     0.50958   0.88520   0.50364   0.00000  Uiso   1.00
H857   H     0.46748   0.83793   0.50576   0.00000  Uiso   1.00
H858   H     0.46975   0.86779   0.94920   0.00000  Uiso   1.00
C859   C     0.83295   0.66506   0.75020   0.00000  Uiso   1.00
C860   C     0.83277   0.83507   0.74977   0.00000  Uiso   1.00
C861   C     0.87321   0.76705   0.55728   0.00000  Uiso   1.00
C862   C     0.81284   0.71554   0.94495   0.00000  Uiso   1.00
C863   C     0.87352   0.76790   0.60783   0.00000  Uiso   1.00
C864   C     0.81213   0.71545   0.89427   0.00000  Uiso   1.00
C865   C     0.79147   0.73324   0.60062   0.00000  Uiso   1.00
C866   C     0.85273   0.78580   0.89666   0.00000  Uiso   1.00
C867   C     0.78794   0.73491   0.54936   0.00000  Uiso   1.00
C868   C     0.85048   0.78865   0.94713   0.00000  Uiso   1.00
C869   C     0.83016   0.75160   0.52682   0.00000  Uiso   1.00
C870   C     0.83082   0.75237   0.97237   0.00000  Uiso   1.00
C871   C     0.73470   0.74948   0.73778   0.00000  Uiso   1.00
C872   C     0.93198   0.75054   0.76224   0.00000  Uiso   1.00
C873   C     0.67959   0.74744   0.73121   0.00000  Uiso   1.00
C874   C     0.98711   0.75261   0.76890   0.00000  Uiso   1.00
C875   C     0.85284   0.54756   0.79135   0.00000  Uiso   1.00
C876   C     0.83571   0.95345   0.70753   0.00000  Uiso   1.00
C877   C     0.85336   0.59348   0.79151   0.00000  Uiso   1.00
C878   C     0.83587   0.90757   0.70716   0.00000  Uiso   1.00
C879   C     0.83164   0.61696   0.75054   0.00000  Uiso   1.00
C880   C     0.83119   0.88341   0.74964   0.00000  Uiso   1.00
C881   C     0.80852   0.59422   0.70977   0.00000  Uiso   1.00
C882   C     0.82474   0.90583   0.79225   0.00000  Uiso   1.00
C883   C     0.80698   0.54834   0.70997   0.00000  Uiso   1.00
C884   C     0.82347   0.95169   0.79240   0.00000  Uiso   1.00
C885   C     0.82958   0.52456   0.75058   0.00000  Uiso   1.00
C886   C     0.82947   0.97595   0.75016   0.00000  Uiso   1.00
Cu887  Cu    0.83333   0.75000   0.79821   0.00000  Uiso   1.00
Cu888  Cu    0.83333   0.75001   0.70178   0.00000  Uiso   1.00
H889   H     0.99356   0.74082   0.69521   0.00000  Uiso   1.00
H890   H     0.67317   0.75917   0.80497   0.00000  Uiso   1.00
H891   H     0.87142   0.53014   0.82281   0.00000  Uiso   1.00
H892   H     0.84114   0.97125   0.67456   0.00000  Uiso   1.00
H893   H     0.87172   0.61063   0.82317   0.00000  Uiso   1.00
H894   H     0.83998   0.89117   0.67371   0.00000  Uiso   1.00
H895   H     0.79095   0.61194   0.67805   0.00000  Uiso   1.00
H896   H     0.82031   0.88799   0.82546   0.00000  Uiso   1.00
H897   H     0.78776   0.53154   0.67848   0.00000  Uiso   1.00
H898   H     0.81740   0.96809   0.82550   0.00000  Uiso   1.00
H899   H     0.90683   0.77933   0.54200   0.00000  Uiso   1.00
H900   H     0.79873   0.68661   0.96267   0.00000  Uiso   1.00
H901   H     0.75957   0.71948   0.61730   0.00000  Uiso   1.00
H902   H     0.86889   0.81321   0.87810   0.00000  Uiso   1.00
N903   N     0.83333   0.75001   0.62934   0.00000  Uiso   1.00
N904   N     0.83333   0.74999   0.87065   0.00000  Uiso   1.00
O905   O     0.83334   0.68572   0.79071   0.00000  Uiso   1.00
O906   O     0.83333   0.81428   0.70928   0.00000  Uiso   1.00
O907   O     0.83334   0.68573   0.70928   0.00000  Uiso   1.00
O908   O     0.83333   0.81427   0.79072   0.00000  Uiso   1.00
O909   O     0.75828   0.75000   0.78132   0.00000  Uiso   1.00
O910   O     0.90839   0.75000   0.71868   0.00000  Uiso   1.00
O911   O     0.75828   0.75000   0.69988   0.00000  Uiso   1.00
O912   O     0.90839   0.75000   0.80011   0.00000  Uiso   1.00
N913   N     0.91605   0.78837   0.63596   0.00000  Uiso   1.00
H914   H     0.95090   0.77604   0.62915   0.00000  Uiso   1.00
C915   C     0.91610   0.83620   0.63494   0.00000  Uiso   1.00
H916   H     0.94520   0.84902   0.61225   0.00000  Uiso   1.00
H917   H     0.92618   0.84858   0.67234   0.00000  Uiso   1.00
H918   H     0.87791   0.84932   0.61984   0.00000  Uiso   1.00
N919   N     0.78934   0.67883   0.86799   0.00000  Uiso   1.00
H920   H     0.80727   0.64954   0.87839   0.00000  Uiso   1.00
C921   C     0.73402   0.67500   0.86662   0.00000  Uiso   1.00
H922   H     0.72367   0.66490   0.90271   0.00000  Uiso   1.00
H923   H     0.71893   0.64966   0.83978   0.00000  Uiso   1.00
H924   H     0.71562   0.70690   0.85579   0.00000  Uiso   1.00
N925   N     0.74159   0.72036   0.52131   0.00000  Uiso   1.00
H926   H     0.72138   0.69658   0.53831   0.00000  Uiso   1.00
C927   C     0.70876   0.75561   0.50089   0.00000  Uiso   1.00
H928   H     0.67469   0.74133   0.97819   0.00000  Uiso   1.00
H929   H     0.72959   0.77771   0.97760   0.00000  Uiso   1.00
H930   H     0.69525   0.77517   0.53026   0.00000  Uiso   1.00
N931   N     0.86740   0.82829   0.97159   0.00000  Uiso   1.00
H932   H     0.89491   0.84588   0.95554   0.00000  Uiso   1.00
C933   C     0.82626   0.85609   0.98303   0.00000  Uiso   1.00
H934   H     0.84292   0.88520   0.50364   0.00000  Uiso   1.00
H935   H     0.80082   0.83793   0.50576   0.00000  Uiso   1.00
H936   H     0.80308   0.86779   0.94920   0.00000  Uiso   1.00
loop_
_geom_bond_atom_site_label_1
_geom_bond_atom_site_label_2
_geom_bond_distance
_geom_bond_site_symmetry_2
_ccdc_geom_bond_type
C1     C21     1.456   .     S
C1     O47     1.296   .     A
C1     O49     1.295   .     A
C2     O50     1.295   .     A
C2     C22     1.465   .     S
C2     O48     1.300   .     A
C3     H41     1.083   .     S
C3     C5      1.407   .     A
C3     C11     1.399   .     A
C4     C12     1.400   .     A
C4     C6      1.409   .     A
C4     H42     1.083   .     S
C5     N45     1.375   .     A
C5     N55     1.416   .     S
C6     N61     1.417   .     S
C6     N46     1.375   .     A
C7     N45     1.367   .     A
C7     H43     1.081   .     S
C7     C9      1.419   .     A
C8     H44     1.081   .     S
C8     N46     1.366   .     A
C8     C10     1.418   .     A
C9     N67     1.424   .     S
C9     C11     1.421   .     A
C10    N73     1.424   .     S
C10    C12     1.421   .     A
C11    C480    1.518   1_554 S
C12    C479    1.518   .     S
C13    O51     1.289   .     A
C13    O53     1.288   .     A
C13    C15     1.431   .     S
C14    O52     1.290   .     A
C14    O54     1.287   .     A
C14    C16     1.432   .     S
C15    C172    1.330   1_455 S
C15    H187    1.084   1_455 S
C16    C93     1.330   .     S
C16    H110    1.086   .     S
C17    H33     1.083   .     S
C17    C27     1.405   .     A
C17    C19     1.390   .     A
C18    C20     1.390   .     A
C18    H34     1.083   .     S
C18    C28     1.404   .     A
C19    C21     1.400   .     A
C19    H35     1.083   .     S
C20    C22     1.401   .     A
C20    H36     1.079   .     S
C21    C23     1.400   .     A
C22    C24     1.404   .     A
C23    H37     1.084   .     S
C23    C25     1.389   .     A
C24    C26     1.390   .     A
C24    H38     1.083   .     S
C25    C27     1.404   .     A
C25    H39     1.083   .     S
C26    C28     1.403   .     A
C26    H40     1.083   .     S
C27    C262    1.472   1_545 S
C28    C261    1.472   .     S
Cu29   O47     1.960   .     S
Cu29   O54     1.958   .     S
Cu29   O50     1.955   .     S
Cu29   Cu30    2.685   .     S
Cu29   O51     1.961   .     S
Cu29   N46     2.017   .     S
Cu30   N45     2.017   .     S
Cu30   O48     1.960   .     S
Cu30   O53     1.958   .     S
Cu30   O49     1.955   .     S
Cu30   O52     1.961   .     S
H31    C93     1.084   .     S
H32    C172    1.086   1_455 S
N55    H56     1.031   .     S
N55    C57     1.448   .     S
C57    H59     1.110   .     S
C57    H60     1.112   .     S
C57    H58     1.112   .     S
N61    C63     1.446   .     S
N61    H62     1.032   .     S
C63    H65     1.110   .     S
C63    H66     1.108   .     S
C63    H64     1.111   .     S
N67    H68     1.032   .     S
N67    C69     1.447   .     S
C69    H72     1.112   .     S
C69    H538    1.111   1_554 S
C69    H539    1.110   1_554 S
H70    C537    1.111   .     S
H71    C537    1.110   .     S
N73    H74     1.032   .     S
N73    C75     1.447   .     S
C75    H78     1.112   .     S
C75    H544    1.110   .     S
C75    H545    1.110   .     S
H76    C543    1.110   1_554 S
H77    C543    1.110   1_554 S
C79    C99     1.456   .     S
C79    O125    1.296   .     A
C79    O127    1.295   .     A
C80    O128    1.295   .     A
C80    C100    1.465   .     S
C80    O126    1.300   .     A
C81    H119    1.083   .     S
C81    C83     1.407   .     A
C81    C89     1.399   .     A
C82    C90     1.400   .     A
C82    C84     1.409   .     A
C82    H120    1.083   .     S
C83    N123    1.375   .     A
C83    N133    1.416   .     S
C84    N139    1.417   .     S
C84    N124    1.375   .     A
C85    N123    1.367   .     A
C85    H121    1.081   .     S
C85    C87     1.419   .     A
C86    H122    1.081   .     S
C86    N124    1.366   .     A
C86    C88     1.418   .     A
C87    N145    1.424   .     S
C87    C89     1.421   .     A
C88    N151    1.424   .     S
C88    C90     1.421   .     A
C89    C558    1.518   1_554 S
C90    C557    1.518   .     S
C91    O129    1.289   .     A
C91    O131    1.288   .     A
C91    C93     1.431   .     S
C92    O130    1.290   .     A
C92    O132    1.287   .     A
C92    C94     1.432   .     S
C94    C171    1.330   .     S
C94    H188    1.086   .     S
C95    H111    1.083   .     S
C95    C105    1.405   .     A
C95    C97     1.390   .     A
C96    C98     1.390   .     A
C96    H112    1.083   .     S
C96    C106    1.404   .     A
C97    C99     1.400   .     A
C97    H113    1.083   .     S
C98    C100    1.401   .     A
C98    H114    1.079   .     S
C99    C101    1.400   .     A
C100   C102    1.404   .     A
C101   H115    1.084   .     S
C101   C103    1.389   .     A
C102   C104    1.390   .     A
C102   H116    1.083   .     S
C103   C105    1.404   .     A
C103   H117    1.083   .     S
C104   C106    1.403   .     A
C104   H118    1.083   .     S
C105   C340    1.472   1_545 S
C106   C339    1.472   .     S
Cu107  O125    1.960   .     S
Cu107  O132    1.958   .     S
Cu107  O128    1.955   .     S
Cu107  Cu108   2.685   .     S
Cu107  O129    1.961   .     S
Cu107  N124    2.017   .     S
Cu108  N123    2.017   .     S
Cu108  O126    1.960   .     S
Cu108  O131    1.958   .     S
Cu108  O127    1.955   .     S
Cu108  O130    1.961   .     S
H109   C171    1.084   .     S
N133   H134    1.031   .     S
N133   C135    1.448   .     S
C135   H137    1.110   .     S
C135   H138    1.112   .     S
C135   H136    1.112   .     S
N139   C141    1.446   .     S
N139   H140    1.032   .     S
C141   H143    1.110   .     S
C141   H144    1.108   .     S
C141   H142    1.111   .     S
N145   H146    1.032   .     S
N145   C147    1.447   .     S
C147   H150    1.112   .     S
C147   H616    1.111   1_554 S
C147   H617    1.110   1_554 S
H148   C615    1.111   .     S
H149   C615    1.110   .     S
N151   H152    1.032   .     S
N151   C153    1.447   .     S
C153   H156    1.112   .     S
C153   H622    1.110   .     S
C153   H623    1.110   .     S
H154   C621    1.110   1_554 S
H155   C621    1.110   1_554 S
C157   C177    1.456   .     S
C157   O203    1.296   .     A
C157   O205    1.295   .     A
C158   O206    1.295   .     A
C158   C178    1.465   .     S
C158   O204    1.300   .     A
C159   H197    1.083   .     S
C159   C161    1.407   .     A
C159   C167    1.399   .     A
C160   C168    1.400   .     A
C160   C162    1.409   .     A
C160   H198    1.083   .     S
C161   N201    1.375   .     A
C161   N211    1.416   .     S
C162   N217    1.417   .     S
C162   N202    1.375   .     A
C163   N201    1.367   .     A
C163   H199    1.081   .     S
C163   C165    1.419   .     A
C164   H200    1.081   .     S
C164   N202    1.366   .     A
C164   C166    1.418   .     A
C165   N223    1.424   .     S
C165   C167    1.421   .     A
C166   N229    1.424   .     S
C166   C168    1.421   .     A
C167   C636    1.518   1_554 S
C168   C635    1.518   .     S
C169   O207    1.289   .     A
C169   O209    1.288   .     A
C169   C171    1.431   .     S
C170   O208    1.290   .     A
C170   O210    1.287   .     A
C170   C172    1.432   .     S
C172   C15     1.330   1_655 S
C172   H32     1.086   1_655 S
C173   H189    1.083   .     S
C173   C183    1.405   .     A
C173   C175    1.390   .     A
C174   C176    1.390   .     A
C174   H190    1.083   .     S
C174   C184    1.404   .     A
C175   C177    1.400   .     A
C175   H191    1.083   .     S
C176   C178    1.401   .     A
C176   H192    1.079   .     S
C177   C179    1.400   .     A
C178   C180    1.404   .     A
C179   H193    1.084   .     S
C179   C181    1.389   .     A
C180   C182    1.390   .     A
C180   H194    1.083   .     S
C181   C183    1.404   .     A
C181   H195    1.083   .     S
C182   C184    1.403   .     A
C182   H196    1.083   .     S
C183   C418    1.472   1_545 S
C184   C417    1.472   .     S
Cu185  O203    1.960   .     S
Cu185  O210    1.958   .     S
Cu185  O206    1.955   .     S
Cu185  Cu186   2.685   .     S
Cu185  O207    1.961   .     S
Cu185  N202    2.017   .     S
Cu186  N201    2.017   .     S
Cu186  O204    1.960   .     S
Cu186  O209    1.958   .     S
Cu186  O205    1.955   .     S
Cu186  O208    1.961   .     S
H187   C15     1.084   1_655 S
N211   H212    1.031   .     S
N211   C213    1.448   .     S
C213   H215    1.110   .     S
C213   H216    1.112   .     S
C213   H214    1.112   .     S
N217   C219    1.446   .     S
N217   H218    1.032   .     S
C219   H221    1.110   .     S
C219   H222    1.108   .     S
C219   H220    1.111   .     S
N223   H224    1.032   .     S
N223   C225    1.447   .     S
C225   H228    1.112   .     S
C225   H694    1.111   1_554 S
C225   H695    1.110   1_554 S
H226   C693    1.111   .     S
H227   C693    1.110   .     S
N229   H230    1.032   .     S
N229   C231    1.447   .     S
C231   H234    1.112   .     S
C231   H700    1.110   .     S
C231   H701    1.110   .     S
H232   C699    1.110   1_554 S
H233   C699    1.110   1_554 S
C235   C255    1.456   .     S
C235   O281    1.296   .     A
C235   O283    1.295   .     A
C236   O284    1.295   .     A
C236   C256    1.465   .     S
C236   O282    1.300   .     A
C237   H275    1.083   .     S
C237   C239    1.407   .     A
C237   C245    1.399   .     A
C238   C246    1.400   .     A
C238   C240    1.409   .     A
C238   H276    1.083   .     S
C239   N279    1.375   .     A
C239   N289    1.416   .     S
C240   N295    1.417   .     S
C240   N280    1.375   .     A
C241   N279    1.367   .     A
C241   H277    1.081   .     S
C241   C243    1.419   .     A
C242   H278    1.081   .     S
C242   N280    1.366   .     A
C242   C244    1.418   .     A
C243   N301    1.424   .     S
C243   C245    1.421   .     A
C244   N307    1.424   .     S
C244   C246    1.421   .     A
C245   C714    1.518   1_554 S
C246   C713    1.518   .     S
C247   O285    1.289   .     A
C247   O287    1.288   .     A
C247   C249    1.431   .     S
C248   O286    1.290   .     A
C248   O288    1.287   .     A
C248   C250    1.432   .     S
C249   C406    1.330   1_455 S
C249   H421    1.084   1_455 S
C250   C327    1.330   .     S
C250   H344    1.086   .     S
C251   H267    1.083   .     S
C251   C261    1.405   .     A
C251   C253    1.390   .     A
C252   C254    1.390   .     A
C252   H268    1.083   .     S
C252   C262    1.404   .     A
C253   C255    1.400   .     A
C253   H269    1.083   .     S
C254   C256    1.401   .     A
C254   H270    1.079   .     S
C255   C257    1.400   .     A
C256   C258    1.404   .     A
C257   H271    1.084   .     S
C257   C259    1.389   .     A
C258   C260    1.390   .     A
C258   H272    1.083   .     S
C259   C261    1.404   .     A
C259   H273    1.083   .     S
C260   C262    1.403   .     A
C260   H274    1.083   .     S
C262   C27     1.472   1_565 S
Cu263  O281    1.960   .     S
Cu263  O288    1.958   .     S
Cu263  O284    1.955   .     S
Cu263  Cu264   2.685   .     S
Cu263  O285    1.961   .     S
Cu263  N280    2.017   .     S
Cu264  N279    2.017   .     S
Cu264  O282    1.960   .     S
Cu264  O287    1.958   .     S
Cu264  O283    1.955   .     S
Cu264  O286    1.961   .     S
H265   C327    1.084   .     S
H266   C406    1.086   1_455 S
N289   H290    1.031   .     S
N289   C291    1.448   .     S
C291   H293    1.110   .     S
C291   H294    1.112   .     S
C291   H292    1.112   .     S
N295   C297    1.446   .     S
N295   H296    1.032   .     S
C297   H299    1.110   .     S
C297   H300    1.108   .     S
C297   H298    1.111   .     S
N301   H302    1.032   .     S
N301   C303    1.447   .     S
C303   H306    1.112   .     S
C303   H772    1.111   1_554 S
C303   H773    1.110   1_554 S
H304   C771    1.111   .     S
H305   C771    1.110   .     S
N307   H308    1.032   .     S
N307   C309    1.447   .     S
C309   H312    1.112   .     S
C309   H778    1.110   .     S
C309   H779    1.110   .     S
H310   C777    1.110   1_554 S
H311   C777    1.110   1_554 S
C313   C333    1.456   .     S
C313   O359    1.296   .     A
C313   O361    1.295   .     A
C314   O362    1.295   .     A
C314   C334    1.465   .     S
C314   O360    1.300   .     A
C315   H353    1.083   .     S
C315   C317    1.407   .     A
C315   C323    1.399   .     A
C316   C324    1.400   .     A
C316   C318    1.409   .     A
C316   H354    1.083   .     S
C317   N357    1.375   .     A
C317   N367    1.416   .     S
C318   N373    1.417   .     S
C318   N358    1.375   .     A
C319   N357    1.367   .     A
C319   H355    1.081   .     S
C319   C321    1.419   .     A
C320   H356    1.081   .     S
C320   N358    1.366   .     A
C320   C322    1.418   .     A
C321   N379    1.424   .     S
C321   C323    1.421   .     A
C322   N385    1.424   .     S
C322   C324    1.421   .     A
C323   C792    1.518   1_554 S
C324   C791    1.518   .     S
C325   O363    1.289   .     A
C325   O365    1.288   .     A
C325   C327    1.431   .     S
C326   O364    1.290   .     A
C326   O366    1.287   .     A
C326   C328    1.432   .     S
C328   C405    1.330   .     S
C328   H422    1.086   .     S
C329   H345    1.083   .     S
C329   C339    1.405   .     A
C329   C331    1.390   .     A
C330   C332    1.390   .     A
C330   H346    1.083   .     S
C330   C340    1.404   .     A
C331   C333    1.400   .     A
C331   H347    1.083   .     S
C332   C334    1.401   .     A
C332   H348    1.079   .     S
C333   C335    1.400   .     A
C334   C336    1.404   .     A
C335   H349    1.084   .     S
C335   C337    1.389   .     A
C336   C338    1.390   .     A
C336   H350    1.083   .     S
C337   C339    1.404   .     A
C337   H351    1.083   .     S
C338   C340    1.403   .     A
C338   H352    1.083   .     S
C340   C105    1.472   1_565 S
Cu341  O359    1.960   .     S
Cu341  O366    1.958   .     S
Cu341  O362    1.955   .     S
Cu341  Cu342   2.685   .     S
Cu341  O363    1.961   .     S
Cu341  N358    2.017   .     S
Cu342  N357    2.017   .     S
Cu342  O360    1.960   .     S
Cu342  O365    1.958   .     S
Cu342  O361    1.955   .     S
Cu342  O364    1.961   .     S
H343   C405    1.084   .     S
N367   H368    1.031   .     S
N367   C369    1.448   .     S
C369   H371    1.110   .     S
C369   H372    1.112   .     S
C369   H370    1.112   .     S
N373   C375    1.446   .     S
N373   H374    1.032   .     S
C375   H377    1.110   .     S
C375   H378    1.108   .     S
C375   H376    1.111   .     S
N379   H380    1.032   .     S
N379   C381    1.447   .     S
C381   H384    1.112   .     S
C381   H850    1.111   1_554 S
C381   H851    1.110   1_554 S
H382   C849    1.111   .     S
H383   C849    1.110   .     S
N385   H386    1.032   .     S
N385   C387    1.447   .     S
C387   H390    1.112   .     S
C387   H856    1.110   .     S
C387   H857    1.110   .     S
H388   C855    1.110   1_554 S
H389   C855    1.110   1_554 S
C391   C411    1.456   .     S
C391   O437    1.296   .     A
C391   O439    1.295   .     A
C392   O440    1.295   .     A
C392   C412    1.465   .     S
C392   O438    1.300   .     A
C393   H431    1.083   .     S
C393   C395    1.407   .     A
C393   C401    1.399   .     A
C394   C402    1.400   .     A
C394   C396    1.409   .     A
C394   H432    1.083   .     S
C395   N435    1.375   .     A
C395   N445    1.416   .     S
C396   N451    1.417   .     S
C396   N436    1.375   .     A
C397   N435    1.367   .     A
C397   H433    1.081   .     S
C397   C399    1.419   .     A
C398   H434    1.081   .     S
C398   N436    1.366   .     A
C398   C400    1.418   .     A
C399   N457    1.424   .     S
C399   C401    1.421   .     A
C400   N463    1.424   .     S
C400   C402    1.421   .     A
C401   C870    1.518   1_554 S
C402   C869    1.518   .     S
C403   O441    1.289   .     A
C403   O443    1.288   .     A
C403   C405    1.431   .     S
C404   O442    1.290   .     A
C404   O444    1.287   .     A
C404   C406    1.432   .     S
C406   C249    1.330   1_655 S
C406   H266    1.086   1_655 S
C407   H423    1.083   .     S
C407   C417    1.405   .     A
C407   C409    1.390   .     A
C408   C410    1.390   .     A
C408   H424    1.083   .     S
C408   C418    1.404   .     A
C409   C411    1.400   .     A
C409   H425    1.083   .     S
C410   C412    1.401   .     A
C410   H426    1.079   .     S
C411   C413    1.400   .     A
C412   C414    1.404   .     A
C413   H427    1.084   .     S
C413   C415    1.389   .     A
C414   C416    1.390   .     A
C414   H428    1.083   .     S
C415   C417    1.404   .     A
C415   H429    1.083   .     S
C416   C418    1.403   .     A
C416   H430    1.083   .     S
C418   C183    1.472   1_565 S
Cu419  O437    1.960   .     S
Cu419  O444    1.958   .     S
Cu419  O440    1.955   .     S
Cu419  Cu420   2.685   .     S
Cu419  O441    1.961   .     S
Cu419  N436    2.017   .     S
Cu420  N435    2.017   .     S
Cu420  O438    1.960   .     S
Cu420  O443    1.958   .     S
Cu420  O439    1.955   .     S
Cu420  O442    1.961   .     S
H421   C249    1.084   1_655 S
N445   H446    1.031   .     S
N445   C447    1.448   .     S
C447   H449    1.110   .     S
C447   H450    1.112   .     S
C447   H448    1.112   .     S
N451   C453    1.446   .     S
N451   H452    1.032   .     S
C453   H455    1.110   .     S
C453   H456    1.108   .     S
C453   H454    1.111   .     S
N457   H458    1.032   .     S
N457   C459    1.447   .     S
C459   H462    1.112   .     S
C459   H928    1.111   1_554 S
C459   H929    1.110   1_554 S
H460   C927    1.111   .     S
H461   C927    1.110   .     S
N463   H464    1.032   .     S
N463   C465    1.447   .     S
C465   H468    1.112   .     S
C465   H934    1.110   .     S
C465   H935    1.110   .     S
H466   C933    1.110   1_554 S
H467   C933    1.110   1_554 S
C469   C489    1.456   .     S
C469   O515    1.296   .     A
C469   O517    1.295   .     A
C470   O518    1.295   .     A
C470   C490    1.465   .     S
C470   O516    1.300   .     A
C471   H509    1.083   .     S
C471   C473    1.407   .     A
C471   C479    1.399   .     A
C472   C480    1.400   .     A
C472   C474    1.409   .     A
C472   H510    1.083   .     S
C473   N513    1.375   .     A
C473   N523    1.416   .     S
C474   N529    1.417   .     S
C474   N514    1.375   .     A
C475   N513    1.367   .     A
C475   H511    1.081   .     S
C475   C477    1.419   .     A
C476   H512    1.081   .     S
C476   N514    1.366   .     A
C476   C478    1.418   .     A
C477   N535    1.424   .     S
C477   C479    1.421   .     A
C478   N541    1.424   .     S
C478   C480    1.421   .     A
C480   C11     1.518   1_556 S
C481   O519    1.289   .     A
C481   O521    1.288   .     A
C481   C483    1.431   .     S
C482   O520    1.290   .     A
C482   O522    1.287   .     A
C482   C484    1.432   .     S
C483   C640    1.330   1_455 S
C483   H655    1.084   1_455 S
C484   C561    1.330   .     S
C484   H578    1.086   .     S
C485   H501    1.083   .     S
C485   C495    1.405   .     A
C485   C487    1.390   .     A
C486   C488    1.390   .     A
C486   H502    1.083   .     S
C486   C496    1.404   .     A
C487   C489    1.400   .     A
C487   H503    1.083   .     S
C488   C490    1.401   .     A
C488   H504    1.079   .     S
C489   C491    1.400   .     A
C490   C492    1.404   .     A
C491   H505    1.084   .     S
C491   C493    1.389   .     A
C492   C494    1.390   .     A
C492   H506    1.083   .     S
C493   C495    1.404   .     A
C493   H507    1.083   .     S
C494   C496    1.403   .     A
C494   H508    1.083   .     S
C495   C730    1.472   1_545 S
C496   C729    1.472   .     S
Cu497  O515    1.960   .     S
Cu497  O522    1.958   .     S
Cu497  O518    1.955   .     S
Cu497  Cu498   2.685   .     S
Cu497  O519    1.961   .     S
Cu497  N514    2.017   .     S
Cu498  N513    2.017   .     S
Cu498  O516    1.960   .     S
Cu498  O521    1.958   .     S
Cu498  O517    1.955   .     S
Cu498  O520    1.961   .     S
H499   C561    1.084   .     S
H500   C640    1.086   1_455 S
N523   H524    1.031   .     S
N523   C525    1.448   .     S
C525   H527    1.110   .     S
C525   H528    1.112   .     S
C525   H526    1.112   .     S
N529   C531    1.446   .     S
N529   H530    1.032   .     S
C531   H533    1.110   .     S
C531   H534    1.108   .     S
C531   H532    1.111   .     S
N535   H536    1.032   .     S
N535   C537    1.447   .     S
C537   H540    1.112   .     S
H538   C69     1.111   1_556 S
H539   C69     1.110   1_556 S
N541   H542    1.032   .     S
N541   C543    1.447   .     S
C543   H546    1.112   .     S
C543   H76     1.110   1_556 S
C543   H77     1.110   1_556 S
C547   C567    1.456   .     S
C547   O593    1.296   .     A
C547   O595    1.295   .     A
C548   O596    1.295   .     A
C548   C568    1.465   .     S
C548   O594    1.300   .     A
C549   H587    1.083   .     S
C549   C551    1.407   .     A
C549   C557    1.399   .     A
C550   C558    1.400   .     A
C550   C552    1.409   .     A
C550   H588    1.083   .     S
C551   N591    1.375   .     A
C551   N601    1.416   .     S
C552   N607    1.417   .     S
C552   N592    1.375   .     A
C553   N591    1.367   .     A
C553   H589    1.081   .     S
C553   C555    1.419   .     A
C554   H590    1.081   .     S
C554   N592    1.366   .     A
C554   C556    1.418   .     A
C555   N613    1.424   .     S
C555   C557    1.421   .     A
C556   N619    1.424   .     S
C556   C558    1.421   .     A
C558   C89     1.518   1_556 S
C559   O597    1.289   .     A
C559   O599    1.288   .     A
C559   C561    1.431   .     S
C560   O598    1.290   .     A
C560   O600    1.287   .     A
C560   C562    1.432   .     S
C562   C639    1.330   .     S
C562   H656    1.086   .     S
C563   H579    1.083   .     S
C563   C573    1.405   .     A
C563   C565    1.390   .     A
C564   C566    1.390   .     A
C564   H580    1.083   .     S
C564   C574    1.404   .     A
C565   C567    1.400   .     A
C565   H581    1.083   .     S
C566   C568    1.401   .     A
C566   H582    1.079   .     S
C567   C569    1.400   .     A
C568   C570    1.404   .     A
C569   H583    1.084   .     S
C569   C571    1.389   .     A
C570   C572    1.390   .     A
C570   H584    1.083   .     S
C571   C573    1.404   .     A
C571   H585    1.083   .     S
C572   C574    1.403   .     A
C572   H586    1.083   .     S
C573   C808    1.472   1_545 S
C574   C807    1.472   .     S
Cu575  O593    1.960   .     S
Cu575  O600    1.958   .     S
Cu575  O596    1.955   .     S
Cu575  Cu576   2.685   .     S
Cu575  O597    1.961   .     S
Cu575  N592    2.017   .     S
Cu576  N591    2.017   .     S
Cu576  O594    1.960   .     S
Cu576  O599    1.958   .     S
Cu576  O595    1.955   .     S
Cu576  O598    1.961   .     S
H577   C639    1.084   .     S
N601   H602    1.031   .     S
N601   C603    1.448   .     S
C603   H605    1.110   .     S
C603   H606    1.112   .     S
C603   H604    1.112   .     S
N607   C609    1.446   .     S
N607   H608    1.032   .     S
C609   H611    1.110   .     S
C609   H612    1.108   .     S
C609   H610    1.111   .     S
N613   H614    1.032   .     S
N613   C615    1.447   .     S
C615   H618    1.112   .     S
H616   C147    1.111   1_556 S
H617   C147    1.110   1_556 S
N619   H620    1.032   .     S
N619   C621    1.447   .     S
C621   H624    1.112   .     S
C621   H154    1.110   1_556 S
C621   H155    1.110   1_556 S
C625   C645    1.456   .     S
C625   O671    1.296   .     A
C625   O673    1.295   .     A
C626   O674    1.295   .     A
C626   C646    1.465   .     S
C626   O672    1.300   .     A
C627   H665    1.083   .     S
C627   C629    1.407   .     A
C627   C635    1.399   .     A
C628   C636    1.400   .     A
C628   C630    1.409   .     A
C628   H666    1.083   .     S
C629   N669    1.375   .     A
C629   N679    1.416   .     S
C630   N685    1.417   .     S
C630   N670    1.375   .     A
C631   N669    1.367   .     A
C631   H667    1.081   .     S
C631   C633    1.419   .     A
C632   H668    1.081   .     S
C632   N670    1.366   .     A
C632   C634    1.418   .     A
C633   N691    1.424   .     S
C633   C635    1.421   .     A
C634   N697    1.424   .     S
C634   C636    1.421   .     A
C636   C167    1.518   1_556 S
C637   O675    1.289   .     A
C637   O677    1.288   .     A
C637   C639    1.431   .     S
C638   O676    1.290   .     A
C638   O678    1.287   .     A
C638   C640    1.432   .     S
C640   C483    1.330   1_655 S
C640   H500    1.086   1_655 S
C641   H657    1.083   .     S
C641   C651    1.405   .     A
C641   C643    1.390   .     A
C642   C644    1.390   .     A
C642   H658    1.083   .     S
C642   C652    1.404   .     A
C643   C645    1.400   .     A
C643   H659    1.083   .     S
C644   C646    1.401   .     A
C644   H660    1.079   .     S
C645   C647    1.400   .     A
C646   C648    1.404   .     A
C647   H661    1.084   .     S
C647   C649    1.389   .     A
C648   C650    1.390   .     A
C648   H662    1.083   .     S
C649   C651    1.404   .     A
C649   H663    1.083   .     S
C650   C652    1.403   .     A
C650   H664    1.083   .     S
C651   C886    1.472   1_545 S
C652   C885    1.472   .     S
Cu653  O671    1.960   .     S
Cu653  O678    1.958   .     S
Cu653  O674    1.955   .     S
Cu653  Cu654   2.685   .     S
Cu653  O675    1.961   .     S
Cu653  N670    2.017   .     S
Cu654  N669    2.017   .     S
Cu654  O672    1.960   .     S
Cu654  O677    1.958   .     S
Cu654  O673    1.955   .     S
Cu654  O676    1.961   .     S
H655   C483    1.084   1_655 S
N679   H680    1.031   .     S
N679   C681    1.448   .     S
C681   H683    1.110   .     S
C681   H684    1.112   .     S
C681   H682    1.112   .     S
N685   C687    1.446   .     S
N685   H686    1.032   .     S
C687   H689    1.110   .     S
C687   H690    1.108   .     S
C687   H688    1.111   .     S
N691   H692    1.032   .     S
N691   C693    1.447   .     S
C693   H696    1.112   .     S
H694   C225    1.111   1_556 S
H695   C225    1.110   1_556 S
N697   H698    1.032   .     S
N697   C699    1.447   .     S
C699   H702    1.112   .     S
C699   H232    1.110   1_556 S
C699   H233    1.110   1_556 S
C703   C723    1.456   .     S
C703   O749    1.296   .     A
C703   O751    1.295   .     A
C704   O752    1.295   .     A
C704   C724    1.465   .     S
C704   O750    1.300   .     A
C705   H743    1.083   .     S
C705   C707    1.407   .     A
C705   C713    1.399   .     A
C706   C714    1.400   .     A
C706   C708    1.409   .     A
C706   H744    1.083   .     S
C707   N747    1.375   .     A
C707   N757    1.416   .     S
C708   N763    1.417   .     S
C708   N748    1.375   .     A
C709   N747    1.367   .     A
C709   H745    1.081   .     S
C709   C711    1.419   .     A
C710   H746    1.081   .     S
C710   N748    1.366   .     A
C710   C712    1.418   .     A
C711   N769    1.424   .     S
C711   C713    1.421   .     A
C712   N775    1.424   .     S
C712   C714    1.421   .     A
C714   C245    1.518   1_556 S
C715   O753    1.289   .     A
C715   O755    1.288   .     A
C715   C717    1.431   .     S
C716   O754    1.290   .     A
C716   O756    1.287   .     A
C716   C718    1.432   .     S
C717   C874    1.330   1_455 S
C717   H889    1.084   1_455 S
C718   C795    1.330   .     S
C718   H812    1.086   .     S
C719   H735    1.083   .     S
C719   C729    1.405   .     A
C719   C721    1.390   .     A
C720   C722    1.390   .     A
C720   H736    1.083   .     S
C720   C730    1.404   .     A
C721   C723    1.400   .     A
C721   H737    1.083   .     S
C722   C724    1.401   .     A
C722   H738    1.079   .     S
C723   C725    1.400   .     A
C724   C726    1.404   .     A
C725   H739    1.084   .     S
C725   C727    1.389   .     A
C726   C728    1.390   .     A
C726   H740    1.083   .     S
C727   C729    1.404   .     A
C727   H741    1.083   .     S
C728   C730    1.403   .     A
C728   H742    1.083   .     S
C730   C495    1.472   1_565 S
Cu731  O749    1.960   .     S
Cu731  O756    1.958   .     S
Cu731  O752    1.955   .     S
Cu731  Cu732   2.685   .     S
Cu731  O753    1.961   .     S
Cu731  N748    2.017   .     S
Cu732  N747    2.017   .     S
Cu732  O750    1.960   .     S
Cu732  O755    1.958   .     S
Cu732  O751    1.955   .     S
Cu732  O754    1.961   .     S
H733   C795    1.084   .     S
H734   C874    1.086   1_455 S
N757   H758    1.031   .     S
N757   C759    1.448   .     S
C759   H761    1.110   .     S
C759   H762    1.112   .     S
C759   H760    1.112   .     S
N763   C765    1.446   .     S
N763   H764    1.032   .     S
C765   H767    1.110   .     S
C765   H768    1.108   .     S
C765   H766    1.111   .     S
N769   H770    1.032   .     S
N769   C771    1.447   .     S
C771   H774    1.112   .     S
H772   C303    1.111   1_556 S
H773   C303    1.110   1_556 S
N775   H776    1.032   .     S
N775   C777    1.447   .     S
C777   H780    1.112   .     S
C777   H310    1.110   1_556 S
C777   H311    1.110   1_556 S
C781   C801    1.456   .     S
C781   O827    1.296   .     A
C781   O829    1.295   .     A
C782   O830    1.295   .     A
C782   C802    1.465   .     S
C782   O828    1.300   .     A
C783   H821    1.083   .     S
C783   C785    1.407   .     A
C783   C791    1.399   .     A
C784   C792    1.400   .     A
C784   C786    1.409   .     A
C784   H822    1.083   .     S
C785   N825    1.375   .     A
C785   N835    1.416   .     S
C786   N841    1.417   .     S
C786   N826    1.375   .     A
C787   N825    1.367   .     A
C787   H823    1.081   .     S
C787   C789    1.419   .     A
C788   H824    1.081   .     S
C788   N826    1.366   .     A
C788   C790    1.418   .     A
C789   N847    1.424   .     S
C789   C791    1.421   .     A
C790   N853    1.424   .     S
C790   C792    1.421   .     A
C792   C323    1.518   1_556 S
C793   O831    1.289   .     A
C793   O833    1.288   .     A
C793   C795    1.431   .     S
C794   O832    1.290   .     A
C794   O834    1.287   .     A
C794   C796    1.432   .     S
C796   C873    1.330   .     S
C796   H890    1.086   .     S
C797   H813    1.083   .     S
C797   C807    1.405   .     A
C797   C799    1.390   .     A
C798   C800    1.390   .     A
C798   H814    1.083   .     S
C798   C808    1.404   .     A
C799   C801    1.400   .     A
C799   H815    1.083   .     S
C800   C802    1.401   .     A
C800   H816    1.079   .     S
C801   C803    1.400   .     A
C802   C804    1.404   .     A
C803   H817    1.084   .     S
C803   C805    1.389   .     A
C804   C806    1.390   .     A
C804   H818    1.083   .     S
C805   C807    1.404   .     A
C805   H819    1.083   .     S
C806   C808    1.403   .     A
C806   H820    1.083   .     S
C808   C573    1.472   1_565 S
Cu809  O827    1.960   .     S
Cu809  O834    1.958   .     S
Cu809  O830    1.955   .     S
Cu809  Cu810   2.685   .     S
Cu809  O831    1.961   .     S
Cu809  N826    2.017   .     S
Cu810  N825    2.017   .     S
Cu810  O828    1.960   .     S
Cu810  O833    1.958   .     S
Cu810  O829    1.955   .     S
Cu810  O832    1.961   .     S
H811   C873    1.084   .     S
N835   H836    1.031   .     S
N835   C837    1.448   .     S
C837   H839    1.110   .     S
C837   H840    1.112   .     S
C837   H838    1.112   .     S
N841   C843    1.446   .     S
N841   H842    1.032   .     S
C843   H845    1.110   .     S
C843   H846    1.108   .     S
C843   H844    1.111   .     S
N847   H848    1.032   .     S
N847   C849    1.447   .     S
C849   H852    1.112   .     S
H850   C381    1.111   1_556 S
H851   C381    1.110   1_556 S
N853   H854    1.032   .     S
N853   C855    1.447   .     S
C855   H858    1.112   .     S
C855   H388    1.110   1_556 S
C855   H389    1.110   1_556 S
C859   C879    1.456   .     S
C859   O905    1.296   .     A
C859   O907    1.295   .     A
C860   O908    1.295   .     A
C860   C880    1.465   .     S
C860   O906    1.300   .     A
C861   H899    1.083   .     S
C861   C863    1.407   .     A
C861   C869    1.399   .     A
C862   C870    1.400   .     A
C862   C864    1.409   .     A
C862   H900    1.083   .     S
C863   N903    1.375   .     A
C863   N913    1.416   .     S
C864   N919    1.417   .     S
C864   N904    1.375   .     A
C865   N903    1.367   .     A
C865   H901    1.081   .     S
C865   C867    1.419   .     A
C866   H902    1.081   .     S
C866   N904    1.366   .     A
C866   C868    1.418   .     A
C867   N925    1.424   .     S
C867   C869    1.421   .     A
C868   N931    1.424   .     S
C868   C870    1.421   .     A
C870   C401    1.518   1_556 S
C871   O909    1.289   .     A
C871   O911    1.288   .     A
C871   C873    1.431   .     S
C872   O910    1.290   .     A
C872   O912    1.287   .     A
C872   C874    1.432   .     S
C874   C717    1.330   1_655 S
C874   H734    1.086   1_655 S
C875   H891    1.083   .     S
C875   C885    1.405   .     A
C875   C877    1.390   .     A
C876   C878    1.390   .     A
C876   H892    1.083   .     S
C876   C886    1.404   .     A
C877   C879    1.400   .     A
C877   H893    1.083   .     S
C878   C880    1.401   .     A
C878   H894    1.079   .     S
C879   C881    1.400   .     A
C880   C882    1.404   .     A
C881   H895    1.084   .     S
C881   C883    1.389   .     A
C882   C884    1.390   .     A
C882   H896    1.083   .     S
C883   C885    1.404   .     A
C883   H897    1.083   .     S
C884   C886    1.403   .     A
C884   H898    1.083   .     S
C886   C651    1.472   1_565 S
Cu887  O905    1.960   .     S
Cu887  O912    1.958   .     S
Cu887  O908    1.955   .     S
Cu887  Cu888   2.685   .     S
Cu887  O909    1.961   .     S
Cu887  N904    2.017   .     S
Cu888  N903    2.017   .     S
Cu888  O906    1.960   .     S
Cu888  O911    1.958   .     S
Cu888  O907    1.955   .     S
Cu888  O910    1.961   .     S
H889   C717    1.084   1_655 S
N913   H914    1.031   .     S
N913   C915    1.448   .     S
C915   H917    1.110   .     S
C915   H918    1.112   .     S
C915   H916    1.112   .     S
N919   C921    1.446   .     S
N919   H920    1.032   .     S
C921   H923    1.110   .     S
C921   H924    1.108   .     S
C921   H922    1.111   .     S
N925   H926    1.032   .     S
N925   C927    1.447   .     S
C927   H930    1.112   .     S
H928   C459    1.111   1_556 S
H929   C459    1.110   1_556 S
N931   H932    1.032   .     S
N931   C933    1.447   .     S
C933   H936    1.112   .     S
C933   H466    1.110   1_556 S
C933   H467    1.110   1_556 S
