data_str_m2_o10_o18_pcu_sym.162
_audit_creation_date              2020-01-03
_audit_creation_method            'Materials Studio'
_symmetry_space_group_name_H-M    'P1'
_symmetry_Int_Tables_number       1
_symmetry_cell_setting            triclinic
loop_
_symmetry_equiv_pos_as_xyz
  x,y,z
_cell_length_a                    22.5907
_cell_length_b                    26.0493
_cell_length_c                    31.4184
_cell_angle_alpha                 94.3111
_cell_angle_beta                  75.2335
_cell_angle_gamma                 103.3190
loop_
_atom_site_label
_atom_site_type_symbol
_atom_site_fract_x
_atom_site_fract_y
_atom_site_fract_z
_atom_site_U_iso_or_equiv
_atom_site_adp_type
_atom_site_occupancy
C1     C     0.18166   0.26661   0.25134   0.00000  Uiso   1.00
C2     C     0.15164   0.06672   0.24874   0.00000  Uiso   1.00
C3     C     0.10745   0.12447   0.03785   0.00000  Uiso   1.00
C4     C     0.24704   0.18893   0.45509   0.00000  Uiso   1.00
C5     C     0.06577   0.10412   0.01196   0.00000  Uiso   1.00
C6     C     0.29156   0.19834   0.48014   0.00000  Uiso   1.00
C7     C     0.18991   0.32271   0.25202   0.00000  Uiso   1.00
C8     C     0.14333   0.01062   0.24818   0.00000  Uiso   1.00
C9     C     0.12805   0.16161   0.33310   0.00000  Uiso   1.00
C10    C     0.20550   0.17115   0.16657   0.00000  Uiso   1.00
C11    C     0.10462   0.15302   0.38099   0.00000  Uiso   1.00
C12    C     0.23037   0.17689   0.11790   0.00000  Uiso   1.00
C13    C     0.03420   0.10145   0.44317   0.00000  Uiso   1.00
C14    C     0.31622   0.19640   0.05163   0.00000  Uiso   1.00
C15    C     0.04896   0.11549   0.39851   0.00000  Uiso   1.00
C16    C     0.29421   0.18158   0.09650   0.00000  Uiso   1.00
C17    C     0.14445   0.17685   0.40848   0.00000  Uiso   1.00
C18    C     0.18986   0.18146   0.09226   0.00000  Uiso   1.00
C19    C     0.13621   0.15543   0.44999   0.00000  Uiso   1.00
C20    C     0.20863   0.17659   0.04611   0.00000  Uiso   1.00
C21    C     0.07861   0.12006   0.46828   0.00000  Uiso   1.00
C22    C     0.27277   0.19088   0.02574   0.00000  Uiso   1.00
C23    C     0.18265   0.16935   0.47473   0.00000  Uiso   1.00
C24    C     0.16507   0.15868   0.02022   0.00000  Uiso   1.00
Cu25   Cu    0.10737   0.16108   0.24517   0.00000  Uiso   1.00
Cu26   Cu    0.22596   0.17225   0.25484   0.00000  Uiso   1.00
H27    H     0.02257   0.07689   0.02686   0.00000  Uiso   1.00
H28    H     0.00739   0.21037   0.46349   0.00000  Uiso   1.00
H29    H     0.09606   0.11065   0.07120   0.00000  Uiso   1.00
H30    H     0.26475   0.19249   0.41987   0.00000  Uiso   1.00
H31    H     0.23470   0.01330   0.25565   0.00000  Uiso   1.00
H32    H     0.09853   0.32004   0.24457   0.00000  Uiso   1.00
H33    H     0.00124   0.20584   0.28419   0.00000  Uiso   1.00
H34    H     0.33194   0.12721   0.21605   0.00000  Uiso   1.00
N35    N     0.31506   0.18068   0.26212   0.00000  Uiso   1.00
N36    N     0.01827   0.15265   0.23788   0.00000  Uiso   1.00
O37    O     0.12815   0.23809   0.24686   0.00000  Uiso   1.00
O38    O     0.20518   0.09524   0.25314   0.00000  Uiso   1.00
O39    O     0.22829   0.24753   0.25503   0.00000  Uiso   1.00
O40    O     0.10504   0.08580   0.24498   0.00000  Uiso   1.00
O41    O     0.08851   0.15930   0.30855   0.00000  Uiso   1.00
O42    O     0.24482   0.17403   0.19146   0.00000  Uiso   1.00
O43    O     0.18866   0.16874   0.31671   0.00000  Uiso   1.00
O44    O     0.14468   0.16460   0.18329   0.00000  Uiso   1.00
O45    O     0.13773   0.20055   0.11199   0.00000  Uiso   1.00
H46    H     0.13341   0.22547   0.09133   0.00000  Uiso   1.00
O47    O     0.18926   0.22279   0.39641   0.00000  Uiso   1.00
H48    H     0.17767   0.24121   0.37430   0.00000  Uiso   1.00
Cl49   Cl    0.01114   0.16372   0.12386   0.00000  Uiso   1.00
Cl50   Cl    0.33325   0.08256   0.36438   0.00000  Uiso   1.00
O51    O     0.31150   0.06802   0.46279   0.00000  Uiso   1.00
H52    H     0.27998   0.06761   0.44589   0.00000  Uiso   1.00
O53    O     0.04553   0.21487   0.03240   0.00000  Uiso   1.00
H54    H     0.06579   0.23159   0.05582   0.00000  Uiso   1.00
C55    C     0.51499   0.26661   0.25134   0.00000  Uiso   1.00
C56    C     0.48497   0.06672   0.24874   0.00000  Uiso   1.00
C57    C     0.44078   0.12447   0.03785   0.00000  Uiso   1.00
C58    C     0.58037   0.18893   0.45509   0.00000  Uiso   1.00
C59    C     0.39911   0.10412   0.01196   0.00000  Uiso   1.00
C60    C     0.62489   0.19834   0.48014   0.00000  Uiso   1.00
C61    C     0.52324   0.32271   0.25202   0.00000  Uiso   1.00
C62    C     0.47666   0.01062   0.24818   0.00000  Uiso   1.00
C63    C     0.46138   0.16161   0.33310   0.00000  Uiso   1.00
C64    C     0.53883   0.17115   0.16657   0.00000  Uiso   1.00
C65    C     0.43796   0.15302   0.38099   0.00000  Uiso   1.00
C66    C     0.56370   0.17689   0.11790   0.00000  Uiso   1.00
C67    C     0.36754   0.10145   0.44317   0.00000  Uiso   1.00
C68    C     0.64955   0.19640   0.05163   0.00000  Uiso   1.00
C69    C     0.38229   0.11549   0.39851   0.00000  Uiso   1.00
C70    C     0.62754   0.18158   0.09650   0.00000  Uiso   1.00
C71    C     0.47778   0.17685   0.40848   0.00000  Uiso   1.00
C72    C     0.52320   0.18146   0.09226   0.00000  Uiso   1.00
C73    C     0.46954   0.15543   0.44999   0.00000  Uiso   1.00
C74    C     0.54196   0.17659   0.04611   0.00000  Uiso   1.00
C75    C     0.41194   0.12006   0.46828   0.00000  Uiso   1.00
C76    C     0.60610   0.19088   0.02574   0.00000  Uiso   1.00
C77    C     0.51598   0.16935   0.47473   0.00000  Uiso   1.00
C78    C     0.49840   0.15868   0.02022   0.00000  Uiso   1.00
Cu79   Cu    0.44071   0.16108   0.24517   0.00000  Uiso   1.00
Cu80   Cu    0.55929   0.17225   0.25484   0.00000  Uiso   1.00
H81    H     0.35591   0.07689   0.02686   0.00000  Uiso   1.00
H82    H     0.34072   0.21037   0.46349   0.00000  Uiso   1.00
H83    H     0.42939   0.11065   0.07120   0.00000  Uiso   1.00
H84    H     0.59808   0.19249   0.41987   0.00000  Uiso   1.00
H85    H     0.56803   0.01330   0.25565   0.00000  Uiso   1.00
H86    H     0.43186   0.32004   0.24457   0.00000  Uiso   1.00
H87    H     0.33457   0.20584   0.28419   0.00000  Uiso   1.00
H88    H     0.66527   0.12721   0.21605   0.00000  Uiso   1.00
N89    N     0.64839   0.18068   0.26212   0.00000  Uiso   1.00
N90    N     0.35161   0.15265   0.23788   0.00000  Uiso   1.00
O91    O     0.46148   0.23809   0.24686   0.00000  Uiso   1.00
O92    O     0.53852   0.09524   0.25314   0.00000  Uiso   1.00
O93    O     0.56163   0.24753   0.25503   0.00000  Uiso   1.00
O94    O     0.43837   0.08580   0.24498   0.00000  Uiso   1.00
O95    O     0.42185   0.15930   0.30855   0.00000  Uiso   1.00
O96    O     0.57815   0.17403   0.19146   0.00000  Uiso   1.00
O97    O     0.52199   0.16874   0.31671   0.00000  Uiso   1.00
O98    O     0.47801   0.16460   0.18329   0.00000  Uiso   1.00
O99    O     0.47107   0.20055   0.11199   0.00000  Uiso   1.00
H100   H     0.46674   0.22547   0.09133   0.00000  Uiso   1.00
O101   O     0.52259   0.22279   0.39641   0.00000  Uiso   1.00
H102   H     0.51100   0.24121   0.37430   0.00000  Uiso   1.00
Cl103  Cl    0.34447   0.16372   0.12386   0.00000  Uiso   1.00
Cl104  Cl    0.66658   0.08256   0.36438   0.00000  Uiso   1.00
O105   O     0.64483   0.06802   0.46279   0.00000  Uiso   1.00
H106   H     0.61331   0.06761   0.44589   0.00000  Uiso   1.00
O107   O     0.37886   0.21487   0.03240   0.00000  Uiso   1.00
H108   H     0.39913   0.23159   0.05582   0.00000  Uiso   1.00
C109   C     0.84832   0.26661   0.25134   0.00000  Uiso   1.00
C110   C     0.81830   0.06672   0.24874   0.00000  Uiso   1.00
C111   C     0.77412   0.12447   0.03785   0.00000  Uiso   1.00
C112   C     0.91371   0.18893   0.45509   0.00000  Uiso   1.00
C113   C     0.73244   0.10412   0.01196   0.00000  Uiso   1.00
C114   C     0.95823   0.19834   0.48014   0.00000  Uiso   1.00
C115   C     0.85657   0.32271   0.25202   0.00000  Uiso   1.00
C116   C     0.81000   0.01062   0.24818   0.00000  Uiso   1.00
C117   C     0.79472   0.16161   0.33310   0.00000  Uiso   1.00
C118   C     0.87217   0.17115   0.16657   0.00000  Uiso   1.00
C119   C     0.77129   0.15302   0.38099   0.00000  Uiso   1.00
C120   C     0.89704   0.17689   0.11790   0.00000  Uiso   1.00
C121   C     0.70087   0.10145   0.44317   0.00000  Uiso   1.00
C122   C     0.98289   0.19640   0.05163   0.00000  Uiso   1.00
C123   C     0.71562   0.11549   0.39851   0.00000  Uiso   1.00
C124   C     0.96088   0.18158   0.09650   0.00000  Uiso   1.00
C125   C     0.81112   0.17685   0.40848   0.00000  Uiso   1.00
C126   C     0.85653   0.18146   0.09226   0.00000  Uiso   1.00
C127   C     0.80288   0.15543   0.44999   0.00000  Uiso   1.00
C128   C     0.87530   0.17659   0.04611   0.00000  Uiso   1.00
C129   C     0.74528   0.12006   0.46828   0.00000  Uiso   1.00
C130   C     0.93943   0.19088   0.02574   0.00000  Uiso   1.00
C131   C     0.84932   0.16935   0.47473   0.00000  Uiso   1.00
C132   C     0.83174   0.15868   0.02022   0.00000  Uiso   1.00
Cu133  Cu    0.77404   0.16108   0.24517   0.00000  Uiso   1.00
Cu134  Cu    0.89263   0.17225   0.25484   0.00000  Uiso   1.00
H135   H     0.68924   0.07689   0.02686   0.00000  Uiso   1.00
H136   H     0.67406   0.21037   0.46349   0.00000  Uiso   1.00
H137   H     0.76273   0.11065   0.07120   0.00000  Uiso   1.00
H138   H     0.93141   0.19249   0.41987   0.00000  Uiso   1.00
H139   H     0.90137   0.01330   0.25565   0.00000  Uiso   1.00
H140   H     0.76520   0.32004   0.24457   0.00000  Uiso   1.00
H141   H     0.66790   0.20584   0.28419   0.00000  Uiso   1.00
H142   H     0.99861   0.12721   0.21605   0.00000  Uiso   1.00
N143   N     0.98173   0.18068   0.26212   0.00000  Uiso   1.00
N144   N     0.68494   0.15265   0.23788   0.00000  Uiso   1.00
O145   O     0.79482   0.23809   0.24686   0.00000  Uiso   1.00
O146   O     0.87185   0.09524   0.25314   0.00000  Uiso   1.00
O147   O     0.89496   0.24753   0.25503   0.00000  Uiso   1.00
O148   O     0.77171   0.08580   0.24498   0.00000  Uiso   1.00
O149   O     0.75518   0.15930   0.30855   0.00000  Uiso   1.00
O150   O     0.91149   0.17403   0.19146   0.00000  Uiso   1.00
O151   O     0.85532   0.16874   0.31671   0.00000  Uiso   1.00
O152   O     0.81134   0.16460   0.18329   0.00000  Uiso   1.00
O153   O     0.80440   0.20055   0.11199   0.00000  Uiso   1.00
H154   H     0.80007   0.22547   0.09133   0.00000  Uiso   1.00
O155   O     0.85593   0.22279   0.39641   0.00000  Uiso   1.00
H156   H     0.84433   0.24121   0.37430   0.00000  Uiso   1.00
Cl157  Cl    0.67781   0.16372   0.12386   0.00000  Uiso   1.00
Cl158  Cl    0.99991   0.08256   0.36438   0.00000  Uiso   1.00
O159   O     0.97816   0.06802   0.46279   0.00000  Uiso   1.00
H160   H     0.94664   0.06761   0.44589   0.00000  Uiso   1.00
O161   O     0.71220   0.21487   0.03240   0.00000  Uiso   1.00
H162   H     0.73246   0.23159   0.05582   0.00000  Uiso   1.00
C163   C     0.18166   0.59994   0.25134   0.00000  Uiso   1.00
C164   C     0.15164   0.40006   0.24874   0.00000  Uiso   1.00
C165   C     0.10745   0.45781   0.03785   0.00000  Uiso   1.00
C166   C     0.24704   0.52226   0.45509   0.00000  Uiso   1.00
C167   C     0.06577   0.43746   0.01196   0.00000  Uiso   1.00
C168   C     0.29156   0.53168   0.48014   0.00000  Uiso   1.00
C169   C     0.18991   0.65604   0.25202   0.00000  Uiso   1.00
C170   C     0.14333   0.34396   0.24818   0.00000  Uiso   1.00
C171   C     0.12805   0.49494   0.33310   0.00000  Uiso   1.00
C172   C     0.20550   0.50449   0.16657   0.00000  Uiso   1.00
C173   C     0.10462   0.48635   0.38099   0.00000  Uiso   1.00
C174   C     0.23037   0.51022   0.11790   0.00000  Uiso   1.00
C175   C     0.03420   0.43478   0.44317   0.00000  Uiso   1.00
C176   C     0.31622   0.52973   0.05163   0.00000  Uiso   1.00
C177   C     0.04896   0.44883   0.39851   0.00000  Uiso   1.00
C178   C     0.29421   0.51491   0.09650   0.00000  Uiso   1.00
C179   C     0.14445   0.51018   0.40848   0.00000  Uiso   1.00
C180   C     0.18986   0.51479   0.09226   0.00000  Uiso   1.00
C181   C     0.13621   0.48876   0.44999   0.00000  Uiso   1.00
C182   C     0.20863   0.50992   0.04611   0.00000  Uiso   1.00
C183   C     0.07861   0.45340   0.46828   0.00000  Uiso   1.00
C184   C     0.27277   0.52421   0.02574   0.00000  Uiso   1.00
C185   C     0.18265   0.50268   0.47473   0.00000  Uiso   1.00
C186   C     0.16507   0.49201   0.02022   0.00000  Uiso   1.00
Cu187  Cu    0.10737   0.49441   0.24517   0.00000  Uiso   1.00
Cu188  Cu    0.22596   0.50559   0.25484   0.00000  Uiso   1.00
H189   H     0.02257   0.41022   0.02686   0.00000  Uiso   1.00
H190   H     0.00739   0.54371   0.46349   0.00000  Uiso   1.00
H191   H     0.09606   0.44398   0.07120   0.00000  Uiso   1.00
H192   H     0.26475   0.52583   0.41987   0.00000  Uiso   1.00
H193   H     0.23470   0.34663   0.25565   0.00000  Uiso   1.00
H194   H     0.09853   0.65337   0.24457   0.00000  Uiso   1.00
H195   H     0.00124   0.53917   0.28419   0.00000  Uiso   1.00
H196   H     0.33194   0.46054   0.21605   0.00000  Uiso   1.00
N197   N     0.31506   0.51401   0.26212   0.00000  Uiso   1.00
N198   N     0.01827   0.48599   0.23788   0.00000  Uiso   1.00
O199   O     0.12815   0.57142   0.24686   0.00000  Uiso   1.00
O200   O     0.20518   0.42858   0.25314   0.00000  Uiso   1.00
O201   O     0.22829   0.58086   0.25503   0.00000  Uiso   1.00
O202   O     0.10504   0.41914   0.24498   0.00000  Uiso   1.00
O203   O     0.08851   0.49263   0.30855   0.00000  Uiso   1.00
O204   O     0.24482   0.50737   0.19146   0.00000  Uiso   1.00
O205   O     0.18866   0.50207   0.31671   0.00000  Uiso   1.00
O206   O     0.14468   0.49793   0.18329   0.00000  Uiso   1.00
O207   O     0.13773   0.53388   0.11199   0.00000  Uiso   1.00
H208   H     0.13341   0.55880   0.09133   0.00000  Uiso   1.00
O209   O     0.18926   0.55613   0.39641   0.00000  Uiso   1.00
H210   H     0.17767   0.57454   0.37430   0.00000  Uiso   1.00
Cl211  Cl    0.01114   0.49705   0.12386   0.00000  Uiso   1.00
Cl212  Cl    0.33325   0.41589   0.36438   0.00000  Uiso   1.00
O213   O     0.31150   0.40135   0.46279   0.00000  Uiso   1.00
H214   H     0.27998   0.40095   0.44589   0.00000  Uiso   1.00
O215   O     0.04553   0.54820   0.03240   0.00000  Uiso   1.00
H216   H     0.06579   0.56492   0.05582   0.00000  Uiso   1.00
C217   C     0.51499   0.59994   0.25134   0.00000  Uiso   1.00
C218   C     0.48497   0.40006   0.24874   0.00000  Uiso   1.00
C219   C     0.44078   0.45781   0.03785   0.00000  Uiso   1.00
C220   C     0.58037   0.52226   0.45509   0.00000  Uiso   1.00
C221   C     0.39911   0.43746   0.01196   0.00000  Uiso   1.00
C222   C     0.62489   0.53168   0.48014   0.00000  Uiso   1.00
C223   C     0.52324   0.65604   0.25202   0.00000  Uiso   1.00
C224   C     0.47666   0.34396   0.24818   0.00000  Uiso   1.00
C225   C     0.46138   0.49494   0.33310   0.00000  Uiso   1.00
C226   C     0.53883   0.50449   0.16657   0.00000  Uiso   1.00
C227   C     0.43796   0.48635   0.38099   0.00000  Uiso   1.00
C228   C     0.56370   0.51022   0.11790   0.00000  Uiso   1.00
C229   C     0.36754   0.43478   0.44317   0.00000  Uiso   1.00
C230   C     0.64955   0.52973   0.05163   0.00000  Uiso   1.00
C231   C     0.38229   0.44883   0.39851   0.00000  Uiso   1.00
C232   C     0.62754   0.51491   0.09650   0.00000  Uiso   1.00
C233   C     0.47778   0.51018   0.40848   0.00000  Uiso   1.00
C234   C     0.52320   0.51479   0.09226   0.00000  Uiso   1.00
C235   C     0.46954   0.48876   0.44999   0.00000  Uiso   1.00
C236   C     0.54196   0.50992   0.04611   0.00000  Uiso   1.00
C237   C     0.41194   0.45340   0.46828   0.00000  Uiso   1.00
C238   C     0.60610   0.52421   0.02574   0.00000  Uiso   1.00
C239   C     0.51598   0.50268   0.47473   0.00000  Uiso   1.00
C240   C     0.49840   0.49201   0.02022   0.00000  Uiso   1.00
Cu241  Cu    0.44071   0.49441   0.24517   0.00000  Uiso   1.00
Cu242  Cu    0.55929   0.50559   0.25484   0.00000  Uiso   1.00
H243   H     0.35591   0.41022   0.02686   0.00000  Uiso   1.00
H244   H     0.34072   0.54371   0.46349   0.00000  Uiso   1.00
H245   H     0.42939   0.44398   0.07120   0.00000  Uiso   1.00
H246   H     0.59808   0.52583   0.41987   0.00000  Uiso   1.00
H247   H     0.56803   0.34663   0.25565   0.00000  Uiso   1.00
H248   H     0.43186   0.65337   0.24457   0.00000  Uiso   1.00
H249   H     0.33457   0.53917   0.28419   0.00000  Uiso   1.00
H250   H     0.66527   0.46054   0.21605   0.00000  Uiso   1.00
N251   N     0.64839   0.51401   0.26212   0.00000  Uiso   1.00
N252   N     0.35161   0.48599   0.23788   0.00000  Uiso   1.00
O253   O     0.46148   0.57142   0.24686   0.00000  Uiso   1.00
O254   O     0.53852   0.42858   0.25314   0.00000  Uiso   1.00
O255   O     0.56163   0.58086   0.25503   0.00000  Uiso   1.00
O256   O     0.43837   0.41914   0.24498   0.00000  Uiso   1.00
O257   O     0.42185   0.49263   0.30855   0.00000  Uiso   1.00
O258   O     0.57815   0.50737   0.19146   0.00000  Uiso   1.00
O259   O     0.52199   0.50207   0.31671   0.00000  Uiso   1.00
O260   O     0.47801   0.49793   0.18329   0.00000  Uiso   1.00
O261   O     0.47107   0.53388   0.11199   0.00000  Uiso   1.00
H262   H     0.46674   0.55880   0.09133   0.00000  Uiso   1.00
O263   O     0.52259   0.55613   0.39641   0.00000  Uiso   1.00
H264   H     0.51100   0.57454   0.37430   0.00000  Uiso   1.00
Cl265  Cl    0.34447   0.49705   0.12386   0.00000  Uiso   1.00
Cl266  Cl    0.66658   0.41589   0.36438   0.00000  Uiso   1.00
O267   O     0.64483   0.40135   0.46279   0.00000  Uiso   1.00
H268   H     0.61331   0.40095   0.44589   0.00000  Uiso   1.00
O269   O     0.37886   0.54820   0.03240   0.00000  Uiso   1.00
H270   H     0.39913   0.56492   0.05582   0.00000  Uiso   1.00
C271   C     0.84832   0.59994   0.25134   0.00000  Uiso   1.00
C272   C     0.81830   0.40006   0.24874   0.00000  Uiso   1.00
C273   C     0.77412   0.45781   0.03785   0.00000  Uiso   1.00
C274   C     0.91371   0.52226   0.45509   0.00000  Uiso   1.00
C275   C     0.73244   0.43746   0.01196   0.00000  Uiso   1.00
C276   C     0.95823   0.53168   0.48014   0.00000  Uiso   1.00
C277   C     0.85657   0.65604   0.25202   0.00000  Uiso   1.00
C278   C     0.81000   0.34396   0.24818   0.00000  Uiso   1.00
C279   C     0.79472   0.49494   0.33310   0.00000  Uiso   1.00
C280   C     0.87217   0.50449   0.16657   0.00000  Uiso   1.00
C281   C     0.77129   0.48635   0.38099   0.00000  Uiso   1.00
C282   C     0.89704   0.51022   0.11790   0.00000  Uiso   1.00
C283   C     0.70087   0.43478   0.44317   0.00000  Uiso   1.00
C284   C     0.98289   0.52973   0.05163   0.00000  Uiso   1.00
C285   C     0.71562   0.44883   0.39851   0.00000  Uiso   1.00
C286   C     0.96088   0.51491   0.09650   0.00000  Uiso   1.00
C287   C     0.81112   0.51018   0.40848   0.00000  Uiso   1.00
C288   C     0.85653   0.51479   0.09226   0.00000  Uiso   1.00
C289   C     0.80288   0.48876   0.44999   0.00000  Uiso   1.00
C290   C     0.87530   0.50992   0.04611   0.00000  Uiso   1.00
C291   C     0.74528   0.45340   0.46828   0.00000  Uiso   1.00
C292   C     0.93943   0.52421   0.02574   0.00000  Uiso   1.00
C293   C     0.84932   0.50268   0.47473   0.00000  Uiso   1.00
C294   C     0.83174   0.49201   0.02022   0.00000  Uiso   1.00
Cu295  Cu    0.77404   0.49441   0.24517   0.00000  Uiso   1.00
Cu296  Cu    0.89263   0.50559   0.25484   0.00000  Uiso   1.00
H297   H     0.68924   0.41022   0.02686   0.00000  Uiso   1.00
H298   H     0.67406   0.54371   0.46349   0.00000  Uiso   1.00
H299   H     0.76273   0.44398   0.07120   0.00000  Uiso   1.00
H300   H     0.93141   0.52583   0.41987   0.00000  Uiso   1.00
H301   H     0.90137   0.34663   0.25565   0.00000  Uiso   1.00
H302   H     0.76520   0.65337   0.24457   0.00000  Uiso   1.00
H303   H     0.66790   0.53917   0.28419   0.00000  Uiso   1.00
H304   H     0.99861   0.46054   0.21605   0.00000  Uiso   1.00
N305   N     0.98173   0.51401   0.26212   0.00000  Uiso   1.00
N306   N     0.68494   0.48599   0.23788   0.00000  Uiso   1.00
O307   O     0.79482   0.57142   0.24686   0.00000  Uiso   1.00
O308   O     0.87185   0.42858   0.25314   0.00000  Uiso   1.00
O309   O     0.89496   0.58086   0.25503   0.00000  Uiso   1.00
O310   O     0.77171   0.41914   0.24498   0.00000  Uiso   1.00
O311   O     0.75518   0.49263   0.30855   0.00000  Uiso   1.00
O312   O     0.91149   0.50737   0.19146   0.00000  Uiso   1.00
O313   O     0.85532   0.50207   0.31671   0.00000  Uiso   1.00
O314   O     0.81134   0.49793   0.18329   0.00000  Uiso   1.00
O315   O     0.80440   0.53388   0.11199   0.00000  Uiso   1.00
H316   H     0.80007   0.55880   0.09133   0.00000  Uiso   1.00
O317   O     0.85593   0.55613   0.39641   0.00000  Uiso   1.00
H318   H     0.84433   0.57454   0.37430   0.00000  Uiso   1.00
Cl319  Cl    0.67781   0.49705   0.12386   0.00000  Uiso   1.00
Cl320  Cl    0.99991   0.41589   0.36438   0.00000  Uiso   1.00
O321   O     0.97816   0.40135   0.46279   0.00000  Uiso   1.00
H322   H     0.94664   0.40095   0.44589   0.00000  Uiso   1.00
O323   O     0.71220   0.54820   0.03240   0.00000  Uiso   1.00
H324   H     0.73246   0.56492   0.05582   0.00000  Uiso   1.00
C325   C     0.18166   0.93328   0.25134   0.00000  Uiso   1.00
C326   C     0.15164   0.73339   0.24874   0.00000  Uiso   1.00
C327   C     0.10745   0.79114   0.03785   0.00000  Uiso   1.00
C328   C     0.24704   0.85560   0.45509   0.00000  Uiso   1.00
C329   C     0.06577   0.77079   0.01196   0.00000  Uiso   1.00
C330   C     0.29156   0.86501   0.48014   0.00000  Uiso   1.00
C331   C     0.18991   0.98938   0.25202   0.00000  Uiso   1.00
C332   C     0.14333   0.67729   0.24818   0.00000  Uiso   1.00
C333   C     0.12805   0.82827   0.33310   0.00000  Uiso   1.00
C334   C     0.20550   0.83782   0.16657   0.00000  Uiso   1.00
C335   C     0.10462   0.81968   0.38099   0.00000  Uiso   1.00
C336   C     0.23037   0.84355   0.11790   0.00000  Uiso   1.00
C337   C     0.03420   0.76811   0.44317   0.00000  Uiso   1.00
C338   C     0.31622   0.86307   0.05163   0.00000  Uiso   1.00
C339   C     0.04896   0.78216   0.39851   0.00000  Uiso   1.00
C340   C     0.29421   0.84825   0.09650   0.00000  Uiso   1.00
C341   C     0.14445   0.84351   0.40848   0.00000  Uiso   1.00
C342   C     0.18986   0.84812   0.09226   0.00000  Uiso   1.00
C343   C     0.13621   0.82210   0.44999   0.00000  Uiso   1.00
C344   C     0.20863   0.84325   0.04611   0.00000  Uiso   1.00
C345   C     0.07861   0.78673   0.46828   0.00000  Uiso   1.00
C346   C     0.27277   0.85754   0.02574   0.00000  Uiso   1.00
C347   C     0.18265   0.83601   0.47473   0.00000  Uiso   1.00
C348   C     0.16507   0.82534   0.02022   0.00000  Uiso   1.00
Cu349  Cu    0.10737   0.82775   0.24517   0.00000  Uiso   1.00
Cu350  Cu    0.22596   0.83892   0.25484   0.00000  Uiso   1.00
H351   H     0.02257   0.74356   0.02686   0.00000  Uiso   1.00
H352   H     0.00739   0.87704   0.46349   0.00000  Uiso   1.00
H353   H     0.09606   0.77732   0.07120   0.00000  Uiso   1.00
H354   H     0.26475   0.85916   0.41987   0.00000  Uiso   1.00
H355   H     0.23470   0.67996   0.25565   0.00000  Uiso   1.00
H356   H     0.09853   0.98671   0.24457   0.00000  Uiso   1.00
H357   H     0.00124   0.87251   0.28419   0.00000  Uiso   1.00
H358   H     0.33194   0.79387   0.21605   0.00000  Uiso   1.00
N359   N     0.31506   0.84735   0.26212   0.00000  Uiso   1.00
N360   N     0.01827   0.81932   0.23788   0.00000  Uiso   1.00
O361   O     0.12815   0.90476   0.24686   0.00000  Uiso   1.00
O362   O     0.20518   0.76191   0.25314   0.00000  Uiso   1.00
O363   O     0.22829   0.91420   0.25503   0.00000  Uiso   1.00
O364   O     0.10504   0.75247   0.24498   0.00000  Uiso   1.00
O365   O     0.08851   0.82597   0.30855   0.00000  Uiso   1.00
O366   O     0.24482   0.84070   0.19146   0.00000  Uiso   1.00
O367   O     0.18866   0.83540   0.31671   0.00000  Uiso   1.00
O368   O     0.14468   0.83126   0.18329   0.00000  Uiso   1.00
O369   O     0.13773   0.86722   0.11199   0.00000  Uiso   1.00
H370   H     0.13341   0.89213   0.09133   0.00000  Uiso   1.00
O371   O     0.18926   0.88946   0.39641   0.00000  Uiso   1.00
H372   H     0.17767   0.90788   0.37430   0.00000  Uiso   1.00
Cl373  Cl    0.01114   0.83038   0.12386   0.00000  Uiso   1.00
Cl374  Cl    0.33325   0.74923   0.36438   0.00000  Uiso   1.00
O375   O     0.31150   0.73468   0.46279   0.00000  Uiso   1.00
H376   H     0.27998   0.73428   0.44589   0.00000  Uiso   1.00
O377   O     0.04553   0.88153   0.03240   0.00000  Uiso   1.00
H378   H     0.06579   0.89826   0.05582   0.00000  Uiso   1.00
C379   C     0.51499   0.93328   0.25134   0.00000  Uiso   1.00
C380   C     0.48497   0.73339   0.24874   0.00000  Uiso   1.00
C381   C     0.44078   0.79114   0.03785   0.00000  Uiso   1.00
C382   C     0.58037   0.85560   0.45509   0.00000  Uiso   1.00
C383   C     0.39911   0.77079   0.01196   0.00000  Uiso   1.00
C384   C     0.62489   0.86501   0.48014   0.00000  Uiso   1.00
C385   C     0.52324   0.98938   0.25202   0.00000  Uiso   1.00
C386   C     0.47666   0.67729   0.24818   0.00000  Uiso   1.00
C387   C     0.46138   0.82827   0.33310   0.00000  Uiso   1.00
C388   C     0.53883   0.83782   0.16657   0.00000  Uiso   1.00
C389   C     0.43796   0.81968   0.38099   0.00000  Uiso   1.00
C390   C     0.56370   0.84355   0.11790   0.00000  Uiso   1.00
C391   C     0.36754   0.76811   0.44317   0.00000  Uiso   1.00
C392   C     0.64955   0.86307   0.05163   0.00000  Uiso   1.00
C393   C     0.38229   0.78216   0.39851   0.00000  Uiso   1.00
C394   C     0.62754   0.84825   0.09650   0.00000  Uiso   1.00
C395   C     0.47778   0.84351   0.40848   0.00000  Uiso   1.00
C396   C     0.52320   0.84812   0.09226   0.00000  Uiso   1.00
C397   C     0.46954   0.82210   0.44999   0.00000  Uiso   1.00
C398   C     0.54196   0.84325   0.04611   0.00000  Uiso   1.00
C399   C     0.41194   0.78673   0.46828   0.00000  Uiso   1.00
C400   C     0.60610   0.85754   0.02574   0.00000  Uiso   1.00
C401   C     0.51598   0.83601   0.47473   0.00000  Uiso   1.00
C402   C     0.49840   0.82534   0.02022   0.00000  Uiso   1.00
Cu403  Cu    0.44071   0.82775   0.24517   0.00000  Uiso   1.00
Cu404  Cu    0.55929   0.83892   0.25484   0.00000  Uiso   1.00
H405   H     0.35591   0.74356   0.02686   0.00000  Uiso   1.00
H406   H     0.34072   0.87704   0.46349   0.00000  Uiso   1.00
H407   H     0.42939   0.77732   0.07120   0.00000  Uiso   1.00
H408   H     0.59808   0.85916   0.41987   0.00000  Uiso   1.00
H409   H     0.56803   0.67996   0.25565   0.00000  Uiso   1.00
H410   H     0.43186   0.98671   0.24457   0.00000  Uiso   1.00
H411   H     0.33457   0.87251   0.28419   0.00000  Uiso   1.00
H412   H     0.66527   0.79387   0.21605   0.00000  Uiso   1.00
N413   N     0.64839   0.84735   0.26212   0.00000  Uiso   1.00
N414   N     0.35161   0.81932   0.23788   0.00000  Uiso   1.00
O415   O     0.46148   0.90476   0.24686   0.00000  Uiso   1.00
O416   O     0.53852   0.76191   0.25314   0.00000  Uiso   1.00
O417   O     0.56163   0.91420   0.25503   0.00000  Uiso   1.00
O418   O     0.43837   0.75247   0.24498   0.00000  Uiso   1.00
O419   O     0.42185   0.82597   0.30855   0.00000  Uiso   1.00
O420   O     0.57815   0.84070   0.19146   0.00000  Uiso   1.00
O421   O     0.52199   0.83540   0.31671   0.00000  Uiso   1.00
O422   O     0.47801   0.83126   0.18329   0.00000  Uiso   1.00
O423   O     0.47107   0.86722   0.11199   0.00000  Uiso   1.00
H424   H     0.46674   0.89213   0.09133   0.00000  Uiso   1.00
O425   O     0.52259   0.88946   0.39641   0.00000  Uiso   1.00
H426   H     0.51100   0.90788   0.37430   0.00000  Uiso   1.00
Cl427  Cl    0.34447   0.83038   0.12386   0.00000  Uiso   1.00
Cl428  Cl    0.66658   0.74923   0.36438   0.00000  Uiso   1.00
O429   O     0.64483   0.73468   0.46279   0.00000  Uiso   1.00
H430   H     0.61331   0.73428   0.44589   0.00000  Uiso   1.00
O431   O     0.37886   0.88153   0.03240   0.00000  Uiso   1.00
H432   H     0.39913   0.89826   0.05582   0.00000  Uiso   1.00
C433   C     0.84832   0.93328   0.25134   0.00000  Uiso   1.00
C434   C     0.81830   0.73339   0.24874   0.00000  Uiso   1.00
C435   C     0.77412   0.79114   0.03785   0.00000  Uiso   1.00
C436   C     0.91371   0.85560   0.45509   0.00000  Uiso   1.00
C437   C     0.73244   0.77079   0.01196   0.00000  Uiso   1.00
C438   C     0.95823   0.86501   0.48014   0.00000  Uiso   1.00
C439   C     0.85657   0.98938   0.25202   0.00000  Uiso   1.00
C440   C     0.81000   0.67729   0.24818   0.00000  Uiso   1.00
C441   C     0.79472   0.82827   0.33310   0.00000  Uiso   1.00
C442   C     0.87217   0.83782   0.16657   0.00000  Uiso   1.00
C443   C     0.77129   0.81968   0.38099   0.00000  Uiso   1.00
C444   C     0.89704   0.84355   0.11790   0.00000  Uiso   1.00
C445   C     0.70087   0.76811   0.44317   0.00000  Uiso   1.00
C446   C     0.98289   0.86307   0.05163   0.00000  Uiso   1.00
C447   C     0.71562   0.78216   0.39851   0.00000  Uiso   1.00
C448   C     0.96088   0.84825   0.09650   0.00000  Uiso   1.00
C449   C     0.81112   0.84351   0.40848   0.00000  Uiso   1.00
C450   C     0.85653   0.84812   0.09226   0.00000  Uiso   1.00
C451   C     0.80288   0.82210   0.44999   0.00000  Uiso   1.00
C452   C     0.87530   0.84325   0.04611   0.00000  Uiso   1.00
C453   C     0.74528   0.78673   0.46828   0.00000  Uiso   1.00
C454   C     0.93943   0.85754   0.02574   0.00000  Uiso   1.00
C455   C     0.84932   0.83601   0.47473   0.00000  Uiso   1.00
C456   C     0.83174   0.82534   0.02022   0.00000  Uiso   1.00
Cu457  Cu    0.77404   0.82775   0.24517   0.00000  Uiso   1.00
Cu458  Cu    0.89263   0.83892   0.25484   0.00000  Uiso   1.00
H459   H     0.68924   0.74356   0.02686   0.00000  Uiso   1.00
H460   H     0.67406   0.87704   0.46349   0.00000  Uiso   1.00
H461   H     0.76273   0.77732   0.07120   0.00000  Uiso   1.00
H462   H     0.93141   0.85916   0.41987   0.00000  Uiso   1.00
H463   H     0.90137   0.67996   0.25565   0.00000  Uiso   1.00
H464   H     0.76520   0.98671   0.24457   0.00000  Uiso   1.00
H465   H     0.66790   0.87251   0.28419   0.00000  Uiso   1.00
H466   H     0.99861   0.79387   0.21605   0.00000  Uiso   1.00
N467   N     0.98173   0.84735   0.26212   0.00000  Uiso   1.00
N468   N     0.68494   0.81932   0.23788   0.00000  Uiso   1.00
O469   O     0.79482   0.90476   0.24686   0.00000  Uiso   1.00
O470   O     0.87185   0.76191   0.25314   0.00000  Uiso   1.00
O471   O     0.89496   0.91420   0.25503   0.00000  Uiso   1.00
O472   O     0.77171   0.75247   0.24498   0.00000  Uiso   1.00
O473   O     0.75518   0.82597   0.30855   0.00000  Uiso   1.00
O474   O     0.91149   0.84070   0.19146   0.00000  Uiso   1.00
O475   O     0.85532   0.83540   0.31671   0.00000  Uiso   1.00
O476   O     0.81134   0.83126   0.18329   0.00000  Uiso   1.00
O477   O     0.80440   0.86722   0.11199   0.00000  Uiso   1.00
H478   H     0.80007   0.89213   0.09133   0.00000  Uiso   1.00
O479   O     0.85593   0.88946   0.39641   0.00000  Uiso   1.00
H480   H     0.84433   0.90788   0.37430   0.00000  Uiso   1.00
Cl481  Cl    0.67781   0.83038   0.12386   0.00000  Uiso   1.00
Cl482  Cl    0.99991   0.74923   0.36438   0.00000  Uiso   1.00
O483   O     0.97816   0.73468   0.46279   0.00000  Uiso   1.00
H484   H     0.94664   0.73428   0.44589   0.00000  Uiso   1.00
O485   O     0.71220   0.88153   0.03240   0.00000  Uiso   1.00
H486   H     0.73246   0.89826   0.05582   0.00000  Uiso   1.00
C487   C     0.18166   0.26661   0.75134   0.00000  Uiso   1.00
C488   C     0.15164   0.06672   0.74874   0.00000  Uiso   1.00
C489   C     0.10745   0.12447   0.53785   0.00000  Uiso   1.00
C490   C     0.24704   0.18893   0.95509   0.00000  Uiso   1.00
C491   C     0.06577   0.10412   0.51196   0.00000  Uiso   1.00
C492   C     0.29156   0.19834   0.98014   0.00000  Uiso   1.00
C493   C     0.18991   0.32271   0.75202   0.00000  Uiso   1.00
C494   C     0.14333   0.01062   0.74818   0.00000  Uiso   1.00
C495   C     0.12805   0.16161   0.83310   0.00000  Uiso   1.00
C496   C     0.20550   0.17115   0.66657   0.00000  Uiso   1.00
C497   C     0.10462   0.15302   0.88099   0.00000  Uiso   1.00
C498   C     0.23037   0.17689   0.61790   0.00000  Uiso   1.00
C499   C     0.03420   0.10145   0.94317   0.00000  Uiso   1.00
C500   C     0.31622   0.19640   0.55163   0.00000  Uiso   1.00
C501   C     0.04896   0.11549   0.89851   0.00000  Uiso   1.00
C502   C     0.29421   0.18158   0.59650   0.00000  Uiso   1.00
C503   C     0.14445   0.17685   0.90848   0.00000  Uiso   1.00
C504   C     0.18986   0.18146   0.59226   0.00000  Uiso   1.00
C505   C     0.13621   0.15543   0.94999   0.00000  Uiso   1.00
C506   C     0.20863   0.17659   0.54611   0.00000  Uiso   1.00
C507   C     0.07861   0.12006   0.96828   0.00000  Uiso   1.00
C508   C     0.27277   0.19088   0.52574   0.00000  Uiso   1.00
C509   C     0.18265   0.16935   0.97473   0.00000  Uiso   1.00
C510   C     0.16507   0.15868   0.52022   0.00000  Uiso   1.00
Cu511  Cu    0.10737   0.16108   0.74517   0.00000  Uiso   1.00
Cu512  Cu    0.22596   0.17225   0.75484   0.00000  Uiso   1.00
H513   H     0.02257   0.07689   0.52686   0.00000  Uiso   1.00
H514   H     0.00739   0.21037   0.96349   0.00000  Uiso   1.00
H515   H     0.09606   0.11065   0.57120   0.00000  Uiso   1.00
H516   H     0.26475   0.19249   0.91987   0.00000  Uiso   1.00
H517   H     0.23470   0.01330   0.75565   0.00000  Uiso   1.00
H518   H     0.09853   0.32004   0.74457   0.00000  Uiso   1.00
H519   H     0.00124   0.20584   0.78419   0.00000  Uiso   1.00
H520   H     0.33194   0.12721   0.71605   0.00000  Uiso   1.00
N521   N     0.31506   0.18068   0.76212   0.00000  Uiso   1.00
N522   N     0.01827   0.15265   0.73788   0.00000  Uiso   1.00
O523   O     0.12815   0.23809   0.74686   0.00000  Uiso   1.00
O524   O     0.20518   0.09524   0.75314   0.00000  Uiso   1.00
O525   O     0.22829   0.24753   0.75503   0.00000  Uiso   1.00
O526   O     0.10504   0.08580   0.74498   0.00000  Uiso   1.00
O527   O     0.08851   0.15930   0.80855   0.00000  Uiso   1.00
O528   O     0.24482   0.17403   0.69146   0.00000  Uiso   1.00
O529   O     0.18866   0.16874   0.81671   0.00000  Uiso   1.00
O530   O     0.14468   0.16460   0.68329   0.00000  Uiso   1.00
O531   O     0.13773   0.20055   0.61199   0.00000  Uiso   1.00
H532   H     0.13341   0.22547   0.59133   0.00000  Uiso   1.00
O533   O     0.18926   0.22279   0.89641   0.00000  Uiso   1.00
H534   H     0.17767   0.24121   0.87430   0.00000  Uiso   1.00
Cl535  Cl    0.01114   0.16372   0.62386   0.00000  Uiso   1.00
Cl536  Cl    0.33325   0.08256   0.86438   0.00000  Uiso   1.00
O537   O     0.31150   0.06802   0.96279   0.00000  Uiso   1.00
H538   H     0.27998   0.06761   0.94589   0.00000  Uiso   1.00
O539   O     0.04553   0.21487   0.53240   0.00000  Uiso   1.00
H540   H     0.06579   0.23159   0.55582   0.00000  Uiso   1.00
C541   C     0.51499   0.26661   0.75134   0.00000  Uiso   1.00
C542   C     0.48497   0.06672   0.74874   0.00000  Uiso   1.00
C543   C     0.44078   0.12447   0.53785   0.00000  Uiso   1.00
C544   C     0.58037   0.18893   0.95509   0.00000  Uiso   1.00
C545   C     0.39911   0.10412   0.51196   0.00000  Uiso   1.00
C546   C     0.62489   0.19834   0.98014   0.00000  Uiso   1.00
C547   C     0.52324   0.32271   0.75202   0.00000  Uiso   1.00
C548   C     0.47666   0.01062   0.74818   0.00000  Uiso   1.00
C549   C     0.46138   0.16161   0.83310   0.00000  Uiso   1.00
C550   C     0.53883   0.17115   0.66657   0.00000  Uiso   1.00
C551   C     0.43796   0.15302   0.88099   0.00000  Uiso   1.00
C552   C     0.56370   0.17689   0.61790   0.00000  Uiso   1.00
C553   C     0.36754   0.10145   0.94317   0.00000  Uiso   1.00
C554   C     0.64955   0.19640   0.55163   0.00000  Uiso   1.00
C555   C     0.38229   0.11549   0.89851   0.00000  Uiso   1.00
C556   C     0.62754   0.18158   0.59650   0.00000  Uiso   1.00
C557   C     0.47778   0.17685   0.90848   0.00000  Uiso   1.00
C558   C     0.52320   0.18146   0.59226   0.00000  Uiso   1.00
C559   C     0.46954   0.15543   0.94999   0.00000  Uiso   1.00
C560   C     0.54196   0.17659   0.54611   0.00000  Uiso   1.00
C561   C     0.41194   0.12006   0.96828   0.00000  Uiso   1.00
C562   C     0.60610   0.19088   0.52574   0.00000  Uiso   1.00
C563   C     0.51598   0.16935   0.97473   0.00000  Uiso   1.00
C564   C     0.49840   0.15868   0.52022   0.00000  Uiso   1.00
Cu565  Cu    0.44071   0.16108   0.74517   0.00000  Uiso   1.00
Cu566  Cu    0.55929   0.17225   0.75484   0.00000  Uiso   1.00
H567   H     0.35591   0.07689   0.52686   0.00000  Uiso   1.00
H568   H     0.34072   0.21037   0.96349   0.00000  Uiso   1.00
H569   H     0.42939   0.11065   0.57120   0.00000  Uiso   1.00
H570   H     0.59808   0.19249   0.91987   0.00000  Uiso   1.00
H571   H     0.56803   0.01330   0.75565   0.00000  Uiso   1.00
H572   H     0.43186   0.32004   0.74457   0.00000  Uiso   1.00
H573   H     0.33457   0.20584   0.78419   0.00000  Uiso   1.00
H574   H     0.66527   0.12721   0.71605   0.00000  Uiso   1.00
N575   N     0.64839   0.18068   0.76212   0.00000  Uiso   1.00
N576   N     0.35161   0.15265   0.73788   0.00000  Uiso   1.00
O577   O     0.46148   0.23809   0.74686   0.00000  Uiso   1.00
O578   O     0.53852   0.09524   0.75314   0.00000  Uiso   1.00
O579   O     0.56163   0.24753   0.75503   0.00000  Uiso   1.00
O580   O     0.43837   0.08580   0.74498   0.00000  Uiso   1.00
O581   O     0.42185   0.15930   0.80855   0.00000  Uiso   1.00
O582   O     0.57815   0.17403   0.69146   0.00000  Uiso   1.00
O583   O     0.52199   0.16874   0.81671   0.00000  Uiso   1.00
O584   O     0.47801   0.16460   0.68329   0.00000  Uiso   1.00
O585   O     0.47107   0.20055   0.61199   0.00000  Uiso   1.00
H586   H     0.46674   0.22547   0.59133   0.00000  Uiso   1.00
O587   O     0.52259   0.22279   0.89641   0.00000  Uiso   1.00
H588   H     0.51100   0.24121   0.87430   0.00000  Uiso   1.00
Cl589  Cl    0.34447   0.16372   0.62386   0.00000  Uiso   1.00
Cl590  Cl    0.66658   0.08256   0.86438   0.00000  Uiso   1.00
O591   O     0.64483   0.06802   0.96279   0.00000  Uiso   1.00
H592   H     0.61331   0.06761   0.94589   0.00000  Uiso   1.00
O593   O     0.37886   0.21487   0.53240   0.00000  Uiso   1.00
H594   H     0.39913   0.23159   0.55582   0.00000  Uiso   1.00
C595   C     0.84832   0.26661   0.75134   0.00000  Uiso   1.00
C596   C     0.81830   0.06672   0.74874   0.00000  Uiso   1.00
C597   C     0.77412   0.12447   0.53785   0.00000  Uiso   1.00
C598   C     0.91371   0.18893   0.95509   0.00000  Uiso   1.00
C599   C     0.73244   0.10412   0.51196   0.00000  Uiso   1.00
C600   C     0.95823   0.19834   0.98014   0.00000  Uiso   1.00
C601   C     0.85657   0.32271   0.75202   0.00000  Uiso   1.00
C602   C     0.81000   0.01062   0.74818   0.00000  Uiso   1.00
C603   C     0.79472   0.16161   0.83310   0.00000  Uiso   1.00
C604   C     0.87217   0.17115   0.66657   0.00000  Uiso   1.00
C605   C     0.77129   0.15302   0.88099   0.00000  Uiso   1.00
C606   C     0.89704   0.17689   0.61790   0.00000  Uiso   1.00
C607   C     0.70087   0.10145   0.94317   0.00000  Uiso   1.00
C608   C     0.98289   0.19640   0.55163   0.00000  Uiso   1.00
C609   C     0.71562   0.11549   0.89851   0.00000  Uiso   1.00
C610   C     0.96088   0.18158   0.59650   0.00000  Uiso   1.00
C611   C     0.81112   0.17685   0.90848   0.00000  Uiso   1.00
C612   C     0.85653   0.18146   0.59226   0.00000  Uiso   1.00
C613   C     0.80288   0.15543   0.94999   0.00000  Uiso   1.00
C614   C     0.87530   0.17659   0.54611   0.00000  Uiso   1.00
C615   C     0.74528   0.12006   0.96828   0.00000  Uiso   1.00
C616   C     0.93943   0.19088   0.52574   0.00000  Uiso   1.00
C617   C     0.84932   0.16935   0.97473   0.00000  Uiso   1.00
C618   C     0.83174   0.15868   0.52022   0.00000  Uiso   1.00
Cu619  Cu    0.77404   0.16108   0.74517   0.00000  Uiso   1.00
Cu620  Cu    0.89263   0.17225   0.75484   0.00000  Uiso   1.00
H621   H     0.68924   0.07689   0.52686   0.00000  Uiso   1.00
H622   H     0.67406   0.21037   0.96349   0.00000  Uiso   1.00
H623   H     0.76273   0.11065   0.57120   0.00000  Uiso   1.00
H624   H     0.93141   0.19249   0.91987   0.00000  Uiso   1.00
H625   H     0.90137   0.01330   0.75565   0.00000  Uiso   1.00
H626   H     0.76520   0.32004   0.74457   0.00000  Uiso   1.00
H627   H     0.66790   0.20584   0.78419   0.00000  Uiso   1.00
H628   H     0.99861   0.12721   0.71605   0.00000  Uiso   1.00
N629   N     0.98173   0.18068   0.76212   0.00000  Uiso   1.00
N630   N     0.68494   0.15265   0.73788   0.00000  Uiso   1.00
O631   O     0.79482   0.23809   0.74686   0.00000  Uiso   1.00
O632   O     0.87185   0.09524   0.75314   0.00000  Uiso   1.00
O633   O     0.89496   0.24753   0.75503   0.00000  Uiso   1.00
O634   O     0.77171   0.08580   0.74498   0.00000  Uiso   1.00
O635   O     0.75518   0.15930   0.80855   0.00000  Uiso   1.00
O636   O     0.91149   0.17403   0.69146   0.00000  Uiso   1.00
O637   O     0.85532   0.16874   0.81671   0.00000  Uiso   1.00
O638   O     0.81134   0.16460   0.68329   0.00000  Uiso   1.00
O639   O     0.80440   0.20055   0.61199   0.00000  Uiso   1.00
H640   H     0.80007   0.22547   0.59133   0.00000  Uiso   1.00
O641   O     0.85593   0.22279   0.89641   0.00000  Uiso   1.00
H642   H     0.84433   0.24121   0.87430   0.00000  Uiso   1.00
Cl643  Cl    0.67781   0.16372   0.62386   0.00000  Uiso   1.00
Cl644  Cl    0.99991   0.08256   0.86438   0.00000  Uiso   1.00
O645   O     0.97816   0.06802   0.96279   0.00000  Uiso   1.00
H646   H     0.94664   0.06761   0.94589   0.00000  Uiso   1.00
O647   O     0.71220   0.21487   0.53240   0.00000  Uiso   1.00
H648   H     0.73246   0.23159   0.55582   0.00000  Uiso   1.00
C649   C     0.18166   0.59994   0.75134   0.00000  Uiso   1.00
C650   C     0.15164   0.40006   0.74874   0.00000  Uiso   1.00
C651   C     0.10745   0.45781   0.53785   0.00000  Uiso   1.00
C652   C     0.24704   0.52226   0.95509   0.00000  Uiso   1.00
C653   C     0.06577   0.43746   0.51196   0.00000  Uiso   1.00
C654   C     0.29156   0.53168   0.98014   0.00000  Uiso   1.00
C655   C     0.18991   0.65604   0.75202   0.00000  Uiso   1.00
C656   C     0.14333   0.34396   0.74818   0.00000  Uiso   1.00
C657   C     0.12805   0.49494   0.83310   0.00000  Uiso   1.00
C658   C     0.20550   0.50449   0.66657   0.00000  Uiso   1.00
C659   C     0.10462   0.48635   0.88099   0.00000  Uiso   1.00
C660   C     0.23037   0.51022   0.61790   0.00000  Uiso   1.00
C661   C     0.03420   0.43478   0.94317   0.00000  Uiso   1.00
C662   C     0.31622   0.52973   0.55163   0.00000  Uiso   1.00
C663   C     0.04896   0.44883   0.89851   0.00000  Uiso   1.00
C664   C     0.29421   0.51491   0.59650   0.00000  Uiso   1.00
C665   C     0.14445   0.51018   0.90848   0.00000  Uiso   1.00
C666   C     0.18986   0.51479   0.59226   0.00000  Uiso   1.00
C667   C     0.13621   0.48876   0.94999   0.00000  Uiso   1.00
C668   C     0.20863   0.50992   0.54611   0.00000  Uiso   1.00
C669   C     0.07861   0.45340   0.96828   0.00000  Uiso   1.00
C670   C     0.27277   0.52421   0.52574   0.00000  Uiso   1.00
C671   C     0.18265   0.50268   0.97473   0.00000  Uiso   1.00
C672   C     0.16507   0.49201   0.52022   0.00000  Uiso   1.00
Cu673  Cu    0.10737   0.49441   0.74517   0.00000  Uiso   1.00
Cu674  Cu    0.22596   0.50559   0.75484   0.00000  Uiso   1.00
H675   H     0.02257   0.41022   0.52686   0.00000  Uiso   1.00
H676   H     0.00739   0.54371   0.96349   0.00000  Uiso   1.00
H677   H     0.09606   0.44398   0.57120   0.00000  Uiso   1.00
H678   H     0.26475   0.52583   0.91987   0.00000  Uiso   1.00
H679   H     0.23470   0.34663   0.75565   0.00000  Uiso   1.00
H680   H     0.09853   0.65337   0.74457   0.00000  Uiso   1.00
H681   H     0.00124   0.53917   0.78419   0.00000  Uiso   1.00
H682   H     0.33194   0.46054   0.71605   0.00000  Uiso   1.00
N683   N     0.31506   0.51401   0.76212   0.00000  Uiso   1.00
N684   N     0.01827   0.48599   0.73788   0.00000  Uiso   1.00
O685   O     0.12815   0.57142   0.74686   0.00000  Uiso   1.00
O686   O     0.20518   0.42858   0.75314   0.00000  Uiso   1.00
O687   O     0.22829   0.58086   0.75503   0.00000  Uiso   1.00
O688   O     0.10504   0.41914   0.74498   0.00000  Uiso   1.00
O689   O     0.08851   0.49263   0.80855   0.00000  Uiso   1.00
O690   O     0.24482   0.50737   0.69146   0.00000  Uiso   1.00
O691   O     0.18866   0.50207   0.81671   0.00000  Uiso   1.00
O692   O     0.14468   0.49793   0.68329   0.00000  Uiso   1.00
O693   O     0.13773   0.53388   0.61199   0.00000  Uiso   1.00
H694   H     0.13341   0.55880   0.59133   0.00000  Uiso   1.00
O695   O     0.18926   0.55613   0.89641   0.00000  Uiso   1.00
H696   H     0.17767   0.57454   0.87430   0.00000  Uiso   1.00
Cl697  Cl    0.01114   0.49705   0.62386   0.00000  Uiso   1.00
Cl698  Cl    0.33325   0.41589   0.86438   0.00000  Uiso   1.00
O699   O     0.31150   0.40135   0.96279   0.00000  Uiso   1.00
H700   H     0.27998   0.40095   0.94589   0.00000  Uiso   1.00
O701   O     0.04553   0.54820   0.53240   0.00000  Uiso   1.00
H702   H     0.06579   0.56492   0.55582   0.00000  Uiso   1.00
C703   C     0.51499   0.59994   0.75134   0.00000  Uiso   1.00
C704   C     0.48497   0.40006   0.74874   0.00000  Uiso   1.00
C705   C     0.44078   0.45781   0.53785   0.00000  Uiso   1.00
C706   C     0.58037   0.52226   0.95509   0.00000  Uiso   1.00
C707   C     0.39911   0.43746   0.51196   0.00000  Uiso   1.00
C708   C     0.62489   0.53168   0.98014   0.00000  Uiso   1.00
C709   C     0.52324   0.65604   0.75202   0.00000  Uiso   1.00
C710   C     0.47666   0.34396   0.74818   0.00000  Uiso   1.00
C711   C     0.46138   0.49494   0.83310   0.00000  Uiso   1.00
C712   C     0.53883   0.50449   0.66657   0.00000  Uiso   1.00
C713   C     0.43796   0.48635   0.88099   0.00000  Uiso   1.00
C714   C     0.56370   0.51022   0.61790   0.00000  Uiso   1.00
C715   C     0.36754   0.43478   0.94317   0.00000  Uiso   1.00
C716   C     0.64955   0.52973   0.55163   0.00000  Uiso   1.00
C717   C     0.38229   0.44883   0.89851   0.00000  Uiso   1.00
C718   C     0.62754   0.51491   0.59650   0.00000  Uiso   1.00
C719   C     0.47778   0.51018   0.90848   0.00000  Uiso   1.00
C720   C     0.52320   0.51479   0.59226   0.00000  Uiso   1.00
C721   C     0.46954   0.48876   0.94999   0.00000  Uiso   1.00
C722   C     0.54196   0.50992   0.54611   0.00000  Uiso   1.00
C723   C     0.41194   0.45340   0.96828   0.00000  Uiso   1.00
C724   C     0.60610   0.52421   0.52574   0.00000  Uiso   1.00
C725   C     0.51598   0.50268   0.97473   0.00000  Uiso   1.00
C726   C     0.49840   0.49201   0.52022   0.00000  Uiso   1.00
Cu727  Cu    0.44071   0.49441   0.74517   0.00000  Uiso   1.00
Cu728  Cu    0.55929   0.50559   0.75484   0.00000  Uiso   1.00
H729   H     0.35591   0.41022   0.52686   0.00000  Uiso   1.00
H730   H     0.34072   0.54371   0.96349   0.00000  Uiso   1.00
H731   H     0.42939   0.44398   0.57120   0.00000  Uiso   1.00
H732   H     0.59808   0.52583   0.91987   0.00000  Uiso   1.00
H733   H     0.56803   0.34663   0.75565   0.00000  Uiso   1.00
H734   H     0.43186   0.65337   0.74457   0.00000  Uiso   1.00
H735   H     0.33457   0.53917   0.78419   0.00000  Uiso   1.00
H736   H     0.66527   0.46054   0.71605   0.00000  Uiso   1.00
N737   N     0.64839   0.51401   0.76212   0.00000  Uiso   1.00
N738   N     0.35161   0.48599   0.73788   0.00000  Uiso   1.00
O739   O     0.46148   0.57142   0.74686   0.00000  Uiso   1.00
O740   O     0.53852   0.42858   0.75314   0.00000  Uiso   1.00
O741   O     0.56163   0.58086   0.75503   0.00000  Uiso   1.00
O742   O     0.43837   0.41914   0.74498   0.00000  Uiso   1.00
O743   O     0.42185   0.49263   0.80855   0.00000  Uiso   1.00
O744   O     0.57815   0.50737   0.69146   0.00000  Uiso   1.00
O745   O     0.52199   0.50207   0.81671   0.00000  Uiso   1.00
O746   O     0.47801   0.49793   0.68329   0.00000  Uiso   1.00
O747   O     0.47107   0.53388   0.61199   0.00000  Uiso   1.00
H748   H     0.46674   0.55880   0.59133   0.00000  Uiso   1.00
O749   O     0.52259   0.55613   0.89641   0.00000  Uiso   1.00
H750   H     0.51100   0.57454   0.87430   0.00000  Uiso   1.00
Cl751  Cl    0.34447   0.49705   0.62386   0.00000  Uiso   1.00
Cl752  Cl    0.66658   0.41589   0.86438   0.00000  Uiso   1.00
O753   O     0.64483   0.40135   0.96279   0.00000  Uiso   1.00
H754   H     0.61331   0.40095   0.94589   0.00000  Uiso   1.00
O755   O     0.37886   0.54820   0.53240   0.00000  Uiso   1.00
H756   H     0.39913   0.56492   0.55582   0.00000  Uiso   1.00
C757   C     0.84832   0.59994   0.75134   0.00000  Uiso   1.00
C758   C     0.81830   0.40006   0.74874   0.00000  Uiso   1.00
C759   C     0.77412   0.45781   0.53785   0.00000  Uiso   1.00
C760   C     0.91371   0.52226   0.95509   0.00000  Uiso   1.00
C761   C     0.73244   0.43746   0.51196   0.00000  Uiso   1.00
C762   C     0.95823   0.53168   0.98014   0.00000  Uiso   1.00
C763   C     0.85657   0.65604   0.75202   0.00000  Uiso   1.00
C764   C     0.81000   0.34396   0.74818   0.00000  Uiso   1.00
C765   C     0.79472   0.49494   0.83310   0.00000  Uiso   1.00
C766   C     0.87217   0.50449   0.66657   0.00000  Uiso   1.00
C767   C     0.77129   0.48635   0.88099   0.00000  Uiso   1.00
C768   C     0.89704   0.51022   0.61790   0.00000  Uiso   1.00
C769   C     0.70087   0.43478   0.94317   0.00000  Uiso   1.00
C770   C     0.98289   0.52973   0.55163   0.00000  Uiso   1.00
C771   C     0.71562   0.44883   0.89851   0.00000  Uiso   1.00
C772   C     0.96088   0.51491   0.59650   0.00000  Uiso   1.00
C773   C     0.81112   0.51018   0.90848   0.00000  Uiso   1.00
C774   C     0.85653   0.51479   0.59226   0.00000  Uiso   1.00
C775   C     0.80288   0.48876   0.94999   0.00000  Uiso   1.00
C776   C     0.87530   0.50992   0.54611   0.00000  Uiso   1.00
C777   C     0.74528   0.45340   0.96828   0.00000  Uiso   1.00
C778   C     0.93943   0.52421   0.52574   0.00000  Uiso   1.00
C779   C     0.84932   0.50268   0.97473   0.00000  Uiso   1.00
C780   C     0.83174   0.49201   0.52022   0.00000  Uiso   1.00
Cu781  Cu    0.77404   0.49441   0.74517   0.00000  Uiso   1.00
Cu782  Cu    0.89263   0.50559   0.75484   0.00000  Uiso   1.00
H783   H     0.68924   0.41022   0.52686   0.00000  Uiso   1.00
H784   H     0.67406   0.54371   0.96349   0.00000  Uiso   1.00
H785   H     0.76273   0.44398   0.57120   0.00000  Uiso   1.00
H786   H     0.93141   0.52583   0.91987   0.00000  Uiso   1.00
H787   H     0.90137   0.34663   0.75565   0.00000  Uiso   1.00
H788   H     0.76520   0.65337   0.74457   0.00000  Uiso   1.00
H789   H     0.66790   0.53917   0.78419   0.00000  Uiso   1.00
H790   H     0.99861   0.46054   0.71605   0.00000  Uiso   1.00
N791   N     0.98173   0.51401   0.76212   0.00000  Uiso   1.00
N792   N     0.68494   0.48599   0.73788   0.00000  Uiso   1.00
O793   O     0.79482   0.57142   0.74686   0.00000  Uiso   1.00
O794   O     0.87185   0.42858   0.75314   0.00000  Uiso   1.00
O795   O     0.89496   0.58086   0.75503   0.00000  Uiso   1.00
O796   O     0.77171   0.41914   0.74498   0.00000  Uiso   1.00
O797   O     0.75518   0.49263   0.80855   0.00000  Uiso   1.00
O798   O     0.91149   0.50737   0.69146   0.00000  Uiso   1.00
O799   O     0.85532   0.50207   0.81671   0.00000  Uiso   1.00
O800   O     0.81134   0.49793   0.68329   0.00000  Uiso   1.00
O801   O     0.80440   0.53388   0.61199   0.00000  Uiso   1.00
H802   H     0.80007   0.55880   0.59133   0.00000  Uiso   1.00
O803   O     0.85593   0.55613   0.89641   0.00000  Uiso   1.00
H804   H     0.84433   0.57454   0.87430   0.00000  Uiso   1.00
Cl805  Cl    0.67781   0.49705   0.62386   0.00000  Uiso   1.00
Cl806  Cl    0.99991   0.41589   0.86438   0.00000  Uiso   1.00
O807   O     0.97816   0.40135   0.96279   0.00000  Uiso   1.00
H808   H     0.94664   0.40095   0.94589   0.00000  Uiso   1.00
O809   O     0.71220   0.54820   0.53240   0.00000  Uiso   1.00
H810   H     0.73246   0.56492   0.55582   0.00000  Uiso   1.00
C811   C     0.18166   0.93328   0.75134   0.00000  Uiso   1.00
C812   C     0.15164   0.73339   0.74874   0.00000  Uiso   1.00
C813   C     0.10745   0.79114   0.53785   0.00000  Uiso   1.00
C814   C     0.24704   0.85560   0.95509   0.00000  Uiso   1.00
C815   C     0.06577   0.77079   0.51196   0.00000  Uiso   1.00
C816   C     0.29156   0.86501   0.98014   0.00000  Uiso   1.00
C817   C     0.18991   0.98938   0.75202   0.00000  Uiso   1.00
C818   C     0.14333   0.67729   0.74818   0.00000  Uiso   1.00
C819   C     0.12805   0.82827   0.83310   0.00000  Uiso   1.00
C820   C     0.20550   0.83782   0.66657   0.00000  Uiso   1.00
C821   C     0.10462   0.81968   0.88099   0.00000  Uiso   1.00
C822   C     0.23037   0.84355   0.61790   0.00000  Uiso   1.00
C823   C     0.03420   0.76811   0.94317   0.00000  Uiso   1.00
C824   C     0.31622   0.86307   0.55163   0.00000  Uiso   1.00
C825   C     0.04896   0.78216   0.89851   0.00000  Uiso   1.00
C826   C     0.29421   0.84825   0.59650   0.00000  Uiso   1.00
C827   C     0.14445   0.84351   0.90848   0.00000  Uiso   1.00
C828   C     0.18986   0.84812   0.59226   0.00000  Uiso   1.00
C829   C     0.13621   0.82210   0.94999   0.00000  Uiso   1.00
C830   C     0.20863   0.84325   0.54611   0.00000  Uiso   1.00
C831   C     0.07861   0.78673   0.96828   0.00000  Uiso   1.00
C832   C     0.27277   0.85754   0.52574   0.00000  Uiso   1.00
C833   C     0.18265   0.83601   0.97473   0.00000  Uiso   1.00
C834   C     0.16507   0.82534   0.52022   0.00000  Uiso   1.00
Cu835  Cu    0.10737   0.82775   0.74517   0.00000  Uiso   1.00
Cu836  Cu    0.22596   0.83892   0.75484   0.00000  Uiso   1.00
H837   H     0.02257   0.74356   0.52686   0.00000  Uiso   1.00
H838   H     0.00739   0.87704   0.96349   0.00000  Uiso   1.00
H839   H     0.09606   0.77732   0.57120   0.00000  Uiso   1.00
H840   H     0.26475   0.85916   0.91987   0.00000  Uiso   1.00
H841   H     0.23470   0.67996   0.75565   0.00000  Uiso   1.00
H842   H     0.09853   0.98671   0.74457   0.00000  Uiso   1.00
H843   H     0.00124   0.87251   0.78419   0.00000  Uiso   1.00
H844   H     0.33194   0.79387   0.71605   0.00000  Uiso   1.00
N845   N     0.31506   0.84735   0.76212   0.00000  Uiso   1.00
N846   N     0.01827   0.81932   0.73788   0.00000  Uiso   1.00
O847   O     0.12815   0.90476   0.74686   0.00000  Uiso   1.00
O848   O     0.20518   0.76191   0.75314   0.00000  Uiso   1.00
O849   O     0.22829   0.91420   0.75503   0.00000  Uiso   1.00
O850   O     0.10504   0.75247   0.74498   0.00000  Uiso   1.00
O851   O     0.08851   0.82597   0.80855   0.00000  Uiso   1.00
O852   O     0.24482   0.84070   0.69146   0.00000  Uiso   1.00
O853   O     0.18866   0.83540   0.81671   0.00000  Uiso   1.00
O854   O     0.14468   0.83126   0.68329   0.00000  Uiso   1.00
O855   O     0.13773   0.86722   0.61199   0.00000  Uiso   1.00
H856   H     0.13341   0.89213   0.59133   0.00000  Uiso   1.00
O857   O     0.18926   0.88946   0.89641   0.00000  Uiso   1.00
H858   H     0.17767   0.90788   0.87430   0.00000  Uiso   1.00
Cl859  Cl    0.01114   0.83038   0.62386   0.00000  Uiso   1.00
Cl860  Cl    0.33325   0.74923   0.86438   0.00000  Uiso   1.00
O861   O     0.31150   0.73468   0.96279   0.00000  Uiso   1.00
H862   H     0.27998   0.73428   0.94589   0.00000  Uiso   1.00
O863   O     0.04553   0.88153   0.53240   0.00000  Uiso   1.00
H864   H     0.06579   0.89826   0.55582   0.00000  Uiso   1.00
C865   C     0.51499   0.93328   0.75134   0.00000  Uiso   1.00
C866   C     0.48497   0.73339   0.74874   0.00000  Uiso   1.00
C867   C     0.44078   0.79114   0.53785   0.00000  Uiso   1.00
C868   C     0.58037   0.85560   0.95509   0.00000  Uiso   1.00
C869   C     0.39911   0.77079   0.51196   0.00000  Uiso   1.00
C870   C     0.62489   0.86501   0.98014   0.00000  Uiso   1.00
C871   C     0.52324   0.98938   0.75202   0.00000  Uiso   1.00
C872   C     0.47666   0.67729   0.74818   0.00000  Uiso   1.00
C873   C     0.46138   0.82827   0.83310   0.00000  Uiso   1.00
C874   C     0.53883   0.83782   0.66657   0.00000  Uiso   1.00
C875   C     0.43796   0.81968   0.88099   0.00000  Uiso   1.00
C876   C     0.56370   0.84355   0.61790   0.00000  Uiso   1.00
C877   C     0.36754   0.76811   0.94317   0.00000  Uiso   1.00
C878   C     0.64955   0.86307   0.55163   0.00000  Uiso   1.00
C879   C     0.38229   0.78216   0.89851   0.00000  Uiso   1.00
C880   C     0.62754   0.84825   0.59650   0.00000  Uiso   1.00
C881   C     0.47778   0.84351   0.90848   0.00000  Uiso   1.00
C882   C     0.52320   0.84812   0.59226   0.00000  Uiso   1.00
C883   C     0.46954   0.82210   0.94999   0.00000  Uiso   1.00
C884   C     0.54196   0.84325   0.54611   0.00000  Uiso   1.00
C885   C     0.41194   0.78673   0.96828   0.00000  Uiso   1.00
C886   C     0.60610   0.85754   0.52574   0.00000  Uiso   1.00
C887   C     0.51598   0.83601   0.97473   0.00000  Uiso   1.00
C888   C     0.49840   0.82534   0.52022   0.00000  Uiso   1.00
Cu889  Cu    0.44071   0.82775   0.74517   0.00000  Uiso   1.00
Cu890  Cu    0.55929   0.83892   0.75484   0.00000  Uiso   1.00
H891   H     0.35591   0.74356   0.52686   0.00000  Uiso   1.00
H892   H     0.34072   0.87704   0.96349   0.00000  Uiso   1.00
H893   H     0.42939   0.77732   0.57120   0.00000  Uiso   1.00
H894   H     0.59808   0.85916   0.91987   0.00000  Uiso   1.00
H895   H     0.56803   0.67996   0.75565   0.00000  Uiso   1.00
H896   H     0.43186   0.98671   0.74457   0.00000  Uiso   1.00
H897   H     0.33457   0.87251   0.78419   0.00000  Uiso   1.00
H898   H     0.66527   0.79387   0.71605   0.00000  Uiso   1.00
N899   N     0.64839   0.84735   0.76212   0.00000  Uiso   1.00
N900   N     0.35161   0.81932   0.73788   0.00000  Uiso   1.00
O901   O     0.46148   0.90476   0.74686   0.00000  Uiso   1.00
O902   O     0.53852   0.76191   0.75314   0.00000  Uiso   1.00
O903   O     0.56163   0.91420   0.75503   0.00000  Uiso   1.00
O904   O     0.43837   0.75247   0.74498   0.00000  Uiso   1.00
O905   O     0.42185   0.82597   0.80855   0.00000  Uiso   1.00
O906   O     0.57815   0.84070   0.69146   0.00000  Uiso   1.00
O907   O     0.52199   0.83540   0.81671   0.00000  Uiso   1.00
O908   O     0.47801   0.83126   0.68329   0.00000  Uiso   1.00
O909   O     0.47107   0.86722   0.61199   0.00000  Uiso   1.00
H910   H     0.46674   0.89213   0.59133   0.00000  Uiso   1.00
O911   O     0.52259   0.88946   0.89641   0.00000  Uiso   1.00
H912   H     0.51100   0.90788   0.87430   0.00000  Uiso   1.00
Cl913  Cl    0.34447   0.83038   0.62386   0.00000  Uiso   1.00
Cl914  Cl    0.66658   0.74923   0.86438   0.00000  Uiso   1.00
O915   O     0.64483   0.73468   0.96279   0.00000  Uiso   1.00
H916   H     0.61331   0.73428   0.94589   0.00000  Uiso   1.00
O917   O     0.37886   0.88153   0.53240   0.00000  Uiso   1.00
H918   H     0.39913   0.89826   0.55582   0.00000  Uiso   1.00
C919   C     0.84832   0.93328   0.75134   0.00000  Uiso   1.00
C920   C     0.81830   0.73339   0.74874   0.00000  Uiso   1.00
C921   C     0.77412   0.79114   0.53785   0.00000  Uiso   1.00
C922   C     0.91371   0.85560   0.95509   0.00000  Uiso   1.00
C923   C     0.73244   0.77079   0.51196   0.00000  Uiso   1.00
C924   C     0.95823   0.86501   0.98014   0.00000  Uiso   1.00
C925   C     0.85657   0.98938   0.75202   0.00000  Uiso   1.00
C926   C     0.81000   0.67729   0.74818   0.00000  Uiso   1.00
C927   C     0.79472   0.82827   0.83310   0.00000  Uiso   1.00
C928   C     0.87217   0.83782   0.66657   0.00000  Uiso   1.00
C929   C     0.77129   0.81968   0.88099   0.00000  Uiso   1.00
C930   C     0.89704   0.84355   0.61790   0.00000  Uiso   1.00
C931   C     0.70087   0.76811   0.94317   0.00000  Uiso   1.00
C932   C     0.98289   0.86307   0.55163   0.00000  Uiso   1.00
C933   C     0.71562   0.78216   0.89851   0.00000  Uiso   1.00
C934   C     0.96088   0.84825   0.59650   0.00000  Uiso   1.00
C935   C     0.81112   0.84351   0.90848   0.00000  Uiso   1.00
C936   C     0.85653   0.84812   0.59226   0.00000  Uiso   1.00
C937   C     0.80288   0.82210   0.94999   0.00000  Uiso   1.00
C938   C     0.87530   0.84325   0.54611   0.00000  Uiso   1.00
C939   C     0.74528   0.78673   0.96828   0.00000  Uiso   1.00
C940   C     0.93943   0.85754   0.52574   0.00000  Uiso   1.00
C941   C     0.84932   0.83601   0.97473   0.00000  Uiso   1.00
C942   C     0.83174   0.82534   0.52022   0.00000  Uiso   1.00
Cu943  Cu    0.77404   0.82775   0.74517   0.00000  Uiso   1.00
Cu944  Cu    0.89263   0.83892   0.75484   0.00000  Uiso   1.00
H945   H     0.68924   0.74356   0.52686   0.00000  Uiso   1.00
H946   H     0.67406   0.87704   0.96349   0.00000  Uiso   1.00
H947   H     0.76273   0.77732   0.57120   0.00000  Uiso   1.00
H948   H     0.93141   0.85916   0.91987   0.00000  Uiso   1.00
H949   H     0.90137   0.67996   0.75565   0.00000  Uiso   1.00
H950   H     0.76520   0.98671   0.74457   0.00000  Uiso   1.00
H951   H     0.66790   0.87251   0.78419   0.00000  Uiso   1.00
H952   H     0.99861   0.79387   0.71605   0.00000  Uiso   1.00
N953   N     0.98173   0.84735   0.76212   0.00000  Uiso   1.00
N954   N     0.68494   0.81932   0.73788   0.00000  Uiso   1.00
O955   O     0.79482   0.90476   0.74686   0.00000  Uiso   1.00
O956   O     0.87185   0.76191   0.75314   0.00000  Uiso   1.00
O957   O     0.89496   0.91420   0.75503   0.00000  Uiso   1.00
O958   O     0.77171   0.75247   0.74498   0.00000  Uiso   1.00
O959   O     0.75518   0.82597   0.80855   0.00000  Uiso   1.00
O960   O     0.91149   0.84070   0.69146   0.00000  Uiso   1.00
O961   O     0.85532   0.83540   0.81671   0.00000  Uiso   1.00
O962   O     0.81134   0.83126   0.68329   0.00000  Uiso   1.00
O963   O     0.80440   0.86722   0.61199   0.00000  Uiso   1.00
H964   H     0.80007   0.89213   0.59133   0.00000  Uiso   1.00
O965   O     0.85593   0.88946   0.89641   0.00000  Uiso   1.00
H966   H     0.84433   0.90788   0.87430   0.00000  Uiso   1.00
Cl967  Cl    0.67781   0.83038   0.62386   0.00000  Uiso   1.00
Cl968  Cl    0.99991   0.74923   0.86438   0.00000  Uiso   1.00
O969   O     0.97816   0.73468   0.96279   0.00000  Uiso   1.00
H970   H     0.94664   0.73428   0.94589   0.00000  Uiso   1.00
O971   O     0.71220   0.88153   0.53240   0.00000  Uiso   1.00
H972   H     0.73246   0.89826   0.55582   0.00000  Uiso   1.00
loop_
_geom_bond_atom_site_label_1
_geom_bond_atom_site_label_2
_geom_bond_distance
_geom_bond_site_symmetry_2
_ccdc_geom_bond_type
C1     O37     1.300   .     A
C1     O39     1.297   .     A
C1     C7      1.429   .     S
C2     O40     1.297   .     A
C2     O38     1.300   .     A
C2     C8      1.429   .     S
C3     C5      1.387   .     A
C3     C24     1.403   .     A
C3     H29     1.082   .     S
C4     C6      1.397   .     A
C4     C23     1.416   .     A
C4     H30     1.080   .     S
C5     H27     1.083   .     S
C5     C507    1.402   1_554 S
C6     C508    1.402   .     S
C6     H82     1.083   .     S
C7     C170    1.331   .     S
C7     H193    1.088   .     S
C8     C331    1.331   1_545 S
C8     H356    1.088   1_545 S
C9     O41     1.310   .     A
C9     C11     1.478   .     S
C9     O43     1.308   .     A
C10    O42     1.312   .     A
C10    O44     1.315   .     A
C10    C12     1.495   .     S
C11    C15     1.415   .     A
C11    C17     1.414   .     A
C12    C16     1.408   .     A
C12    C18     1.393   .     A
C13    C21     1.409   .     A
C13    C15     1.413   .     A
C13    O159    1.384   1_455 S
C14    C22     1.404   .     A
C14    C16     1.421   .     A
C14    O107    1.376   .     S
C15    Cl158   1.773   1_455 S
C16    Cl103   1.745   .     S
C17    C19     1.409   .     A
C17    O47     1.384   .     S
C18    O45     1.367   .     S
C18    C20     1.408   .     A
C19    C23     1.426   .     A
C19    C21     1.421   .     A
C20    C22     1.401   .     A
C20    C24     1.410   .     A
C21    C491    1.402   .     S
C22    C492    1.402   1_554 S
C23    C510    1.413   .     S
C24    C509    1.413   1_554 S
Cu25   O44     1.912   .     S
Cu25   O40     1.949   .     S
Cu25   N36     2.043   .     S
Cu25   O41     1.929   .     S
Cu25   O37     1.952   .     S
Cu25   Cu26    2.720   .     S
Cu26   O43     1.912   .     S
Cu26   O39     1.949   .     S
Cu26   N35     2.043   .     S
Cu26   O42     1.929   .     S
Cu26   O38     1.952   .     S
H28    C114    1.083   1_455 S
H31    C331    1.088   1_545 S
H32    C170    1.088   .     S
H33    N143    1.029   1_455 S
H34    N90     1.029   .     S
N35    H87     1.029   .     S
N35    N90     1.292   .     S
N36    H142    1.029   1_455 S
N36    N143    1.292   1_455 S
O45    H46     0.989   .     S
O47    H48     0.991   .     S
Cl49   C124    1.745   1_455 S
Cl50   C69     1.773   .     S
O51    H52     0.989   .     S
O51    C67     1.384   .     S
O53    H54     0.986   .     S
O53    C122    1.376   1_455 S
C55    O91     1.300   .     A
C55    O93     1.297   .     A
C55    C61     1.429   .     S
C56    O94     1.297   .     A
C56    O92     1.300   .     A
C56    C62     1.429   .     S
C57    C59     1.387   .     A
C57    C78     1.403   .     A
C57    H83     1.082   .     S
C58    C60     1.397   .     A
C58    C77     1.416   .     A
C58    H84     1.080   .     S
C59    H81     1.083   .     S
C59    C561    1.402   1_554 S
C60    C562    1.402   .     S
C60    H136    1.083   .     S
C61    C224    1.331   .     S
C61    H247    1.088   .     S
C62    C385    1.331   1_545 S
C62    H410    1.088   1_545 S
C63    O95     1.310   .     A
C63    C65     1.478   .     S
C63    O97     1.308   .     A
C64    O96     1.312   .     A
C64    O98     1.315   .     A
C64    C66     1.495   .     S
C65    C69     1.415   .     A
C65    C71     1.414   .     A
C66    C70     1.408   .     A
C66    C72     1.393   .     A
C67    C75     1.409   .     A
C67    C69     1.413   .     A
C68    C76     1.404   .     A
C68    C70     1.421   .     A
C68    O161    1.376   .     S
C70    Cl157   1.745   .     S
C71    C73     1.409   .     A
C71    O101    1.384   .     S
C72    O99     1.367   .     S
C72    C74     1.408   .     A
C73    C77     1.426   .     A
C73    C75     1.421   .     A
C74    C76     1.401   .     A
C74    C78     1.410   .     A
C75    C545    1.402   .     S
C76    C546    1.402   1_554 S
C77    C564    1.413   .     S
C78    C563    1.413   1_554 S
Cu79   O98     1.912   .     S
Cu79   O94     1.949   .     S
Cu79   N90     2.043   .     S
Cu79   O95     1.929   .     S
Cu79   O91     1.952   .     S
Cu79   Cu80    2.720   .     S
Cu80   O97     1.912   .     S
Cu80   O93     1.949   .     S
Cu80   N89     2.043   .     S
Cu80   O96     1.929   .     S
Cu80   O92     1.952   .     S
H85    C385    1.088   1_545 S
H86    C224    1.088   .     S
H88    N144    1.029   .     S
N89    H141    1.029   .     S
N89    N144    1.292   .     S
O99    H100    0.989   .     S
O101   H102    0.991   .     S
Cl104  C123    1.773   .     S
O105   H106    0.989   .     S
O105   C121    1.384   .     S
O107   H108    0.986   .     S
C109   O145    1.300   .     A
C109   O147    1.297   .     A
C109   C115    1.429   .     S
C110   O148    1.297   .     A
C110   O146    1.300   .     A
C110   C116    1.429   .     S
C111   C113    1.387   .     A
C111   C132    1.403   .     A
C111   H137    1.082   .     S
C112   C114    1.397   .     A
C112   C131    1.416   .     A
C112   H138    1.080   .     S
C113   H135    1.083   .     S
C113   C615    1.402   1_554 S
C114   C616    1.402   .     S
C114   H28     1.083   1_655 S
C115   C278    1.331   .     S
C115   H301    1.088   .     S
C116   C439    1.331   1_545 S
C116   H464    1.088   1_545 S
C117   O149    1.310   .     A
C117   C119    1.478   .     S
C117   O151    1.308   .     A
C118   O150    1.312   .     A
C118   O152    1.315   .     A
C118   C120    1.495   .     S
C119   C123    1.415   .     A
C119   C125    1.414   .     A
C120   C124    1.408   .     A
C120   C126    1.393   .     A
C121   C129    1.409   .     A
C121   C123    1.413   .     A
C122   C130    1.404   .     A
C122   C124    1.421   .     A
C122   O53     1.376   1_655 S
C124   Cl49    1.745   1_655 S
C125   C127    1.409   .     A
C125   O155    1.384   .     S
C126   O153    1.367   .     S
C126   C128    1.408   .     A
C127   C131    1.426   .     A
C127   C129    1.421   .     A
C128   C130    1.401   .     A
C128   C132    1.410   .     A
C129   C599    1.402   .     S
C130   C600    1.402   1_554 S
C131   C618    1.413   .     S
C132   C617    1.413   1_554 S
Cu133  O152    1.912   .     S
Cu133  O148    1.949   .     S
Cu133  N144    2.043   .     S
Cu133  O149    1.929   .     S
Cu133  O145    1.952   .     S
Cu133  Cu134   2.720   .     S
Cu134  O151    1.912   .     S
Cu134  O147    1.949   .     S
Cu134  N143    2.043   .     S
Cu134  O150    1.929   .     S
Cu134  O146    1.952   .     S
H139   C439    1.088   1_545 S
H140   C278    1.088   .     S
H142   N36     1.029   1_655 S
N143   H33     1.029   1_655 S
N143   N36     1.292   1_655 S
O153   H154    0.989   .     S
O155   H156    0.991   .     S
Cl158  C15     1.773   1_655 S
O159   H160    0.989   .     S
O159   C13     1.384   1_655 S
O161   H162    0.986   .     S
C163   O199    1.300   .     A
C163   O201    1.297   .     A
C163   C169    1.429   .     S
C164   O202    1.297   .     A
C164   O200    1.300   .     A
C164   C170    1.429   .     S
C165   C167    1.387   .     A
C165   C186    1.403   .     A
C165   H191    1.082   .     S
C166   C168    1.397   .     A
C166   C185    1.416   .     A
C166   H192    1.080   .     S
C167   H189    1.083   .     S
C167   C669    1.402   1_554 S
C168   C670    1.402   .     S
C168   H244    1.083   .     S
C169   C332    1.331   .     S
C169   H355    1.088   .     S
C171   O203    1.310   .     A
C171   C173    1.478   .     S
C171   O205    1.308   .     A
C172   O204    1.312   .     A
C172   O206    1.315   .     A
C172   C174    1.495   .     S
C173   C177    1.415   .     A
C173   C179    1.414   .     A
C174   C178    1.408   .     A
C174   C180    1.393   .     A
C175   C183    1.409   .     A
C175   C177    1.413   .     A
C175   O321    1.384   1_455 S
C176   C184    1.404   .     A
C176   C178    1.421   .     A
C176   O269    1.376   .     S
C177   Cl320   1.773   1_455 S
C178   Cl265   1.745   .     S
C179   C181    1.409   .     A
C179   O209    1.384   .     S
C180   O207    1.367   .     S
C180   C182    1.408   .     A
C181   C185    1.426   .     A
C181   C183    1.421   .     A
C182   C184    1.401   .     A
C182   C186    1.410   .     A
C183   C653    1.402   .     S
C184   C654    1.402   1_554 S
C185   C672    1.413   .     S
C186   C671    1.413   1_554 S
Cu187  O206    1.912   .     S
Cu187  O202    1.949   .     S
Cu187  N198    2.043   .     S
Cu187  O203    1.929   .     S
Cu187  O199    1.952   .     S
Cu187  Cu188   2.720   .     S
Cu188  O205    1.912   .     S
Cu188  O201    1.949   .     S
Cu188  N197    2.043   .     S
Cu188  O204    1.929   .     S
Cu188  O200    1.952   .     S
H190   C276    1.083   1_455 S
H194   C332    1.088   .     S
H195   N305    1.029   1_455 S
H196   N252    1.029   .     S
N197   H249    1.029   .     S
N197   N252    1.292   .     S
N198   H304    1.029   1_455 S
N198   N305    1.292   1_455 S
O207   H208    0.989   .     S
O209   H210    0.991   .     S
Cl211  C286    1.745   1_455 S
Cl212  C231    1.773   .     S
O213   H214    0.989   .     S
O213   C229    1.384   .     S
O215   H216    0.986   .     S
O215   C284    1.376   1_455 S
C217   O253    1.300   .     A
C217   O255    1.297   .     A
C217   C223    1.429   .     S
C218   O256    1.297   .     A
C218   O254    1.300   .     A
C218   C224    1.429   .     S
C219   C221    1.387   .     A
C219   C240    1.403   .     A
C219   H245    1.082   .     S
C220   C222    1.397   .     A
C220   C239    1.416   .     A
C220   H246    1.080   .     S
C221   H243    1.083   .     S
C221   C723    1.402   1_554 S
C222   C724    1.402   .     S
C222   H298    1.083   .     S
C223   C386    1.331   .     S
C223   H409    1.088   .     S
C225   O257    1.310   .     A
C225   C227    1.478   .     S
C225   O259    1.308   .     A
C226   O258    1.312   .     A
C226   O260    1.315   .     A
C226   C228    1.495   .     S
C227   C231    1.415   .     A
C227   C233    1.414   .     A
C228   C232    1.408   .     A
C228   C234    1.393   .     A
C229   C237    1.409   .     A
C229   C231    1.413   .     A
C230   C238    1.404   .     A
C230   C232    1.421   .     A
C230   O323    1.376   .     S
C232   Cl319   1.745   .     S
C233   C235    1.409   .     A
C233   O263    1.384   .     S
C234   O261    1.367   .     S
C234   C236    1.408   .     A
C235   C239    1.426   .     A
C235   C237    1.421   .     A
C236   C238    1.401   .     A
C236   C240    1.410   .     A
C237   C707    1.402   .     S
C238   C708    1.402   1_554 S
C239   C726    1.413   .     S
C240   C725    1.413   1_554 S
Cu241  O260    1.912   .     S
Cu241  O256    1.949   .     S
Cu241  N252    2.043   .     S
Cu241  O257    1.929   .     S
Cu241  O253    1.952   .     S
Cu241  Cu242   2.720   .     S
Cu242  O259    1.912   .     S
Cu242  O255    1.949   .     S
Cu242  N251    2.043   .     S
Cu242  O258    1.929   .     S
Cu242  O254    1.952   .     S
H248   C386    1.088   .     S
H250   N306    1.029   .     S
N251   H303    1.029   .     S
N251   N306    1.292   .     S
O261   H262    0.989   .     S
O263   H264    0.991   .     S
Cl266  C285    1.773   .     S
O267   H268    0.989   .     S
O267   C283    1.384   .     S
O269   H270    0.986   .     S
C271   O307    1.300   .     A
C271   O309    1.297   .     A
C271   C277    1.429   .     S
C272   O310    1.297   .     A
C272   O308    1.300   .     A
C272   C278    1.429   .     S
C273   C275    1.387   .     A
C273   C294    1.403   .     A
C273   H299    1.082   .     S
C274   C276    1.397   .     A
C274   C293    1.416   .     A
C274   H300    1.080   .     S
C275   H297    1.083   .     S
C275   C777    1.402   1_554 S
C276   C778    1.402   .     S
C276   H190    1.083   1_655 S
C277   C440    1.331   .     S
C277   H463    1.088   .     S
C279   O311    1.310   .     A
C279   C281    1.478   .     S
C279   O313    1.308   .     A
C280   O312    1.312   .     A
C280   O314    1.315   .     A
C280   C282    1.495   .     S
C281   C285    1.415   .     A
C281   C287    1.414   .     A
C282   C286    1.408   .     A
C282   C288    1.393   .     A
C283   C291    1.409   .     A
C283   C285    1.413   .     A
C284   C292    1.404   .     A
C284   C286    1.421   .     A
C284   O215    1.376   1_655 S
C286   Cl211   1.745   1_655 S
C287   C289    1.409   .     A
C287   O317    1.384   .     S
C288   O315    1.367   .     S
C288   C290    1.408   .     A
C289   C293    1.426   .     A
C289   C291    1.421   .     A
C290   C292    1.401   .     A
C290   C294    1.410   .     A
C291   C761    1.402   .     S
C292   C762    1.402   1_554 S
C293   C780    1.413   .     S
C294   C779    1.413   1_554 S
Cu295  O314    1.912   .     S
Cu295  O310    1.949   .     S
Cu295  N306    2.043   .     S
Cu295  O311    1.929   .     S
Cu295  O307    1.952   .     S
Cu295  Cu296   2.720   .     S
Cu296  O313    1.912   .     S
Cu296  O309    1.949   .     S
Cu296  N305    2.043   .     S
Cu296  O312    1.929   .     S
Cu296  O308    1.952   .     S
H302   C440    1.088   .     S
H304   N198    1.029   1_655 S
N305   H195    1.029   1_655 S
N305   N198    1.292   1_655 S
O315   H316    0.989   .     S
O317   H318    0.991   .     S
Cl320  C177    1.773   1_655 S
O321   H322    0.989   .     S
O321   C175    1.384   1_655 S
O323   H324    0.986   .     S
C325   O361    1.300   .     A
C325   O363    1.297   .     A
C325   C331    1.429   .     S
C326   O364    1.297   .     A
C326   O362    1.300   .     A
C326   C332    1.429   .     S
C327   C329    1.387   .     A
C327   C348    1.403   .     A
C327   H353    1.082   .     S
C328   C330    1.397   .     A
C328   C347    1.416   .     A
C328   H354    1.080   .     S
C329   H351    1.083   .     S
C329   C831    1.402   1_554 S
C330   C832    1.402   .     S
C330   H406    1.083   .     S
C331   C8      1.331   1_565 S
C331   H31     1.088   1_565 S
C333   O365    1.310   .     A
C333   C335    1.478   .     S
C333   O367    1.308   .     A
C334   O366    1.312   .     A
C334   O368    1.315   .     A
C334   C336    1.495   .     S
C335   C339    1.415   .     A
C335   C341    1.414   .     A
C336   C340    1.408   .     A
C336   C342    1.393   .     A
C337   C345    1.409   .     A
C337   C339    1.413   .     A
C337   O483    1.384   1_455 S
C338   C346    1.404   .     A
C338   C340    1.421   .     A
C338   O431    1.376   .     S
C339   Cl482   1.773   1_455 S
C340   Cl427   1.745   .     S
C341   C343    1.409   .     A
C341   O371    1.384   .     S
C342   O369    1.367   .     S
C342   C344    1.408   .     A
C343   C347    1.426   .     A
C343   C345    1.421   .     A
C344   C346    1.401   .     A
C344   C348    1.410   .     A
C345   C815    1.402   .     S
C346   C816    1.402   1_554 S
C347   C834    1.413   .     S
C348   C833    1.413   1_554 S
Cu349  O368    1.912   .     S
Cu349  O364    1.949   .     S
Cu349  N360    2.043   .     S
Cu349  O365    1.929   .     S
Cu349  O361    1.952   .     S
Cu349  Cu350   2.720   .     S
Cu350  O367    1.912   .     S
Cu350  O363    1.949   .     S
Cu350  N359    2.043   .     S
Cu350  O366    1.929   .     S
Cu350  O362    1.952   .     S
H352   C438    1.083   1_455 S
H356   C8      1.088   1_565 S
H357   N467    1.029   1_455 S
H358   N414    1.029   .     S
N359   H411    1.029   .     S
N359   N414    1.292   .     S
N360   H466    1.029   1_455 S
N360   N467    1.292   1_455 S
O369   H370    0.989   .     S
O371   H372    0.991   .     S
Cl373  C448    1.745   1_455 S
Cl374  C393    1.773   .     S
O375   H376    0.989   .     S
O375   C391    1.384   .     S
O377   H378    0.986   .     S
O377   C446    1.376   1_455 S
C379   O415    1.300   .     A
C379   O417    1.297   .     A
C379   C385    1.429   .     S
C380   O418    1.297   .     A
C380   O416    1.300   .     A
C380   C386    1.429   .     S
C381   C383    1.387   .     A
C381   C402    1.403   .     A
C381   H407    1.082   .     S
C382   C384    1.397   .     A
C382   C401    1.416   .     A
C382   H408    1.080   .     S
C383   H405    1.083   .     S
C383   C885    1.402   1_554 S
C384   C886    1.402   .     S
C384   H460    1.083   .     S
C385   C62     1.331   1_565 S
C385   H85     1.088   1_565 S
C387   O419    1.310   .     A
C387   C389    1.478   .     S
C387   O421    1.308   .     A
C388   O420    1.312   .     A
C388   O422    1.315   .     A
C388   C390    1.495   .     S
C389   C393    1.415   .     A
C389   C395    1.414   .     A
C390   C394    1.408   .     A
C390   C396    1.393   .     A
C391   C399    1.409   .     A
C391   C393    1.413   .     A
C392   C400    1.404   .     A
C392   C394    1.421   .     A
C392   O485    1.376   .     S
C394   Cl481   1.745   .     S
C395   C397    1.409   .     A
C395   O425    1.384   .     S
C396   O423    1.367   .     S
C396   C398    1.408   .     A
C397   C401    1.426   .     A
C397   C399    1.421   .     A
C398   C400    1.401   .     A
C398   C402    1.410   .     A
C399   C869    1.402   .     S
C400   C870    1.402   1_554 S
C401   C888    1.413   .     S
C402   C887    1.413   1_554 S
Cu403  O422    1.912   .     S
Cu403  O418    1.949   .     S
Cu403  N414    2.043   .     S
Cu403  O419    1.929   .     S
Cu403  O415    1.952   .     S
Cu403  Cu404   2.720   .     S
Cu404  O421    1.912   .     S
Cu404  O417    1.949   .     S
Cu404  N413    2.043   .     S
Cu404  O420    1.929   .     S
Cu404  O416    1.952   .     S
H410   C62     1.088   1_565 S
H412   N468    1.029   .     S
N413   H465    1.029   .     S
N413   N468    1.292   .     S
O423   H424    0.989   .     S
O425   H426    0.991   .     S
Cl428  C447    1.773   .     S
O429   H430    0.989   .     S
O429   C445    1.384   .     S
O431   H432    0.986   .     S
C433   O469    1.300   .     A
C433   O471    1.297   .     A
C433   C439    1.429   .     S
C434   O472    1.297   .     A
C434   O470    1.300   .     A
C434   C440    1.429   .     S
C435   C437    1.387   .     A
C435   C456    1.403   .     A
C435   H461    1.082   .     S
C436   C438    1.397   .     A
C436   C455    1.416   .     A
C436   H462    1.080   .     S
C437   H459    1.083   .     S
C437   C939    1.402   1_554 S
C438   C940    1.402   .     S
C438   H352    1.083   1_655 S
C439   C116    1.331   1_565 S
C439   H139    1.088   1_565 S
C441   O473    1.310   .     A
C441   C443    1.478   .     S
C441   O475    1.308   .     A
C442   O474    1.312   .     A
C442   O476    1.315   .     A
C442   C444    1.495   .     S
C443   C447    1.415   .     A
C443   C449    1.414   .     A
C444   C448    1.408   .     A
C444   C450    1.393   .     A
C445   C453    1.409   .     A
C445   C447    1.413   .     A
C446   C454    1.404   .     A
C446   C448    1.421   .     A
C446   O377    1.376   1_655 S
C448   Cl373   1.745   1_655 S
C449   C451    1.409   .     A
C449   O479    1.384   .     S
C450   O477    1.367   .     S
C450   C452    1.408   .     A
C451   C455    1.426   .     A
C451   C453    1.421   .     A
C452   C454    1.401   .     A
C452   C456    1.410   .     A
C453   C923    1.402   .     S
C454   C924    1.402   1_554 S
C455   C942    1.413   .     S
C456   C941    1.413   1_554 S
Cu457  O476    1.912   .     S
Cu457  O472    1.949   .     S
Cu457  N468    2.043   .     S
Cu457  O473    1.929   .     S
Cu457  O469    1.952   .     S
Cu457  Cu458   2.720   .     S
Cu458  O475    1.912   .     S
Cu458  O471    1.949   .     S
Cu458  N467    2.043   .     S
Cu458  O474    1.929   .     S
Cu458  O470    1.952   .     S
H464   C116    1.088   1_565 S
H466   N360    1.029   1_655 S
N467   H357    1.029   1_655 S
N467   N360    1.292   1_655 S
O477   H478    0.989   .     S
O479   H480    0.991   .     S
Cl482  C339    1.773   1_655 S
O483   H484    0.989   .     S
O483   C337    1.384   1_655 S
O485   H486    0.986   .     S
C487   O523    1.300   .     A
C487   O525    1.297   .     A
C487   C493    1.429   .     S
C488   O526    1.297   .     A
C488   O524    1.300   .     A
C488   C494    1.429   .     S
C489   C491    1.387   .     A
C489   C510    1.403   .     A
C489   H515    1.082   .     S
C490   C492    1.397   .     A
C490   C509    1.416   .     A
C490   H516    1.080   .     S
C491   H513    1.083   .     S
C492   C22     1.402   1_556 S
C492   H568    1.083   .     S
C493   C656    1.331   .     S
C493   H679    1.088   .     S
C494   C817    1.331   1_545 S
C494   H842    1.088   1_545 S
C495   O527    1.310   .     A
C495   C497    1.478   .     S
C495   O529    1.308   .     A
C496   O528    1.312   .     A
C496   O530    1.315   .     A
C496   C498    1.495   .     S
C497   C501    1.415   .     A
C497   C503    1.414   .     A
C498   C502    1.408   .     A
C498   C504    1.393   .     A
C499   C507    1.409   .     A
C499   C501    1.413   .     A
C499   O645    1.384   1_455 S
C500   C508    1.404   .     A
C500   C502    1.421   .     A
C500   O593    1.376   .     S
C501   Cl644   1.773   1_455 S
C502   Cl589   1.745   .     S
C503   C505    1.409   .     A
C503   O533    1.384   .     S
C504   O531    1.367   .     S
C504   C506    1.408   .     A
C505   C509    1.426   .     A
C505   C507    1.421   .     A
C506   C508    1.401   .     A
C506   C510    1.410   .     A
C507   C5      1.402   1_556 S
C509   C24     1.413   1_556 S
Cu511  O530    1.912   .     S
Cu511  O526    1.949   .     S
Cu511  N522    2.043   .     S
Cu511  O527    1.929   .     S
Cu511  O523    1.952   .     S
Cu511  Cu512   2.720   .     S
Cu512  O529    1.912   .     S
Cu512  O525    1.949   .     S
Cu512  N521    2.043   .     S
Cu512  O528    1.929   .     S
Cu512  O524    1.952   .     S
H514   C600    1.083   1_455 S
H517   C817    1.088   1_545 S
H518   C656    1.088   .     S
H519   N629    1.029   1_455 S
H520   N576    1.029   .     S
N521   H573    1.029   .     S
N521   N576    1.292   .     S
N522   H628    1.029   1_455 S
N522   N629    1.292   1_455 S
O531   H532    0.989   .     S
O533   H534    0.991   .     S
Cl535  C610    1.745   1_455 S
Cl536  C555    1.773   .     S
O537   H538    0.989   .     S
O537   C553    1.384   .     S
O539   H540    0.986   .     S
O539   C608    1.376   1_455 S
C541   O577    1.300   .     A
C541   O579    1.297   .     A
C541   C547    1.429   .     S
C542   O580    1.297   .     A
C542   O578    1.300   .     A
C542   C548    1.429   .     S
C543   C545    1.387   .     A
C543   C564    1.403   .     A
C543   H569    1.082   .     S
C544   C546    1.397   .     A
C544   C563    1.416   .     A
C544   H570    1.080   .     S
C545   H567    1.083   .     S
C546   C76     1.402   1_556 S
C546   H622    1.083   .     S
C547   C710    1.331   .     S
C547   H733    1.088   .     S
C548   C871    1.331   1_545 S
C548   H896    1.088   1_545 S
C549   O581    1.310   .     A
C549   C551    1.478   .     S
C549   O583    1.308   .     A
C550   O582    1.312   .     A
C550   O584    1.315   .     A
C550   C552    1.495   .     S
C551   C555    1.415   .     A
C551   C557    1.414   .     A
C552   C556    1.408   .     A
C552   C558    1.393   .     A
C553   C561    1.409   .     A
C553   C555    1.413   .     A
C554   C562    1.404   .     A
C554   C556    1.421   .     A
C554   O647    1.376   .     S
C556   Cl643   1.745   .     S
C557   C559    1.409   .     A
C557   O587    1.384   .     S
C558   O585    1.367   .     S
C558   C560    1.408   .     A
C559   C563    1.426   .     A
C559   C561    1.421   .     A
C560   C562    1.401   .     A
C560   C564    1.410   .     A
C561   C59     1.402   1_556 S
C563   C78     1.413   1_556 S
Cu565  O584    1.912   .     S
Cu565  O580    1.949   .     S
Cu565  N576    2.043   .     S
Cu565  O581    1.929   .     S
Cu565  O577    1.952   .     S
Cu565  Cu566   2.720   .     S
Cu566  O583    1.912   .     S
Cu566  O579    1.949   .     S
Cu566  N575    2.043   .     S
Cu566  O582    1.929   .     S
Cu566  O578    1.952   .     S
H571   C871    1.088   1_545 S
H572   C710    1.088   .     S
H574   N630    1.029   .     S
N575   H627    1.029   .     S
N575   N630    1.292   .     S
O585   H586    0.989   .     S
O587   H588    0.991   .     S
Cl590  C609    1.773   .     S
O591   H592    0.989   .     S
O591   C607    1.384   .     S
O593   H594    0.986   .     S
C595   O631    1.300   .     A
C595   O633    1.297   .     A
C595   C601    1.429   .     S
C596   O634    1.297   .     A
C596   O632    1.300   .     A
C596   C602    1.429   .     S
C597   C599    1.387   .     A
C597   C618    1.403   .     A
C597   H623    1.082   .     S
C598   C600    1.397   .     A
C598   C617    1.416   .     A
C598   H624    1.080   .     S
C599   H621    1.083   .     S
C600   C130    1.402   1_556 S
C600   H514    1.083   1_655 S
C601   C764    1.331   .     S
C601   H787    1.088   .     S
C602   C925    1.331   1_545 S
C602   H950    1.088   1_545 S
C603   O635    1.310   .     A
C603   C605    1.478   .     S
C603   O637    1.308   .     A
C604   O636    1.312   .     A
C604   O638    1.315   .     A
C604   C606    1.495   .     S
C605   C609    1.415   .     A
C605   C611    1.414   .     A
C606   C610    1.408   .     A
C606   C612    1.393   .     A
C607   C615    1.409   .     A
C607   C609    1.413   .     A
C608   C616    1.404   .     A
C608   C610    1.421   .     A
C608   O539    1.376   1_655 S
C610   Cl535   1.745   1_655 S
C611   C613    1.409   .     A
C611   O641    1.384   .     S
C612   O639    1.367   .     S
C612   C614    1.408   .     A
C613   C617    1.426   .     A
C613   C615    1.421   .     A
C614   C616    1.401   .     A
C614   C618    1.410   .     A
C615   C113    1.402   1_556 S
C617   C132    1.413   1_556 S
Cu619  O638    1.912   .     S
Cu619  O634    1.949   .     S
Cu619  N630    2.043   .     S
Cu619  O635    1.929   .     S
Cu619  O631    1.952   .     S
Cu619  Cu620   2.720   .     S
Cu620  O637    1.912   .     S
Cu620  O633    1.949   .     S
Cu620  N629    2.043   .     S
Cu620  O636    1.929   .     S
Cu620  O632    1.952   .     S
H625   C925    1.088   1_545 S
H626   C764    1.088   .     S
H628   N522    1.029   1_655 S
N629   H519    1.029   1_655 S
N629   N522    1.292   1_655 S
O639   H640    0.989   .     S
O641   H642    0.991   .     S
Cl644  C501    1.773   1_655 S
O645   H646    0.989   .     S
O645   C499    1.384   1_655 S
O647   H648    0.986   .     S
C649   O685    1.300   .     A
C649   O687    1.297   .     A
C649   C655    1.429   .     S
C650   O688    1.297   .     A
C650   O686    1.300   .     A
C650   C656    1.429   .     S
C651   C653    1.387   .     A
C651   C672    1.403   .     A
C651   H677    1.082   .     S
C652   C654    1.397   .     A
C652   C671    1.416   .     A
C652   H678    1.080   .     S
C653   H675    1.083   .     S
C654   C184    1.402   1_556 S
C654   H730    1.083   .     S
C655   C818    1.331   .     S
C655   H841    1.088   .     S
C657   O689    1.310   .     A
C657   C659    1.478   .     S
C657   O691    1.308   .     A
C658   O690    1.312   .     A
C658   O692    1.315   .     A
C658   C660    1.495   .     S
C659   C663    1.415   .     A
C659   C665    1.414   .     A
C660   C664    1.408   .     A
C660   C666    1.393   .     A
C661   C669    1.409   .     A
C661   C663    1.413   .     A
C661   O807    1.384   1_455 S
C662   C670    1.404   .     A
C662   C664    1.421   .     A
C662   O755    1.376   .     S
C663   Cl806   1.773   1_455 S
C664   Cl751   1.745   .     S
C665   C667    1.409   .     A
C665   O695    1.384   .     S
C666   O693    1.367   .     S
C666   C668    1.408   .     A
C667   C671    1.426   .     A
C667   C669    1.421   .     A
C668   C670    1.401   .     A
C668   C672    1.410   .     A
C669   C167    1.402   1_556 S
C671   C186    1.413   1_556 S
Cu673  O692    1.912   .     S
Cu673  O688    1.949   .     S
Cu673  N684    2.043   .     S
Cu673  O689    1.929   .     S
Cu673  O685    1.952   .     S
Cu673  Cu674   2.720   .     S
Cu674  O691    1.912   .     S
Cu674  O687    1.949   .     S
Cu674  N683    2.043   .     S
Cu674  O690    1.929   .     S
Cu674  O686    1.952   .     S
H676   C762    1.083   1_455 S
H680   C818    1.088   .     S
H681   N791    1.029   1_455 S
H682   N738    1.029   .     S
N683   H735    1.029   .     S
N683   N738    1.292   .     S
N684   H790    1.029   1_455 S
N684   N791    1.292   1_455 S
O693   H694    0.989   .     S
O695   H696    0.991   .     S
Cl697  C772    1.745   1_455 S
Cl698  C717    1.773   .     S
O699   H700    0.989   .     S
O699   C715    1.384   .     S
O701   H702    0.986   .     S
O701   C770    1.376   1_455 S
C703   O739    1.300   .     A
C703   O741    1.297   .     A
C703   C709    1.429   .     S
C704   O742    1.297   .     A
C704   O740    1.300   .     A
C704   C710    1.429   .     S
C705   C707    1.387   .     A
C705   C726    1.403   .     A
C705   H731    1.082   .     S
C706   C708    1.397   .     A
C706   C725    1.416   .     A
C706   H732    1.080   .     S
C707   H729    1.083   .     S
C708   C238    1.402   1_556 S
C708   H784    1.083   .     S
C709   C872    1.331   .     S
C709   H895    1.088   .     S
C711   O743    1.310   .     A
C711   C713    1.478   .     S
C711   O745    1.308   .     A
C712   O744    1.312   .     A
C712   O746    1.315   .     A
C712   C714    1.495   .     S
C713   C717    1.415   .     A
C713   C719    1.414   .     A
C714   C718    1.408   .     A
C714   C720    1.393   .     A
C715   C723    1.409   .     A
C715   C717    1.413   .     A
C716   C724    1.404   .     A
C716   C718    1.421   .     A
C716   O809    1.376   .     S
C718   Cl805   1.745   .     S
C719   C721    1.409   .     A
C719   O749    1.384   .     S
C720   O747    1.367   .     S
C720   C722    1.408   .     A
C721   C725    1.426   .     A
C721   C723    1.421   .     A
C722   C724    1.401   .     A
C722   C726    1.410   .     A
C723   C221    1.402   1_556 S
C725   C240    1.413   1_556 S
Cu727  O746    1.912   .     S
Cu727  O742    1.949   .     S
Cu727  N738    2.043   .     S
Cu727  O743    1.929   .     S
Cu727  O739    1.952   .     S
Cu727  Cu728   2.720   .     S
Cu728  O745    1.912   .     S
Cu728  O741    1.949   .     S
Cu728  N737    2.043   .     S
Cu728  O744    1.929   .     S
Cu728  O740    1.952   .     S
H734   C872    1.088   .     S
H736   N792    1.029   .     S
N737   H789    1.029   .     S
N737   N792    1.292   .     S
O747   H748    0.989   .     S
O749   H750    0.991   .     S
Cl752  C771    1.773   .     S
O753   H754    0.989   .     S
O753   C769    1.384   .     S
O755   H756    0.986   .     S
C757   O793    1.300   .     A
C757   O795    1.297   .     A
C757   C763    1.429   .     S
C758   O796    1.297   .     A
C758   O794    1.300   .     A
C758   C764    1.429   .     S
C759   C761    1.387   .     A
C759   C780    1.403   .     A
C759   H785    1.082   .     S
C760   C762    1.397   .     A
C760   C779    1.416   .     A
C760   H786    1.080   .     S
C761   H783    1.083   .     S
C762   C292    1.402   1_556 S
C762   H676    1.083   1_655 S
C763   C926    1.331   .     S
C763   H949    1.088   .     S
C765   O797    1.310   .     A
C765   C767    1.478   .     S
C765   O799    1.308   .     A
C766   O798    1.312   .     A
C766   O800    1.315   .     A
C766   C768    1.495   .     S
C767   C771    1.415   .     A
C767   C773    1.414   .     A
C768   C772    1.408   .     A
C768   C774    1.393   .     A
C769   C777    1.409   .     A
C769   C771    1.413   .     A
C770   C778    1.404   .     A
C770   C772    1.421   .     A
C770   O701    1.376   1_655 S
C772   Cl697   1.745   1_655 S
C773   C775    1.409   .     A
C773   O803    1.384   .     S
C774   O801    1.367   .     S
C774   C776    1.408   .     A
C775   C779    1.426   .     A
C775   C777    1.421   .     A
C776   C778    1.401   .     A
C776   C780    1.410   .     A
C777   C275    1.402   1_556 S
C779   C294    1.413   1_556 S
Cu781  O800    1.912   .     S
Cu781  O796    1.949   .     S
Cu781  N792    2.043   .     S
Cu781  O797    1.929   .     S
Cu781  O793    1.952   .     S
Cu781  Cu782   2.720   .     S
Cu782  O799    1.912   .     S
Cu782  O795    1.949   .     S
Cu782  N791    2.043   .     S
Cu782  O798    1.929   .     S
Cu782  O794    1.952   .     S
H788   C926    1.088   .     S
H790   N684    1.029   1_655 S
N791   H681    1.029   1_655 S
N791   N684    1.292   1_655 S
O801   H802    0.989   .     S
O803   H804    0.991   .     S
Cl806  C663    1.773   1_655 S
O807   H808    0.989   .     S
O807   C661    1.384   1_655 S
O809   H810    0.986   .     S
C811   O847    1.300   .     A
C811   O849    1.297   .     A
C811   C817    1.429   .     S
C812   O850    1.297   .     A
C812   O848    1.300   .     A
C812   C818    1.429   .     S
C813   C815    1.387   .     A
C813   C834    1.403   .     A
C813   H839    1.082   .     S
C814   C816    1.397   .     A
C814   C833    1.416   .     A
C814   H840    1.080   .     S
C815   H837    1.083   .     S
C816   C346    1.402   1_556 S
C816   H892    1.083   .     S
C817   C494    1.331   1_565 S
C817   H517    1.088   1_565 S
C819   O851    1.310   .     A
C819   C821    1.478   .     S
C819   O853    1.308   .     A
C820   O852    1.312   .     A
C820   O854    1.315   .     A
C820   C822    1.495   .     S
C821   C825    1.415   .     A
C821   C827    1.414   .     A
C822   C826    1.408   .     A
C822   C828    1.393   .     A
C823   C831    1.409   .     A
C823   C825    1.413   .     A
C823   O969    1.384   1_455 S
C824   C832    1.404   .     A
C824   C826    1.421   .     A
C824   O917    1.376   .     S
C825   Cl968   1.773   1_455 S
C826   Cl913   1.745   .     S
C827   C829    1.409   .     A
C827   O857    1.384   .     S
C828   O855    1.367   .     S
C828   C830    1.408   .     A
C829   C833    1.426   .     A
C829   C831    1.421   .     A
C830   C832    1.401   .     A
C830   C834    1.410   .     A
C831   C329    1.402   1_556 S
C833   C348    1.413   1_556 S
Cu835  O854    1.912   .     S
Cu835  O850    1.949   .     S
Cu835  N846    2.043   .     S
Cu835  O851    1.929   .     S
Cu835  O847    1.952   .     S
Cu835  Cu836   2.720   .     S
Cu836  O853    1.912   .     S
Cu836  O849    1.949   .     S
Cu836  N845    2.043   .     S
Cu836  O852    1.929   .     S
Cu836  O848    1.952   .     S
H838   C924    1.083   1_455 S
H842   C494    1.088   1_565 S
H843   N953    1.029   1_455 S
H844   N900    1.029   .     S
N845   H897    1.029   .     S
N845   N900    1.292   .     S
N846   H952    1.029   1_455 S
N846   N953    1.292   1_455 S
O855   H856    0.989   .     S
O857   H858    0.991   .     S
Cl859  C934    1.745   1_455 S
Cl860  C879    1.773   .     S
O861   H862    0.989   .     S
O861   C877    1.384   .     S
O863   H864    0.986   .     S
O863   C932    1.376   1_455 S
C865   O901    1.300   .     A
C865   O903    1.297   .     A
C865   C871    1.429   .     S
C866   O904    1.297   .     A
C866   O902    1.300   .     A
C866   C872    1.429   .     S
C867   C869    1.387   .     A
C867   C888    1.403   .     A
C867   H893    1.082   .     S
C868   C870    1.397   .     A
C868   C887    1.416   .     A
C868   H894    1.080   .     S
C869   H891    1.083   .     S
C870   C400    1.402   1_556 S
C870   H946    1.083   .     S
C871   C548    1.331   1_565 S
C871   H571    1.088   1_565 S
C873   O905    1.310   .     A
C873   C875    1.478   .     S
C873   O907    1.308   .     A
C874   O906    1.312   .     A
C874   O908    1.315   .     A
C874   C876    1.495   .     S
C875   C879    1.415   .     A
C875   C881    1.414   .     A
C876   C880    1.408   .     A
C876   C882    1.393   .     A
C877   C885    1.409   .     A
C877   C879    1.413   .     A
C878   C886    1.404   .     A
C878   C880    1.421   .     A
C878   O971    1.376   .     S
C880   Cl967   1.745   .     S
C881   C883    1.409   .     A
C881   O911    1.384   .     S
C882   O909    1.367   .     S
C882   C884    1.408   .     A
C883   C887    1.426   .     A
C883   C885    1.421   .     A
C884   C886    1.401   .     A
C884   C888    1.410   .     A
C885   C383    1.402   1_556 S
C887   C402    1.413   1_556 S
Cu889  O908    1.912   .     S
Cu889  O904    1.949   .     S
Cu889  N900    2.043   .     S
Cu889  O905    1.929   .     S
Cu889  O901    1.952   .     S
Cu889  Cu890   2.720   .     S
Cu890  O907    1.912   .     S
Cu890  O903    1.949   .     S
Cu890  N899    2.043   .     S
Cu890  O906    1.929   .     S
Cu890  O902    1.952   .     S
H896   C548    1.088   1_565 S
H898   N954    1.029   .     S
N899   H951    1.029   .     S
N899   N954    1.292   .     S
O909   H910    0.989   .     S
O911   H912    0.991   .     S
Cl914  C933    1.773   .     S
O915   H916    0.989   .     S
O915   C931    1.384   .     S
O917   H918    0.986   .     S
C919   O955    1.300   .     A
C919   O957    1.297   .     A
C919   C925    1.429   .     S
C920   O958    1.297   .     A
C920   O956    1.300   .     A
C920   C926    1.429   .     S
C921   C923    1.387   .     A
C921   C942    1.403   .     A
C921   H947    1.082   .     S
C922   C924    1.397   .     A
C922   C941    1.416   .     A
C922   H948    1.080   .     S
C923   H945    1.083   .     S
C924   C454    1.402   1_556 S
C924   H838    1.083   1_655 S
C925   C602    1.331   1_565 S
C925   H625    1.088   1_565 S
C927   O959    1.310   .     A
C927   C929    1.478   .     S
C927   O961    1.308   .     A
C928   O960    1.312   .     A
C928   O962    1.315   .     A
C928   C930    1.495   .     S
C929   C933    1.415   .     A
C929   C935    1.414   .     A
C930   C934    1.408   .     A
C930   C936    1.393   .     A
C931   C939    1.409   .     A
C931   C933    1.413   .     A
C932   C940    1.404   .     A
C932   C934    1.421   .     A
C932   O863    1.376   1_655 S
C934   Cl859   1.745   1_655 S
C935   C937    1.409   .     A
C935   O965    1.384   .     S
C936   O963    1.367   .     S
C936   C938    1.408   .     A
C937   C941    1.426   .     A
C937   C939    1.421   .     A
C938   C940    1.401   .     A
C938   C942    1.410   .     A
C939   C437    1.402   1_556 S
C941   C456    1.413   1_556 S
Cu943  O962    1.912   .     S
Cu943  O958    1.949   .     S
Cu943  N954    2.043   .     S
Cu943  O959    1.929   .     S
Cu943  O955    1.952   .     S
Cu943  Cu944   2.720   .     S
Cu944  O961    1.912   .     S
Cu944  O957    1.949   .     S
Cu944  N953    2.043   .     S
Cu944  O960    1.929   .     S
Cu944  O956    1.952   .     S
H950   C602    1.088   1_565 S
H952   N846    1.029   1_655 S
N953   H843    1.029   1_655 S
N953   N846    1.292   1_655 S
O963   H964    0.989   .     S
O965   H966    0.991   .     S
Cl968  C825    1.773   1_655 S
O969   H970    0.989   .     S
O969   C823    1.384   1_655 S
O971   H972    0.986   .     S
