data_str_m2_o1_o16_pcu_sym.82
_audit_creation_date              2020-01-03
_audit_creation_method            'Materials Studio'
_symmetry_space_group_name_H-M    'P1'
_symmetry_Int_Tables_number       1
_symmetry_cell_setting            triclinic
loop_
_symmetry_equiv_pos_as_xyz
  x,y,z
_cell_length_a                    28.6035
_cell_length_b                    32.5176
_cell_length_c                    26.7171
_cell_angle_alpha                 90.5916
_cell_angle_beta                  72.0646
_cell_angle_gamma                 89.9629
loop_
_atom_site_label
_atom_site_type_symbol
_atom_site_fract_x
_atom_site_fract_y
_atom_site_fract_z
_atom_site_U_iso_or_equiv
_atom_site_adp_type
_atom_site_occupancy
C1     C     0.16701   0.24593   0.24906   0.00000  Uiso   1.00
C2     C     0.12348   0.16315   0.40850   0.00000  Uiso   1.00
C3     C     0.21276   0.31168   0.22774   0.00000  Uiso   1.00
C4     C     0.14016   0.16520   0.35040   0.00000  Uiso   1.00
C5     C     0.21225   0.02136   0.22834   0.00000  Uiso   1.00
C6     C     0.16754   0.04277   0.24772   0.00000  Uiso   1.00
C7     C     0.12321   0.02138   0.26553   0.00000  Uiso   1.00
C8     C     0.12337   0.31220   0.26537   0.00000  Uiso   1.00
C9     C     0.16786   0.29057   0.24725   0.00000  Uiso   1.00
C10    C     0.29901   0.19322   0.28221   0.00000  Uiso   1.00
C11    C     0.01575   0.19304   0.28204   0.00000  Uiso   1.00
C12    C     0.14264   0.15545   0.49109   0.00000  Uiso   1.00
C13    C     0.03396   0.14029   0.21823   0.00000  Uiso   1.00
C14    C     0.31789   0.14033   0.21827   0.00000  Uiso   1.00
C15    C     0.16692   0.08739   0.24924   0.00000  Uiso   1.00
C16    C     0.19304   0.16456   0.14968   0.00000  Uiso   1.00
C17    C     0.25876   0.11920   0.01465   0.00000  Uiso   1.00
C18    C     0.20791   0.15518   0.09275   0.00000  Uiso   1.00
C19    C     0.07784   0.18067   0.43676   0.00000  Uiso   1.00
C20    C     0.06235   0.18108   0.49143   0.00000  Uiso   1.00
C21    C     0.09336   0.16736   0.01911   0.00000  Uiso   1.00
C22    C     0.15406   0.14687   0.43654   0.00000  Uiso   1.00
C23    C     0.18019   0.15002   0.01530   0.00000  Uiso   1.00
C24    C     0.22313   0.12694   0.48881   0.00000  Uiso   1.00
C25    C     0.22766   0.11017   0.43878   0.00000  Uiso   1.00
C26    C     0.19415   0.12047   0.41274   0.00000  Uiso   1.00
C27    C     0.17715   0.16828   0.06423   0.00000  Uiso   1.00
C28    C     0.24828   0.12930   0.06792   0.00000  Uiso   1.00
Cu29   Cu    0.11978   0.16666   0.25000   0.00000  Uiso   1.00
Cu30   Cu    0.21355   0.16667   0.25000   0.00000  Uiso   1.00
F31    F     0.25511   0.04211   0.20899   0.00000  Uiso   1.00
F32    F     0.03063   0.21926   0.31384   0.00000  Uiso   1.00
F33    F     0.06630   0.11352   0.18637   0.00000  Uiso   1.00
F34    F     0.30427   0.11359   0.18648   0.00000  Uiso   1.00
F35    F     0.26327   0.08235   0.41523   0.00000  Uiso   1.00
F36    F     0.14517   0.19968   0.08408   0.00000  Uiso   1.00
F37    F     0.04740   0.19658   0.41163   0.00000  Uiso   1.00
F38    F     0.01620   0.19417   0.01796   0.00000  Uiso   1.00
F39    F     0.19818   0.10050   0.36671   0.00000  Uiso   1.00
H40    H     0.08844   0.03752   0.28047   0.00000  Uiso   1.00
H41    H     0.08869   0.29623   0.28029   0.00000  Uiso   1.00
H42    H     0.25552   0.10199   0.12803   0.00000  Uiso   1.00
H43    H     0.28074   0.23678   0.33535   0.00000  Uiso   1.00
H44    H     0.31649   0.11199   0.45504   0.00000  Uiso   1.00
H45    H     0.08949   0.13852   0.08313   0.00000  Uiso   1.00
H46    H     0.28417   0.30882   0.19555   0.00000  Uiso   1.00
N47    N     0.04931   0.16666   0.24999   0.00000  Uiso   1.00
N48    N     0.28402   0.16669   0.24999   0.00000  Uiso   1.00
O49    O     0.12708   0.22678   0.25000   0.00000  Uiso   1.00
O50    O     0.26482   0.21968   0.31441   0.00000  Uiso   1.00
O51    O     0.30274   0.09960   0.49025   0.00000  Uiso   1.00
O52    O     0.07238   0.16176   0.07245   0.00000  Uiso   1.00
O53    O     0.25608   0.28972   0.20748   0.00000  Uiso   1.00
O54    O     0.20627   0.22679   0.25000   0.00000  Uiso   1.00
O55    O     0.10775   0.16665   0.32549   0.00000  Uiso   1.00
O56    O     0.18694   0.16666   0.32549   0.00000  Uiso   1.00
O57    O     0.12706   0.10654   0.24999   0.00000  Uiso   1.00
O58    O     0.20625   0.10655   0.24999   0.00000  Uiso   1.00
O59    O     0.14640   0.16667   0.17451   0.00000  Uiso   1.00
O60    O     0.22559   0.16668   0.17451   0.00000  Uiso   1.00
O61    O     0.27777   0.11268   0.09458   0.00000  Uiso   1.00
C62    C     0.50034   0.24593   0.24906   0.00000  Uiso   1.00
C63    C     0.45681   0.16315   0.40850   0.00000  Uiso   1.00
C64    C     0.54609   0.31168   0.22774   0.00000  Uiso   1.00
C65    C     0.47350   0.16520   0.35040   0.00000  Uiso   1.00
C66    C     0.54559   0.02136   0.22834   0.00000  Uiso   1.00
C67    C     0.50088   0.04277   0.24772   0.00000  Uiso   1.00
C68    C     0.45654   0.02138   0.26553   0.00000  Uiso   1.00
C69    C     0.45671   0.31220   0.26537   0.00000  Uiso   1.00
C70    C     0.50119   0.29057   0.24725   0.00000  Uiso   1.00
C71    C     0.63234   0.19322   0.28221   0.00000  Uiso   1.00
C72    C     0.34908   0.19304   0.28204   0.00000  Uiso   1.00
C73    C     0.47597   0.15545   0.49109   0.00000  Uiso   1.00
C74    C     0.36730   0.14029   0.21823   0.00000  Uiso   1.00
C75    C     0.65122   0.14033   0.21827   0.00000  Uiso   1.00
C76    C     0.50025   0.08739   0.24924   0.00000  Uiso   1.00
C77    C     0.52637   0.16456   0.14968   0.00000  Uiso   1.00
C78    C     0.59210   0.11920   0.01465   0.00000  Uiso   1.00
C79    C     0.54124   0.15518   0.09275   0.00000  Uiso   1.00
C80    C     0.41117   0.18067   0.43676   0.00000  Uiso   1.00
C81    C     0.39569   0.18108   0.49143   0.00000  Uiso   1.00
C82    C     0.42669   0.16736   0.01911   0.00000  Uiso   1.00
C83    C     0.48739   0.14687   0.43654   0.00000  Uiso   1.00
C84    C     0.51352   0.15002   0.01530   0.00000  Uiso   1.00
C85    C     0.55646   0.12694   0.48881   0.00000  Uiso   1.00
C86    C     0.56100   0.11017   0.43878   0.00000  Uiso   1.00
C87    C     0.52748   0.12047   0.41274   0.00000  Uiso   1.00
C88    C     0.51048   0.16828   0.06423   0.00000  Uiso   1.00
C89    C     0.58161   0.12930   0.06792   0.00000  Uiso   1.00
Cu90   Cu    0.45311   0.16666   0.25000   0.00000  Uiso   1.00
Cu91   Cu    0.54689   0.16667   0.25000   0.00000  Uiso   1.00
F92    F     0.58844   0.04211   0.20899   0.00000  Uiso   1.00
F93    F     0.36396   0.21926   0.31384   0.00000  Uiso   1.00
F94    F     0.39963   0.11352   0.18637   0.00000  Uiso   1.00
F95    F     0.63760   0.11359   0.18648   0.00000  Uiso   1.00
F96    F     0.59660   0.08235   0.41523   0.00000  Uiso   1.00
F97    F     0.47850   0.19968   0.08408   0.00000  Uiso   1.00
F98    F     0.38073   0.19658   0.41163   0.00000  Uiso   1.00
F99    F     0.34954   0.19417   0.01796   0.00000  Uiso   1.00
F100   F     0.53151   0.10050   0.36671   0.00000  Uiso   1.00
H101   H     0.42178   0.03752   0.28047   0.00000  Uiso   1.00
H102   H     0.42202   0.29623   0.28029   0.00000  Uiso   1.00
H103   H     0.58885   0.10199   0.12803   0.00000  Uiso   1.00
H104   H     0.61408   0.23678   0.33535   0.00000  Uiso   1.00
H105   H     0.64982   0.11199   0.45504   0.00000  Uiso   1.00
H106   H     0.42282   0.13852   0.08313   0.00000  Uiso   1.00
H107   H     0.61751   0.30882   0.19555   0.00000  Uiso   1.00
N108   N     0.38265   0.16666   0.24999   0.00000  Uiso   1.00
N109   N     0.61735   0.16669   0.24999   0.00000  Uiso   1.00
O110   O     0.46042   0.22678   0.25000   0.00000  Uiso   1.00
O111   O     0.59816   0.21968   0.31441   0.00000  Uiso   1.00
O112   O     0.63607   0.09960   0.49025   0.00000  Uiso   1.00
O113   O     0.40572   0.16176   0.07245   0.00000  Uiso   1.00
O114   O     0.58941   0.28972   0.20748   0.00000  Uiso   1.00
O115   O     0.53961   0.22679   0.25000   0.00000  Uiso   1.00
O116   O     0.44108   0.16665   0.32549   0.00000  Uiso   1.00
O117   O     0.52027   0.16666   0.32549   0.00000  Uiso   1.00
O118   O     0.46039   0.10654   0.24999   0.00000  Uiso   1.00
O119   O     0.53958   0.10655   0.24999   0.00000  Uiso   1.00
O120   O     0.47973   0.16667   0.17451   0.00000  Uiso   1.00
O121   O     0.55892   0.16668   0.17451   0.00000  Uiso   1.00
O122   O     0.61110   0.11268   0.09458   0.00000  Uiso   1.00
C123   C     0.83368   0.24593   0.24906   0.00000  Uiso   1.00
C124   C     0.79014   0.16315   0.40850   0.00000  Uiso   1.00
C125   C     0.87942   0.31168   0.22774   0.00000  Uiso   1.00
C126   C     0.80683   0.16520   0.35040   0.00000  Uiso   1.00
C127   C     0.87892   0.02136   0.22834   0.00000  Uiso   1.00
C128   C     0.83421   0.04277   0.24772   0.00000  Uiso   1.00
C129   C     0.78988   0.02138   0.26553   0.00000  Uiso   1.00
C130   C     0.79004   0.31220   0.26537   0.00000  Uiso   1.00
C131   C     0.83452   0.29057   0.24725   0.00000  Uiso   1.00
C132   C     0.96568   0.19322   0.28221   0.00000  Uiso   1.00
C133   C     0.68242   0.19304   0.28204   0.00000  Uiso   1.00
C134   C     0.80931   0.15545   0.49109   0.00000  Uiso   1.00
C135   C     0.70063   0.14029   0.21823   0.00000  Uiso   1.00
C136   C     0.98455   0.14033   0.21827   0.00000  Uiso   1.00
C137   C     0.83359   0.08739   0.24924   0.00000  Uiso   1.00
C138   C     0.85970   0.16456   0.14968   0.00000  Uiso   1.00
C139   C     0.92543   0.11920   0.01465   0.00000  Uiso   1.00
C140   C     0.87458   0.15518   0.09275   0.00000  Uiso   1.00
C141   C     0.74450   0.18067   0.43676   0.00000  Uiso   1.00
C142   C     0.72902   0.18108   0.49143   0.00000  Uiso   1.00
C143   C     0.76002   0.16736   0.01911   0.00000  Uiso   1.00
C144   C     0.82072   0.14687   0.43654   0.00000  Uiso   1.00
C145   C     0.84685   0.15002   0.01530   0.00000  Uiso   1.00
C146   C     0.88979   0.12694   0.48881   0.00000  Uiso   1.00
C147   C     0.89433   0.11017   0.43878   0.00000  Uiso   1.00
C148   C     0.86081   0.12047   0.41274   0.00000  Uiso   1.00
C149   C     0.84381   0.16828   0.06423   0.00000  Uiso   1.00
C150   C     0.91495   0.12930   0.06792   0.00000  Uiso   1.00
Cu151  Cu    0.78645   0.16666   0.25000   0.00000  Uiso   1.00
Cu152  Cu    0.88022   0.16667   0.25000   0.00000  Uiso   1.00
F153   F     0.92178   0.04211   0.20899   0.00000  Uiso   1.00
F154   F     0.69730   0.21926   0.31384   0.00000  Uiso   1.00
F155   F     0.73296   0.11352   0.18637   0.00000  Uiso   1.00
F156   F     0.97094   0.11359   0.18648   0.00000  Uiso   1.00
F157   F     0.92993   0.08235   0.41523   0.00000  Uiso   1.00
F158   F     0.81183   0.19968   0.08408   0.00000  Uiso   1.00
F159   F     0.71406   0.19658   0.41163   0.00000  Uiso   1.00
F160   F     0.68287   0.19417   0.01796   0.00000  Uiso   1.00
F161   F     0.86484   0.10050   0.36671   0.00000  Uiso   1.00
H162   H     0.75511   0.03752   0.28047   0.00000  Uiso   1.00
H163   H     0.75535   0.29623   0.28029   0.00000  Uiso   1.00
H164   H     0.92219   0.10199   0.12803   0.00000  Uiso   1.00
H165   H     0.94741   0.23678   0.33535   0.00000  Uiso   1.00
H166   H     0.98316   0.11199   0.45504   0.00000  Uiso   1.00
H167   H     0.75615   0.13852   0.08313   0.00000  Uiso   1.00
H168   H     0.95084   0.30882   0.19555   0.00000  Uiso   1.00
N169   N     0.71598   0.16666   0.24999   0.00000  Uiso   1.00
N170   N     0.95069   0.16669   0.24999   0.00000  Uiso   1.00
O171   O     0.79375   0.22678   0.25000   0.00000  Uiso   1.00
O172   O     0.93149   0.21968   0.31441   0.00000  Uiso   1.00
O173   O     0.96941   0.09960   0.49025   0.00000  Uiso   1.00
O174   O     0.73905   0.16176   0.07245   0.00000  Uiso   1.00
O175   O     0.92275   0.28972   0.20748   0.00000  Uiso   1.00
O176   O     0.87294   0.22679   0.25000   0.00000  Uiso   1.00
O177   O     0.77441   0.16665   0.32549   0.00000  Uiso   1.00
O178   O     0.85360   0.16666   0.32549   0.00000  Uiso   1.00
O179   O     0.79373   0.10654   0.24999   0.00000  Uiso   1.00
O180   O     0.87292   0.10655   0.24999   0.00000  Uiso   1.00
O181   O     0.81306   0.16667   0.17451   0.00000  Uiso   1.00
O182   O     0.89225   0.16668   0.17451   0.00000  Uiso   1.00
O183   O     0.94444   0.11268   0.09458   0.00000  Uiso   1.00
C184   C     0.16701   0.57927   0.24906   0.00000  Uiso   1.00
C185   C     0.12348   0.49648   0.40850   0.00000  Uiso   1.00
C186   C     0.21276   0.64501   0.22774   0.00000  Uiso   1.00
C187   C     0.14016   0.49854   0.35040   0.00000  Uiso   1.00
C188   C     0.21225   0.35469   0.22834   0.00000  Uiso   1.00
C189   C     0.16754   0.37610   0.24772   0.00000  Uiso   1.00
C190   C     0.12321   0.35471   0.26553   0.00000  Uiso   1.00
C191   C     0.12337   0.64553   0.26537   0.00000  Uiso   1.00
C192   C     0.16786   0.62390   0.24725   0.00000  Uiso   1.00
C193   C     0.29901   0.52655   0.28221   0.00000  Uiso   1.00
C194   C     0.01575   0.52637   0.28204   0.00000  Uiso   1.00
C195   C     0.14264   0.48879   0.49109   0.00000  Uiso   1.00
C196   C     0.03396   0.47362   0.21823   0.00000  Uiso   1.00
C197   C     0.31789   0.47366   0.21827   0.00000  Uiso   1.00
C198   C     0.16692   0.42072   0.24924   0.00000  Uiso   1.00
C199   C     0.19304   0.49790   0.14968   0.00000  Uiso   1.00
C200   C     0.25876   0.45253   0.01465   0.00000  Uiso   1.00
C201   C     0.20791   0.48852   0.09275   0.00000  Uiso   1.00
C202   C     0.07784   0.51400   0.43676   0.00000  Uiso   1.00
C203   C     0.06235   0.51442   0.49143   0.00000  Uiso   1.00
C204   C     0.09336   0.50069   0.01911   0.00000  Uiso   1.00
C205   C     0.15406   0.48020   0.43654   0.00000  Uiso   1.00
C206   C     0.18019   0.48335   0.01530   0.00000  Uiso   1.00
C207   C     0.22313   0.46027   0.48881   0.00000  Uiso   1.00
C208   C     0.22766   0.44350   0.43878   0.00000  Uiso   1.00
C209   C     0.19415   0.45380   0.41274   0.00000  Uiso   1.00
C210   C     0.17715   0.50161   0.06423   0.00000  Uiso   1.00
C211   C     0.24828   0.46263   0.06792   0.00000  Uiso   1.00
Cu212  Cu    0.11978   0.49999   0.25000   0.00000  Uiso   1.00
Cu213  Cu    0.21355   0.50001   0.25000   0.00000  Uiso   1.00
F214   F     0.25511   0.37544   0.20899   0.00000  Uiso   1.00
F215   F     0.03063   0.55259   0.31384   0.00000  Uiso   1.00
F216   F     0.06630   0.44685   0.18637   0.00000  Uiso   1.00
F217   F     0.30427   0.44692   0.18648   0.00000  Uiso   1.00
F218   F     0.26327   0.41568   0.41523   0.00000  Uiso   1.00
F219   F     0.14517   0.53302   0.08408   0.00000  Uiso   1.00
F220   F     0.04740   0.52991   0.41163   0.00000  Uiso   1.00
F221   F     0.01620   0.52750   0.01796   0.00000  Uiso   1.00
F222   F     0.19818   0.43383   0.36671   0.00000  Uiso   1.00
H223   H     0.08844   0.37086   0.28047   0.00000  Uiso   1.00
H224   H     0.08869   0.62956   0.28029   0.00000  Uiso   1.00
H225   H     0.25552   0.43532   0.12803   0.00000  Uiso   1.00
H226   H     0.28074   0.57012   0.33535   0.00000  Uiso   1.00
H227   H     0.31649   0.44532   0.45504   0.00000  Uiso   1.00
H228   H     0.08949   0.47185   0.08313   0.00000  Uiso   1.00
H229   H     0.28417   0.64215   0.19555   0.00000  Uiso   1.00
N230   N     0.04931   0.49999   0.24999   0.00000  Uiso   1.00
N231   N     0.28402   0.50002   0.24999   0.00000  Uiso   1.00
O232   O     0.12708   0.56011   0.25000   0.00000  Uiso   1.00
O233   O     0.26482   0.55302   0.31441   0.00000  Uiso   1.00
O234   O     0.30274   0.43293   0.49025   0.00000  Uiso   1.00
O235   O     0.07238   0.49510   0.07245   0.00000  Uiso   1.00
O236   O     0.25608   0.62306   0.20748   0.00000  Uiso   1.00
O237   O     0.20627   0.56012   0.25000   0.00000  Uiso   1.00
O238   O     0.10775   0.49998   0.32549   0.00000  Uiso   1.00
O239   O     0.18694   0.49999   0.32549   0.00000  Uiso   1.00
O240   O     0.12706   0.43988   0.24999   0.00000  Uiso   1.00
O241   O     0.20625   0.43989   0.24999   0.00000  Uiso   1.00
O242   O     0.14640   0.50001   0.17451   0.00000  Uiso   1.00
O243   O     0.22559   0.50002   0.17451   0.00000  Uiso   1.00
O244   O     0.27777   0.44601   0.09458   0.00000  Uiso   1.00
C245   C     0.50034   0.57927   0.24906   0.00000  Uiso   1.00
C246   C     0.45681   0.49648   0.40850   0.00000  Uiso   1.00
C247   C     0.54609   0.64501   0.22774   0.00000  Uiso   1.00
C248   C     0.47350   0.49854   0.35040   0.00000  Uiso   1.00
C249   C     0.54559   0.35469   0.22834   0.00000  Uiso   1.00
C250   C     0.50088   0.37610   0.24772   0.00000  Uiso   1.00
C251   C     0.45654   0.35471   0.26553   0.00000  Uiso   1.00
C252   C     0.45671   0.64553   0.26537   0.00000  Uiso   1.00
C253   C     0.50119   0.62390   0.24725   0.00000  Uiso   1.00
C254   C     0.63234   0.52655   0.28221   0.00000  Uiso   1.00
C255   C     0.34908   0.52637   0.28204   0.00000  Uiso   1.00
C256   C     0.47597   0.48879   0.49109   0.00000  Uiso   1.00
C257   C     0.36730   0.47362   0.21823   0.00000  Uiso   1.00
C258   C     0.65122   0.47366   0.21827   0.00000  Uiso   1.00
C259   C     0.50025   0.42072   0.24924   0.00000  Uiso   1.00
C260   C     0.52637   0.49790   0.14968   0.00000  Uiso   1.00
C261   C     0.59210   0.45253   0.01465   0.00000  Uiso   1.00
C262   C     0.54124   0.48852   0.09275   0.00000  Uiso   1.00
C263   C     0.41117   0.51400   0.43676   0.00000  Uiso   1.00
C264   C     0.39569   0.51442   0.49143   0.00000  Uiso   1.00
C265   C     0.42669   0.50069   0.01911   0.00000  Uiso   1.00
C266   C     0.48739   0.48020   0.43654   0.00000  Uiso   1.00
C267   C     0.51352   0.48335   0.01530   0.00000  Uiso   1.00
C268   C     0.55646   0.46027   0.48881   0.00000  Uiso   1.00
C269   C     0.56100   0.44350   0.43878   0.00000  Uiso   1.00
C270   C     0.52748   0.45380   0.41274   0.00000  Uiso   1.00
C271   C     0.51048   0.50161   0.06423   0.00000  Uiso   1.00
C272   C     0.58161   0.46263   0.06792   0.00000  Uiso   1.00
Cu273  Cu    0.45311   0.49999   0.25000   0.00000  Uiso   1.00
Cu274  Cu    0.54689   0.50001   0.25000   0.00000  Uiso   1.00
F275   F     0.58844   0.37544   0.20899   0.00000  Uiso   1.00
F276   F     0.36396   0.55259   0.31384   0.00000  Uiso   1.00
F277   F     0.39963   0.44685   0.18637   0.00000  Uiso   1.00
F278   F     0.63760   0.44692   0.18648   0.00000  Uiso   1.00
F279   F     0.59660   0.41568   0.41523   0.00000  Uiso   1.00
F280   F     0.47850   0.53302   0.08408   0.00000  Uiso   1.00
F281   F     0.38073   0.52991   0.41163   0.00000  Uiso   1.00
F282   F     0.34954   0.52750   0.01796   0.00000  Uiso   1.00
F283   F     0.53151   0.43383   0.36671   0.00000  Uiso   1.00
H284   H     0.42178   0.37086   0.28047   0.00000  Uiso   1.00
H285   H     0.42202   0.62956   0.28029   0.00000  Uiso   1.00
H286   H     0.58885   0.43532   0.12803   0.00000  Uiso   1.00
H287   H     0.61408   0.57012   0.33535   0.00000  Uiso   1.00
H288   H     0.64982   0.44532   0.45504   0.00000  Uiso   1.00
H289   H     0.42282   0.47185   0.08313   0.00000  Uiso   1.00
H290   H     0.61751   0.64215   0.19555   0.00000  Uiso   1.00
N291   N     0.38265   0.49999   0.24999   0.00000  Uiso   1.00
N292   N     0.61735   0.50002   0.24999   0.00000  Uiso   1.00
O293   O     0.46042   0.56011   0.25000   0.00000  Uiso   1.00
O294   O     0.59816   0.55302   0.31441   0.00000  Uiso   1.00
O295   O     0.63607   0.43293   0.49025   0.00000  Uiso   1.00
O296   O     0.40572   0.49510   0.07245   0.00000  Uiso   1.00
O297   O     0.58941   0.62306   0.20748   0.00000  Uiso   1.00
O298   O     0.53961   0.56012   0.25000   0.00000  Uiso   1.00
O299   O     0.44108   0.49998   0.32549   0.00000  Uiso   1.00
O300   O     0.52027   0.49999   0.32549   0.00000  Uiso   1.00
O301   O     0.46039   0.43988   0.24999   0.00000  Uiso   1.00
O302   O     0.53958   0.43989   0.24999   0.00000  Uiso   1.00
O303   O     0.47973   0.50001   0.17451   0.00000  Uiso   1.00
O304   O     0.55892   0.50002   0.17451   0.00000  Uiso   1.00
O305   O     0.61110   0.44601   0.09458   0.00000  Uiso   1.00
C306   C     0.83368   0.57927   0.24906   0.00000  Uiso   1.00
C307   C     0.79014   0.49648   0.40850   0.00000  Uiso   1.00
C308   C     0.87942   0.64501   0.22774   0.00000  Uiso   1.00
C309   C     0.80683   0.49854   0.35040   0.00000  Uiso   1.00
C310   C     0.87892   0.35469   0.22834   0.00000  Uiso   1.00
C311   C     0.83421   0.37610   0.24772   0.00000  Uiso   1.00
C312   C     0.78988   0.35471   0.26553   0.00000  Uiso   1.00
C313   C     0.79004   0.64553   0.26537   0.00000  Uiso   1.00
C314   C     0.83452   0.62390   0.24725   0.00000  Uiso   1.00
C315   C     0.96568   0.52655   0.28221   0.00000  Uiso   1.00
C316   C     0.68242   0.52637   0.28204   0.00000  Uiso   1.00
C317   C     0.80931   0.48879   0.49109   0.00000  Uiso   1.00
C318   C     0.70063   0.47362   0.21823   0.00000  Uiso   1.00
C319   C     0.98455   0.47366   0.21827   0.00000  Uiso   1.00
C320   C     0.83359   0.42072   0.24924   0.00000  Uiso   1.00
C321   C     0.85970   0.49790   0.14968   0.00000  Uiso   1.00
C322   C     0.92543   0.45253   0.01465   0.00000  Uiso   1.00
C323   C     0.87458   0.48852   0.09275   0.00000  Uiso   1.00
C324   C     0.74450   0.51400   0.43676   0.00000  Uiso   1.00
C325   C     0.72902   0.51442   0.49143   0.00000  Uiso   1.00
C326   C     0.76002   0.50069   0.01911   0.00000  Uiso   1.00
C327   C     0.82072   0.48020   0.43654   0.00000  Uiso   1.00
C328   C     0.84685   0.48335   0.01530   0.00000  Uiso   1.00
C329   C     0.88979   0.46027   0.48881   0.00000  Uiso   1.00
C330   C     0.89433   0.44350   0.43878   0.00000  Uiso   1.00
C331   C     0.86081   0.45380   0.41274   0.00000  Uiso   1.00
C332   C     0.84381   0.50161   0.06423   0.00000  Uiso   1.00
C333   C     0.91495   0.46263   0.06792   0.00000  Uiso   1.00
Cu334  Cu    0.78645   0.49999   0.25000   0.00000  Uiso   1.00
Cu335  Cu    0.88022   0.50001   0.25000   0.00000  Uiso   1.00
F336   F     0.92178   0.37544   0.20899   0.00000  Uiso   1.00
F337   F     0.69730   0.55259   0.31384   0.00000  Uiso   1.00
F338   F     0.73296   0.44685   0.18637   0.00000  Uiso   1.00
F339   F     0.97094   0.44692   0.18648   0.00000  Uiso   1.00
F340   F     0.92993   0.41568   0.41523   0.00000  Uiso   1.00
F341   F     0.81183   0.53302   0.08408   0.00000  Uiso   1.00
F342   F     0.71406   0.52991   0.41163   0.00000  Uiso   1.00
F343   F     0.68287   0.52750   0.01796   0.00000  Uiso   1.00
F344   F     0.86484   0.43383   0.36671   0.00000  Uiso   1.00
H345   H     0.75511   0.37086   0.28047   0.00000  Uiso   1.00
H346   H     0.75535   0.62956   0.28029   0.00000  Uiso   1.00
H347   H     0.92219   0.43532   0.12803   0.00000  Uiso   1.00
H348   H     0.94741   0.57012   0.33535   0.00000  Uiso   1.00
H349   H     0.98316   0.44532   0.45504   0.00000  Uiso   1.00
H350   H     0.75615   0.47185   0.08313   0.00000  Uiso   1.00
H351   H     0.95084   0.64215   0.19555   0.00000  Uiso   1.00
N352   N     0.71598   0.49999   0.24999   0.00000  Uiso   1.00
N353   N     0.95069   0.50002   0.24999   0.00000  Uiso   1.00
O354   O     0.79375   0.56011   0.25000   0.00000  Uiso   1.00
O355   O     0.93149   0.55302   0.31441   0.00000  Uiso   1.00
O356   O     0.96941   0.43293   0.49025   0.00000  Uiso   1.00
O357   O     0.73905   0.49510   0.07245   0.00000  Uiso   1.00
O358   O     0.92275   0.62306   0.20748   0.00000  Uiso   1.00
O359   O     0.87294   0.56012   0.25000   0.00000  Uiso   1.00
O360   O     0.77441   0.49998   0.32549   0.00000  Uiso   1.00
O361   O     0.85360   0.49999   0.32549   0.00000  Uiso   1.00
O362   O     0.79373   0.43988   0.24999   0.00000  Uiso   1.00
O363   O     0.87292   0.43989   0.24999   0.00000  Uiso   1.00
O364   O     0.81306   0.50001   0.17451   0.00000  Uiso   1.00
O365   O     0.89225   0.50002   0.17451   0.00000  Uiso   1.00
O366   O     0.94444   0.44601   0.09458   0.00000  Uiso   1.00
C367   C     0.16701   0.91260   0.24906   0.00000  Uiso   1.00
C368   C     0.12348   0.82982   0.40850   0.00000  Uiso   1.00
C369   C     0.21276   0.97835   0.22774   0.00000  Uiso   1.00
C370   C     0.14016   0.83187   0.35040   0.00000  Uiso   1.00
C371   C     0.21225   0.68802   0.22834   0.00000  Uiso   1.00
C372   C     0.16754   0.70943   0.24772   0.00000  Uiso   1.00
C373   C     0.12321   0.68805   0.26553   0.00000  Uiso   1.00
C374   C     0.12337   0.97886   0.26537   0.00000  Uiso   1.00
C375   C     0.16786   0.95723   0.24725   0.00000  Uiso   1.00
C376   C     0.29901   0.85988   0.28221   0.00000  Uiso   1.00
C377   C     0.01575   0.85970   0.28204   0.00000  Uiso   1.00
C378   C     0.14264   0.82212   0.49109   0.00000  Uiso   1.00
C379   C     0.03396   0.80696   0.21823   0.00000  Uiso   1.00
C380   C     0.31789   0.80699   0.21827   0.00000  Uiso   1.00
C381   C     0.16692   0.75405   0.24924   0.00000  Uiso   1.00
C382   C     0.19304   0.83123   0.14968   0.00000  Uiso   1.00
C383   C     0.25876   0.78586   0.01465   0.00000  Uiso   1.00
C384   C     0.20791   0.82185   0.09275   0.00000  Uiso   1.00
C385   C     0.07784   0.84733   0.43676   0.00000  Uiso   1.00
C386   C     0.06235   0.84775   0.49143   0.00000  Uiso   1.00
C387   C     0.09336   0.83403   0.01911   0.00000  Uiso   1.00
C388   C     0.15406   0.81353   0.43654   0.00000  Uiso   1.00
C389   C     0.18019   0.81668   0.01530   0.00000  Uiso   1.00
C390   C     0.22313   0.79360   0.48881   0.00000  Uiso   1.00
C391   C     0.22766   0.77683   0.43878   0.00000  Uiso   1.00
C392   C     0.19415   0.78714   0.41274   0.00000  Uiso   1.00
C393   C     0.17715   0.83494   0.06423   0.00000  Uiso   1.00
C394   C     0.24828   0.79596   0.06792   0.00000  Uiso   1.00
Cu395  Cu    0.11978   0.83333   0.25000   0.00000  Uiso   1.00
Cu396  Cu    0.21355   0.83334   0.25000   0.00000  Uiso   1.00
F397   F     0.25511   0.70878   0.20899   0.00000  Uiso   1.00
F398   F     0.03063   0.88593   0.31384   0.00000  Uiso   1.00
F399   F     0.06630   0.78018   0.18637   0.00000  Uiso   1.00
F400   F     0.30427   0.78026   0.18648   0.00000  Uiso   1.00
F401   F     0.26327   0.74901   0.41523   0.00000  Uiso   1.00
F402   F     0.14517   0.86635   0.08408   0.00000  Uiso   1.00
F403   F     0.04740   0.86325   0.41163   0.00000  Uiso   1.00
F404   F     0.01620   0.86083   0.01796   0.00000  Uiso   1.00
F405   F     0.19818   0.76716   0.36671   0.00000  Uiso   1.00
H406   H     0.08844   0.70419   0.28047   0.00000  Uiso   1.00
H407   H     0.08869   0.96290   0.28029   0.00000  Uiso   1.00
H408   H     0.25552   0.76865   0.12803   0.00000  Uiso   1.00
H409   H     0.28074   0.90345   0.33535   0.00000  Uiso   1.00
H410   H     0.31649   0.77865   0.45504   0.00000  Uiso   1.00
H411   H     0.08949   0.80518   0.08313   0.00000  Uiso   1.00
H412   H     0.28417   0.97548   0.19555   0.00000  Uiso   1.00
N413   N     0.04931   0.83332   0.24999   0.00000  Uiso   1.00
N414   N     0.28402   0.83335   0.24999   0.00000  Uiso   1.00
O415   O     0.12708   0.89345   0.25000   0.00000  Uiso   1.00
O416   O     0.26482   0.88635   0.31441   0.00000  Uiso   1.00
O417   O     0.30274   0.76627   0.49025   0.00000  Uiso   1.00
O418   O     0.07238   0.82843   0.07245   0.00000  Uiso   1.00
O419   O     0.25608   0.95639   0.20748   0.00000  Uiso   1.00
O420   O     0.20627   0.89346   0.25000   0.00000  Uiso   1.00
O421   O     0.10775   0.83332   0.32549   0.00000  Uiso   1.00
O422   O     0.18694   0.83333   0.32549   0.00000  Uiso   1.00
O423   O     0.12706   0.77321   0.24999   0.00000  Uiso   1.00
O424   O     0.20625   0.77322   0.24999   0.00000  Uiso   1.00
O425   O     0.14640   0.83334   0.17451   0.00000  Uiso   1.00
O426   O     0.22559   0.83335   0.17451   0.00000  Uiso   1.00
O427   O     0.27777   0.77935   0.09458   0.00000  Uiso   1.00
C428   C     0.50034   0.91260   0.24906   0.00000  Uiso   1.00
C429   C     0.45681   0.82982   0.40850   0.00000  Uiso   1.00
C430   C     0.54609   0.97835   0.22774   0.00000  Uiso   1.00
C431   C     0.47350   0.83187   0.35040   0.00000  Uiso   1.00
C432   C     0.54559   0.68802   0.22834   0.00000  Uiso   1.00
C433   C     0.50088   0.70943   0.24772   0.00000  Uiso   1.00
C434   C     0.45654   0.68805   0.26553   0.00000  Uiso   1.00
C435   C     0.45671   0.97886   0.26537   0.00000  Uiso   1.00
C436   C     0.50119   0.95723   0.24725   0.00000  Uiso   1.00
C437   C     0.63234   0.85988   0.28221   0.00000  Uiso   1.00
C438   C     0.34908   0.85970   0.28204   0.00000  Uiso   1.00
C439   C     0.47597   0.82212   0.49109   0.00000  Uiso   1.00
C440   C     0.36730   0.80696   0.21823   0.00000  Uiso   1.00
C441   C     0.65122   0.80699   0.21827   0.00000  Uiso   1.00
C442   C     0.50025   0.75405   0.24924   0.00000  Uiso   1.00
C443   C     0.52637   0.83123   0.14968   0.00000  Uiso   1.00
C444   C     0.59210   0.78586   0.01465   0.00000  Uiso   1.00
C445   C     0.54124   0.82185   0.09275   0.00000  Uiso   1.00
C446   C     0.41117   0.84733   0.43676   0.00000  Uiso   1.00
C447   C     0.39569   0.84775   0.49143   0.00000  Uiso   1.00
C448   C     0.42669   0.83403   0.01911   0.00000  Uiso   1.00
C449   C     0.48739   0.81353   0.43654   0.00000  Uiso   1.00
C450   C     0.51352   0.81668   0.01530   0.00000  Uiso   1.00
C451   C     0.55646   0.79360   0.48881   0.00000  Uiso   1.00
C452   C     0.56100   0.77683   0.43878   0.00000  Uiso   1.00
C453   C     0.52748   0.78714   0.41274   0.00000  Uiso   1.00
C454   C     0.51048   0.83494   0.06423   0.00000  Uiso   1.00
C455   C     0.58161   0.79596   0.06792   0.00000  Uiso   1.00
Cu456  Cu    0.45311   0.83333   0.25000   0.00000  Uiso   1.00
Cu457  Cu    0.54689   0.83334   0.25000   0.00000  Uiso   1.00
F458   F     0.58844   0.70878   0.20899   0.00000  Uiso   1.00
F459   F     0.36396   0.88593   0.31384   0.00000  Uiso   1.00
F460   F     0.39963   0.78018   0.18637   0.00000  Uiso   1.00
F461   F     0.63760   0.78026   0.18648   0.00000  Uiso   1.00
F462   F     0.59660   0.74901   0.41523   0.00000  Uiso   1.00
F463   F     0.47850   0.86635   0.08408   0.00000  Uiso   1.00
F464   F     0.38073   0.86325   0.41163   0.00000  Uiso   1.00
F465   F     0.34954   0.86083   0.01796   0.00000  Uiso   1.00
F466   F     0.53151   0.76716   0.36671   0.00000  Uiso   1.00
H467   H     0.42178   0.70419   0.28047   0.00000  Uiso   1.00
H468   H     0.42202   0.96290   0.28029   0.00000  Uiso   1.00
H469   H     0.58885   0.76865   0.12803   0.00000  Uiso   1.00
H470   H     0.61408   0.90345   0.33535   0.00000  Uiso   1.00
H471   H     0.64982   0.77865   0.45504   0.00000  Uiso   1.00
H472   H     0.42282   0.80518   0.08313   0.00000  Uiso   1.00
H473   H     0.61751   0.97548   0.19555   0.00000  Uiso   1.00
N474   N     0.38265   0.83332   0.24999   0.00000  Uiso   1.00
N475   N     0.61735   0.83335   0.24999   0.00000  Uiso   1.00
O476   O     0.46042   0.89345   0.25000   0.00000  Uiso   1.00
O477   O     0.59816   0.88635   0.31441   0.00000  Uiso   1.00
O478   O     0.63607   0.76627   0.49025   0.00000  Uiso   1.00
O479   O     0.40572   0.82843   0.07245   0.00000  Uiso   1.00
O480   O     0.58941   0.95639   0.20748   0.00000  Uiso   1.00
O481   O     0.53961   0.89346   0.25000   0.00000  Uiso   1.00
O482   O     0.44108   0.83332   0.32549   0.00000  Uiso   1.00
O483   O     0.52027   0.83333   0.32549   0.00000  Uiso   1.00
O484   O     0.46039   0.77321   0.24999   0.00000  Uiso   1.00
O485   O     0.53958   0.77322   0.24999   0.00000  Uiso   1.00
O486   O     0.47973   0.83334   0.17451   0.00000  Uiso   1.00
O487   O     0.55892   0.83335   0.17451   0.00000  Uiso   1.00
O488   O     0.61110   0.77935   0.09458   0.00000  Uiso   1.00
C489   C     0.83368   0.91260   0.24906   0.00000  Uiso   1.00
C490   C     0.79014   0.82982   0.40850   0.00000  Uiso   1.00
C491   C     0.87942   0.97835   0.22774   0.00000  Uiso   1.00
C492   C     0.80683   0.83187   0.35040   0.00000  Uiso   1.00
C493   C     0.87892   0.68802   0.22834   0.00000  Uiso   1.00
C494   C     0.83421   0.70943   0.24772   0.00000  Uiso   1.00
C495   C     0.78988   0.68805   0.26553   0.00000  Uiso   1.00
C496   C     0.79004   0.97886   0.26537   0.00000  Uiso   1.00
C497   C     0.83452   0.95723   0.24725   0.00000  Uiso   1.00
C498   C     0.96568   0.85988   0.28221   0.00000  Uiso   1.00
C499   C     0.68242   0.85970   0.28204   0.00000  Uiso   1.00
C500   C     0.80931   0.82212   0.49109   0.00000  Uiso   1.00
C501   C     0.70063   0.80696   0.21823   0.00000  Uiso   1.00
C502   C     0.98455   0.80699   0.21827   0.00000  Uiso   1.00
C503   C     0.83359   0.75405   0.24924   0.00000  Uiso   1.00
C504   C     0.85970   0.83123   0.14968   0.00000  Uiso   1.00
C505   C     0.92543   0.78586   0.01465   0.00000  Uiso   1.00
C506   C     0.87458   0.82185   0.09275   0.00000  Uiso   1.00
C507   C     0.74450   0.84733   0.43676   0.00000  Uiso   1.00
C508   C     0.72902   0.84775   0.49143   0.00000  Uiso   1.00
C509   C     0.76002   0.83403   0.01911   0.00000  Uiso   1.00
C510   C     0.82072   0.81353   0.43654   0.00000  Uiso   1.00
C511   C     0.84685   0.81668   0.01530   0.00000  Uiso   1.00
C512   C     0.88979   0.79360   0.48881   0.00000  Uiso   1.00
C513   C     0.89433   0.77683   0.43878   0.00000  Uiso   1.00
C514   C     0.86081   0.78714   0.41274   0.00000  Uiso   1.00
C515   C     0.84381   0.83494   0.06423   0.00000  Uiso   1.00
C516   C     0.91495   0.79596   0.06792   0.00000  Uiso   1.00
Cu517  Cu    0.78645   0.83333   0.25000   0.00000  Uiso   1.00
Cu518  Cu    0.88022   0.83334   0.25000   0.00000  Uiso   1.00
F519   F     0.92178   0.70878   0.20899   0.00000  Uiso   1.00
F520   F     0.69730   0.88593   0.31384   0.00000  Uiso   1.00
F521   F     0.73296   0.78018   0.18637   0.00000  Uiso   1.00
F522   F     0.97094   0.78026   0.18648   0.00000  Uiso   1.00
F523   F     0.92993   0.74901   0.41523   0.00000  Uiso   1.00
F524   F     0.81183   0.86635   0.08408   0.00000  Uiso   1.00
F525   F     0.71406   0.86325   0.41163   0.00000  Uiso   1.00
F526   F     0.68287   0.86083   0.01796   0.00000  Uiso   1.00
F527   F     0.86484   0.76716   0.36671   0.00000  Uiso   1.00
H528   H     0.75511   0.70419   0.28047   0.00000  Uiso   1.00
H529   H     0.75535   0.96290   0.28029   0.00000  Uiso   1.00
H530   H     0.92219   0.76865   0.12803   0.00000  Uiso   1.00
H531   H     0.94741   0.90345   0.33535   0.00000  Uiso   1.00
H532   H     0.98316   0.77865   0.45504   0.00000  Uiso   1.00
H533   H     0.75615   0.80518   0.08313   0.00000  Uiso   1.00
H534   H     0.95084   0.97548   0.19555   0.00000  Uiso   1.00
N535   N     0.71598   0.83332   0.24999   0.00000  Uiso   1.00
N536   N     0.95069   0.83335   0.24999   0.00000  Uiso   1.00
O537   O     0.79375   0.89345   0.25000   0.00000  Uiso   1.00
O538   O     0.93149   0.88635   0.31441   0.00000  Uiso   1.00
O539   O     0.96941   0.76627   0.49025   0.00000  Uiso   1.00
O540   O     0.73905   0.82843   0.07245   0.00000  Uiso   1.00
O541   O     0.92275   0.95639   0.20748   0.00000  Uiso   1.00
O542   O     0.87294   0.89346   0.25000   0.00000  Uiso   1.00
O543   O     0.77441   0.83332   0.32549   0.00000  Uiso   1.00
O544   O     0.85360   0.83333   0.32549   0.00000  Uiso   1.00
O545   O     0.79373   0.77321   0.24999   0.00000  Uiso   1.00
O546   O     0.87292   0.77322   0.24999   0.00000  Uiso   1.00
O547   O     0.81306   0.83334   0.17451   0.00000  Uiso   1.00
O548   O     0.89225   0.83335   0.17451   0.00000  Uiso   1.00
O549   O     0.94444   0.77935   0.09458   0.00000  Uiso   1.00
C550   C     0.16701   0.24593   0.74906   0.00000  Uiso   1.00
C551   C     0.12348   0.16315   0.90850   0.00000  Uiso   1.00
C552   C     0.21276   0.31168   0.72774   0.00000  Uiso   1.00
C553   C     0.14016   0.16520   0.85040   0.00000  Uiso   1.00
C554   C     0.21225   0.02136   0.72834   0.00000  Uiso   1.00
C555   C     0.16754   0.04277   0.74772   0.00000  Uiso   1.00
C556   C     0.12321   0.02138   0.76553   0.00000  Uiso   1.00
C557   C     0.12337   0.31220   0.76537   0.00000  Uiso   1.00
C558   C     0.16786   0.29057   0.74725   0.00000  Uiso   1.00
C559   C     0.29901   0.19322   0.78221   0.00000  Uiso   1.00
C560   C     0.01575   0.19304   0.78204   0.00000  Uiso   1.00
C561   C     0.14264   0.15545   0.99109   0.00000  Uiso   1.00
C562   C     0.03396   0.14029   0.71823   0.00000  Uiso   1.00
C563   C     0.31789   0.14033   0.71827   0.00000  Uiso   1.00
C564   C     0.16692   0.08739   0.74924   0.00000  Uiso   1.00
C565   C     0.19304   0.16456   0.64968   0.00000  Uiso   1.00
C566   C     0.25876   0.11920   0.51465   0.00000  Uiso   1.00
C567   C     0.20791   0.15518   0.59275   0.00000  Uiso   1.00
C568   C     0.07784   0.18067   0.93676   0.00000  Uiso   1.00
C569   C     0.06235   0.18108   0.99143   0.00000  Uiso   1.00
C570   C     0.09336   0.16736   0.51911   0.00000  Uiso   1.00
C571   C     0.15406   0.14687   0.93654   0.00000  Uiso   1.00
C572   C     0.18019   0.15002   0.51530   0.00000  Uiso   1.00
C573   C     0.22313   0.12694   0.98881   0.00000  Uiso   1.00
C574   C     0.22766   0.11017   0.93878   0.00000  Uiso   1.00
C575   C     0.19415   0.12047   0.91274   0.00000  Uiso   1.00
C576   C     0.17715   0.16828   0.56423   0.00000  Uiso   1.00
C577   C     0.24828   0.12930   0.56792   0.00000  Uiso   1.00
Cu578  Cu    0.11978   0.16666   0.75000   0.00000  Uiso   1.00
Cu579  Cu    0.21355   0.16667   0.75000   0.00000  Uiso   1.00
F580   F     0.25511   0.04211   0.70899   0.00000  Uiso   1.00
F581   F     0.03063   0.21926   0.81384   0.00000  Uiso   1.00
F582   F     0.06630   0.11352   0.68637   0.00000  Uiso   1.00
F583   F     0.30427   0.11359   0.68648   0.00000  Uiso   1.00
F584   F     0.26327   0.08235   0.91523   0.00000  Uiso   1.00
F585   F     0.14517   0.19968   0.58408   0.00000  Uiso   1.00
F586   F     0.04740   0.19658   0.91163   0.00000  Uiso   1.00
F587   F     0.01620   0.19417   0.51796   0.00000  Uiso   1.00
F588   F     0.19818   0.10050   0.86671   0.00000  Uiso   1.00
H589   H     0.08844   0.03752   0.78047   0.00000  Uiso   1.00
H590   H     0.08869   0.29623   0.78029   0.00000  Uiso   1.00
H591   H     0.25552   0.10199   0.62803   0.00000  Uiso   1.00
H592   H     0.28074   0.23678   0.83535   0.00000  Uiso   1.00
H593   H     0.31649   0.11199   0.95504   0.00000  Uiso   1.00
H594   H     0.08949   0.13852   0.58313   0.00000  Uiso   1.00
H595   H     0.28417   0.30882   0.69555   0.00000  Uiso   1.00
N596   N     0.04931   0.16666   0.74999   0.00000  Uiso   1.00
N597   N     0.28402   0.16669   0.74999   0.00000  Uiso   1.00
O598   O     0.12708   0.22678   0.75000   0.00000  Uiso   1.00
O599   O     0.26482   0.21968   0.81441   0.00000  Uiso   1.00
O600   O     0.30274   0.09960   0.99025   0.00000  Uiso   1.00
O601   O     0.07238   0.16176   0.57245   0.00000  Uiso   1.00
O602   O     0.25608   0.28972   0.70748   0.00000  Uiso   1.00
O603   O     0.20627   0.22679   0.75000   0.00000  Uiso   1.00
O604   O     0.10775   0.16665   0.82549   0.00000  Uiso   1.00
O605   O     0.18694   0.16666   0.82549   0.00000  Uiso   1.00
O606   O     0.12706   0.10654   0.74999   0.00000  Uiso   1.00
O607   O     0.20625   0.10655   0.74999   0.00000  Uiso   1.00
O608   O     0.14640   0.16667   0.67451   0.00000  Uiso   1.00
O609   O     0.22559   0.16668   0.67451   0.00000  Uiso   1.00
O610   O     0.27777   0.11268   0.59458   0.00000  Uiso   1.00
C611   C     0.50034   0.24593   0.74906   0.00000  Uiso   1.00
C612   C     0.45681   0.16315   0.90850   0.00000  Uiso   1.00
C613   C     0.54609   0.31168   0.72774   0.00000  Uiso   1.00
C614   C     0.47350   0.16520   0.85040   0.00000  Uiso   1.00
C615   C     0.54559   0.02136   0.72834   0.00000  Uiso   1.00
C616   C     0.50088   0.04277   0.74772   0.00000  Uiso   1.00
C617   C     0.45654   0.02138   0.76553   0.00000  Uiso   1.00
C618   C     0.45671   0.31220   0.76537   0.00000  Uiso   1.00
C619   C     0.50119   0.29057   0.74725   0.00000  Uiso   1.00
C620   C     0.63234   0.19322   0.78221   0.00000  Uiso   1.00
C621   C     0.34908   0.19304   0.78204   0.00000  Uiso   1.00
C622   C     0.47597   0.15545   0.99109   0.00000  Uiso   1.00
C623   C     0.36730   0.14029   0.71823   0.00000  Uiso   1.00
C624   C     0.65122   0.14033   0.71827   0.00000  Uiso   1.00
C625   C     0.50025   0.08739   0.74924   0.00000  Uiso   1.00
C626   C     0.52637   0.16456   0.64968   0.00000  Uiso   1.00
C627   C     0.59210   0.11920   0.51465   0.00000  Uiso   1.00
C628   C     0.54124   0.15518   0.59275   0.00000  Uiso   1.00
C629   C     0.41117   0.18067   0.93676   0.00000  Uiso   1.00
C630   C     0.39569   0.18108   0.99143   0.00000  Uiso   1.00
C631   C     0.42669   0.16736   0.51911   0.00000  Uiso   1.00
C632   C     0.48739   0.14687   0.93654   0.00000  Uiso   1.00
C633   C     0.51352   0.15002   0.51530   0.00000  Uiso   1.00
C634   C     0.55646   0.12694   0.98881   0.00000  Uiso   1.00
C635   C     0.56100   0.11017   0.93878   0.00000  Uiso   1.00
C636   C     0.52748   0.12047   0.91274   0.00000  Uiso   1.00
C637   C     0.51048   0.16828   0.56423   0.00000  Uiso   1.00
C638   C     0.58161   0.12930   0.56792   0.00000  Uiso   1.00
Cu639  Cu    0.45311   0.16666   0.75000   0.00000  Uiso   1.00
Cu640  Cu    0.54689   0.16667   0.75000   0.00000  Uiso   1.00
F641   F     0.58844   0.04211   0.70899   0.00000  Uiso   1.00
F642   F     0.36396   0.21926   0.81384   0.00000  Uiso   1.00
F643   F     0.39963   0.11352   0.68637   0.00000  Uiso   1.00
F644   F     0.63760   0.11359   0.68648   0.00000  Uiso   1.00
F645   F     0.59660   0.08235   0.91523   0.00000  Uiso   1.00
F646   F     0.47850   0.19968   0.58408   0.00000  Uiso   1.00
F647   F     0.38073   0.19658   0.91163   0.00000  Uiso   1.00
F648   F     0.34954   0.19417   0.51796   0.00000  Uiso   1.00
F649   F     0.53151   0.10050   0.86671   0.00000  Uiso   1.00
H650   H     0.42178   0.03752   0.78047   0.00000  Uiso   1.00
H651   H     0.42202   0.29623   0.78029   0.00000  Uiso   1.00
H652   H     0.58885   0.10199   0.62803   0.00000  Uiso   1.00
H653   H     0.61408   0.23678   0.83535   0.00000  Uiso   1.00
H654   H     0.64982   0.11199   0.95504   0.00000  Uiso   1.00
H655   H     0.42282   0.13852   0.58313   0.00000  Uiso   1.00
H656   H     0.61751   0.30882   0.69555   0.00000  Uiso   1.00
N657   N     0.38265   0.16666   0.74999   0.00000  Uiso   1.00
N658   N     0.61735   0.16669   0.74999   0.00000  Uiso   1.00
O659   O     0.46042   0.22678   0.75000   0.00000  Uiso   1.00
O660   O     0.59816   0.21968   0.81441   0.00000  Uiso   1.00
O661   O     0.63607   0.09960   0.99025   0.00000  Uiso   1.00
O662   O     0.40572   0.16176   0.57245   0.00000  Uiso   1.00
O663   O     0.58941   0.28972   0.70748   0.00000  Uiso   1.00
O664   O     0.53961   0.22679   0.75000   0.00000  Uiso   1.00
O665   O     0.44108   0.16665   0.82549   0.00000  Uiso   1.00
O666   O     0.52027   0.16666   0.82549   0.00000  Uiso   1.00
O667   O     0.46039   0.10654   0.74999   0.00000  Uiso   1.00
O668   O     0.53958   0.10655   0.74999   0.00000  Uiso   1.00
O669   O     0.47973   0.16667   0.67451   0.00000  Uiso   1.00
O670   O     0.55892   0.16668   0.67451   0.00000  Uiso   1.00
O671   O     0.61110   0.11268   0.59458   0.00000  Uiso   1.00
C672   C     0.83368   0.24593   0.74906   0.00000  Uiso   1.00
C673   C     0.79014   0.16315   0.90850   0.00000  Uiso   1.00
C674   C     0.87942   0.31168   0.72774   0.00000  Uiso   1.00
C675   C     0.80683   0.16520   0.85040   0.00000  Uiso   1.00
C676   C     0.87892   0.02136   0.72834   0.00000  Uiso   1.00
C677   C     0.83421   0.04277   0.74772   0.00000  Uiso   1.00
C678   C     0.78988   0.02138   0.76553   0.00000  Uiso   1.00
C679   C     0.79004   0.31220   0.76537   0.00000  Uiso   1.00
C680   C     0.83452   0.29057   0.74725   0.00000  Uiso   1.00
C681   C     0.96568   0.19322   0.78221   0.00000  Uiso   1.00
C682   C     0.68242   0.19304   0.78204   0.00000  Uiso   1.00
C683   C     0.80931   0.15545   0.99109   0.00000  Uiso   1.00
C684   C     0.70063   0.14029   0.71823   0.00000  Uiso   1.00
C685   C     0.98455   0.14033   0.71827   0.00000  Uiso   1.00
C686   C     0.83359   0.08739   0.74924   0.00000  Uiso   1.00
C687   C     0.85970   0.16456   0.64968   0.00000  Uiso   1.00
C688   C     0.92543   0.11920   0.51465   0.00000  Uiso   1.00
C689   C     0.87458   0.15518   0.59275   0.00000  Uiso   1.00
C690   C     0.74450   0.18067   0.93676   0.00000  Uiso   1.00
C691   C     0.72902   0.18108   0.99143   0.00000  Uiso   1.00
C692   C     0.76002   0.16736   0.51911   0.00000  Uiso   1.00
C693   C     0.82072   0.14687   0.93654   0.00000  Uiso   1.00
C694   C     0.84685   0.15002   0.51530   0.00000  Uiso   1.00
C695   C     0.88979   0.12694   0.98881   0.00000  Uiso   1.00
C696   C     0.89433   0.11017   0.93878   0.00000  Uiso   1.00
C697   C     0.86081   0.12047   0.91274   0.00000  Uiso   1.00
C698   C     0.84381   0.16828   0.56423   0.00000  Uiso   1.00
C699   C     0.91495   0.12930   0.56792   0.00000  Uiso   1.00
Cu700  Cu    0.78645   0.16666   0.75000   0.00000  Uiso   1.00
Cu701  Cu    0.88022   0.16667   0.75000   0.00000  Uiso   1.00
F702   F     0.92178   0.04211   0.70899   0.00000  Uiso   1.00
F703   F     0.69730   0.21926   0.81384   0.00000  Uiso   1.00
F704   F     0.73296   0.11352   0.68637   0.00000  Uiso   1.00
F705   F     0.97094   0.11359   0.68648   0.00000  Uiso   1.00
F706   F     0.92993   0.08235   0.91523   0.00000  Uiso   1.00
F707   F     0.81183   0.19968   0.58408   0.00000  Uiso   1.00
F708   F     0.71406   0.19658   0.91163   0.00000  Uiso   1.00
F709   F     0.68287   0.19417   0.51796   0.00000  Uiso   1.00
F710   F     0.86484   0.10050   0.86671   0.00000  Uiso   1.00
H711   H     0.75511   0.03752   0.78047   0.00000  Uiso   1.00
H712   H     0.75535   0.29623   0.78029   0.00000  Uiso   1.00
H713   H     0.92219   0.10199   0.62803   0.00000  Uiso   1.00
H714   H     0.94741   0.23678   0.83535   0.00000  Uiso   1.00
H715   H     0.98316   0.11199   0.95504   0.00000  Uiso   1.00
H716   H     0.75615   0.13852   0.58313   0.00000  Uiso   1.00
H717   H     0.95084   0.30882   0.69555   0.00000  Uiso   1.00
N718   N     0.71598   0.16666   0.74999   0.00000  Uiso   1.00
N719   N     0.95069   0.16669   0.74999   0.00000  Uiso   1.00
O720   O     0.79375   0.22678   0.75000   0.00000  Uiso   1.00
O721   O     0.93149   0.21968   0.81441   0.00000  Uiso   1.00
O722   O     0.96941   0.09960   0.99025   0.00000  Uiso   1.00
O723   O     0.73905   0.16176   0.57245   0.00000  Uiso   1.00
O724   O     0.92275   0.28972   0.70748   0.00000  Uiso   1.00
O725   O     0.87294   0.22679   0.75000   0.00000  Uiso   1.00
O726   O     0.77441   0.16665   0.82549   0.00000  Uiso   1.00
O727   O     0.85360   0.16666   0.82549   0.00000  Uiso   1.00
O728   O     0.79373   0.10654   0.74999   0.00000  Uiso   1.00
O729   O     0.87292   0.10655   0.74999   0.00000  Uiso   1.00
O730   O     0.81306   0.16667   0.67451   0.00000  Uiso   1.00
O731   O     0.89225   0.16668   0.67451   0.00000  Uiso   1.00
O732   O     0.94444   0.11268   0.59458   0.00000  Uiso   1.00
C733   C     0.16701   0.57927   0.74906   0.00000  Uiso   1.00
C734   C     0.12348   0.49648   0.90850   0.00000  Uiso   1.00
C735   C     0.21276   0.64501   0.72774   0.00000  Uiso   1.00
C736   C     0.14016   0.49854   0.85040   0.00000  Uiso   1.00
C737   C     0.21225   0.35469   0.72834   0.00000  Uiso   1.00
C738   C     0.16754   0.37610   0.74772   0.00000  Uiso   1.00
C739   C     0.12321   0.35471   0.76553   0.00000  Uiso   1.00
C740   C     0.12337   0.64553   0.76537   0.00000  Uiso   1.00
C741   C     0.16786   0.62390   0.74725   0.00000  Uiso   1.00
C742   C     0.29901   0.52655   0.78221   0.00000  Uiso   1.00
C743   C     0.01575   0.52637   0.78204   0.00000  Uiso   1.00
C744   C     0.14264   0.48879   0.99109   0.00000  Uiso   1.00
C745   C     0.03396   0.47362   0.71823   0.00000  Uiso   1.00
C746   C     0.31789   0.47366   0.71827   0.00000  Uiso   1.00
C747   C     0.16692   0.42072   0.74924   0.00000  Uiso   1.00
C748   C     0.19304   0.49790   0.64968   0.00000  Uiso   1.00
C749   C     0.25876   0.45253   0.51465   0.00000  Uiso   1.00
C750   C     0.20791   0.48852   0.59275   0.00000  Uiso   1.00
C751   C     0.07784   0.51400   0.93676   0.00000  Uiso   1.00
C752   C     0.06235   0.51442   0.99143   0.00000  Uiso   1.00
C753   C     0.09336   0.50069   0.51911   0.00000  Uiso   1.00
C754   C     0.15406   0.48020   0.93654   0.00000  Uiso   1.00
C755   C     0.18019   0.48335   0.51530   0.00000  Uiso   1.00
C756   C     0.22313   0.46027   0.98881   0.00000  Uiso   1.00
C757   C     0.22766   0.44350   0.93878   0.00000  Uiso   1.00
C758   C     0.19415   0.45380   0.91274   0.00000  Uiso   1.00
C759   C     0.17715   0.50161   0.56423   0.00000  Uiso   1.00
C760   C     0.24828   0.46263   0.56792   0.00000  Uiso   1.00
Cu761  Cu    0.11978   0.49999   0.75000   0.00000  Uiso   1.00
Cu762  Cu    0.21355   0.50001   0.75000   0.00000  Uiso   1.00
F763   F     0.25511   0.37544   0.70899   0.00000  Uiso   1.00
F764   F     0.03063   0.55259   0.81384   0.00000  Uiso   1.00
F765   F     0.06630   0.44685   0.68637   0.00000  Uiso   1.00
F766   F     0.30427   0.44692   0.68648   0.00000  Uiso   1.00
F767   F     0.26327   0.41568   0.91523   0.00000  Uiso   1.00
F768   F     0.14517   0.53302   0.58408   0.00000  Uiso   1.00
F769   F     0.04740   0.52991   0.91163   0.00000  Uiso   1.00
F770   F     0.01620   0.52750   0.51796   0.00000  Uiso   1.00
F771   F     0.19818   0.43383   0.86671   0.00000  Uiso   1.00
H772   H     0.08844   0.37086   0.78047   0.00000  Uiso   1.00
H773   H     0.08869   0.62956   0.78029   0.00000  Uiso   1.00
H774   H     0.25552   0.43532   0.62803   0.00000  Uiso   1.00
H775   H     0.28074   0.57012   0.83535   0.00000  Uiso   1.00
H776   H     0.31649   0.44532   0.95504   0.00000  Uiso   1.00
H777   H     0.08949   0.47185   0.58313   0.00000  Uiso   1.00
H778   H     0.28417   0.64215   0.69555   0.00000  Uiso   1.00
N779   N     0.04931   0.49999   0.74999   0.00000  Uiso   1.00
N780   N     0.28402   0.50002   0.74999   0.00000  Uiso   1.00
O781   O     0.12708   0.56011   0.75000   0.00000  Uiso   1.00
O782   O     0.26482   0.55302   0.81441   0.00000  Uiso   1.00
O783   O     0.30274   0.43293   0.99025   0.00000  Uiso   1.00
O784   O     0.07238   0.49510   0.57245   0.00000  Uiso   1.00
O785   O     0.25608   0.62306   0.70748   0.00000  Uiso   1.00
O786   O     0.20627   0.56012   0.75000   0.00000  Uiso   1.00
O787   O     0.10775   0.49998   0.82549   0.00000  Uiso   1.00
O788   O     0.18694   0.49999   0.82549   0.00000  Uiso   1.00
O789   O     0.12706   0.43988   0.74999   0.00000  Uiso   1.00
O790   O     0.20625   0.43989   0.74999   0.00000  Uiso   1.00
O791   O     0.14640   0.50001   0.67451   0.00000  Uiso   1.00
O792   O     0.22559   0.50002   0.67451   0.00000  Uiso   1.00
O793   O     0.27777   0.44601   0.59458   0.00000  Uiso   1.00
C794   C     0.50034   0.57927   0.74906   0.00000  Uiso   1.00
C795   C     0.45681   0.49648   0.90850   0.00000  Uiso   1.00
C796   C     0.54609   0.64501   0.72774   0.00000  Uiso   1.00
C797   C     0.47350   0.49854   0.85040   0.00000  Uiso   1.00
C798   C     0.54559   0.35469   0.72834   0.00000  Uiso   1.00
C799   C     0.50088   0.37610   0.74772   0.00000  Uiso   1.00
C800   C     0.45654   0.35471   0.76553   0.00000  Uiso   1.00
C801   C     0.45671   0.64553   0.76537   0.00000  Uiso   1.00
C802   C     0.50119   0.62390   0.74725   0.00000  Uiso   1.00
C803   C     0.63234   0.52655   0.78221   0.00000  Uiso   1.00
C804   C     0.34908   0.52637   0.78204   0.00000  Uiso   1.00
C805   C     0.47597   0.48879   0.99109   0.00000  Uiso   1.00
C806   C     0.36730   0.47362   0.71823   0.00000  Uiso   1.00
C807   C     0.65122   0.47366   0.71827   0.00000  Uiso   1.00
C808   C     0.50025   0.42072   0.74924   0.00000  Uiso   1.00
C809   C     0.52637   0.49790   0.64968   0.00000  Uiso   1.00
C810   C     0.59210   0.45253   0.51465   0.00000  Uiso   1.00
C811   C     0.54124   0.48852   0.59275   0.00000  Uiso   1.00
C812   C     0.41117   0.51400   0.93676   0.00000  Uiso   1.00
C813   C     0.39569   0.51442   0.99143   0.00000  Uiso   1.00
C814   C     0.42669   0.50069   0.51911   0.00000  Uiso   1.00
C815   C     0.48739   0.48020   0.93654   0.00000  Uiso   1.00
C816   C     0.51352   0.48335   0.51530   0.00000  Uiso   1.00
C817   C     0.55646   0.46027   0.98881   0.00000  Uiso   1.00
C818   C     0.56100   0.44350   0.93878   0.00000  Uiso   1.00
C819   C     0.52748   0.45380   0.91274   0.00000  Uiso   1.00
C820   C     0.51048   0.50161   0.56423   0.00000  Uiso   1.00
C821   C     0.58161   0.46263   0.56792   0.00000  Uiso   1.00
Cu822  Cu    0.45311   0.49999   0.75000   0.00000  Uiso   1.00
Cu823  Cu    0.54689   0.50001   0.75000   0.00000  Uiso   1.00
F824   F     0.58844   0.37544   0.70899   0.00000  Uiso   1.00
F825   F     0.36396   0.55259   0.81384   0.00000  Uiso   1.00
F826   F     0.39963   0.44685   0.68637   0.00000  Uiso   1.00
F827   F     0.63760   0.44692   0.68648   0.00000  Uiso   1.00
F828   F     0.59660   0.41568   0.91523   0.00000  Uiso   1.00
F829   F     0.47850   0.53302   0.58408   0.00000  Uiso   1.00
F830   F     0.38073   0.52991   0.91163   0.00000  Uiso   1.00
F831   F     0.34954   0.52750   0.51796   0.00000  Uiso   1.00
F832   F     0.53151   0.43383   0.86671   0.00000  Uiso   1.00
H833   H     0.42178   0.37086   0.78047   0.00000  Uiso   1.00
H834   H     0.42202   0.62956   0.78029   0.00000  Uiso   1.00
H835   H     0.58885   0.43532   0.62803   0.00000  Uiso   1.00
H836   H     0.61408   0.57012   0.83535   0.00000  Uiso   1.00
H837   H     0.64982   0.44532   0.95504   0.00000  Uiso   1.00
H838   H     0.42282   0.47185   0.58313   0.00000  Uiso   1.00
H839   H     0.61751   0.64215   0.69555   0.00000  Uiso   1.00
N840   N     0.38265   0.49999   0.74999   0.00000  Uiso   1.00
N841   N     0.61735   0.50002   0.74999   0.00000  Uiso   1.00
O842   O     0.46042   0.56011   0.75000   0.00000  Uiso   1.00
O843   O     0.59816   0.55302   0.81441   0.00000  Uiso   1.00
O844   O     0.63607   0.43293   0.99025   0.00000  Uiso   1.00
O845   O     0.40572   0.49510   0.57245   0.00000  Uiso   1.00
O846   O     0.58941   0.62306   0.70748   0.00000  Uiso   1.00
O847   O     0.53961   0.56012   0.75000   0.00000  Uiso   1.00
O848   O     0.44108   0.49998   0.82549   0.00000  Uiso   1.00
O849   O     0.52027   0.49999   0.82549   0.00000  Uiso   1.00
O850   O     0.46039   0.43988   0.74999   0.00000  Uiso   1.00
O851   O     0.53958   0.43989   0.74999   0.00000  Uiso   1.00
O852   O     0.47973   0.50001   0.67451   0.00000  Uiso   1.00
O853   O     0.55892   0.50002   0.67451   0.00000  Uiso   1.00
O854   O     0.61110   0.44601   0.59458   0.00000  Uiso   1.00
C855   C     0.83368   0.57927   0.74906   0.00000  Uiso   1.00
C856   C     0.79014   0.49648   0.90850   0.00000  Uiso   1.00
C857   C     0.87942   0.64501   0.72774   0.00000  Uiso   1.00
C858   C     0.80683   0.49854   0.85040   0.00000  Uiso   1.00
C859   C     0.87892   0.35469   0.72834   0.00000  Uiso   1.00
C860   C     0.83421   0.37610   0.74772   0.00000  Uiso   1.00
C861   C     0.78988   0.35471   0.76553   0.00000  Uiso   1.00
C862   C     0.79004   0.64553   0.76537   0.00000  Uiso   1.00
C863   C     0.83452   0.62390   0.74725   0.00000  Uiso   1.00
C864   C     0.96568   0.52655   0.78221   0.00000  Uiso   1.00
C865   C     0.68242   0.52637   0.78204   0.00000  Uiso   1.00
C866   C     0.80931   0.48879   0.99109   0.00000  Uiso   1.00
C867   C     0.70063   0.47362   0.71823   0.00000  Uiso   1.00
C868   C     0.98455   0.47366   0.71827   0.00000  Uiso   1.00
C869   C     0.83359   0.42072   0.74924   0.00000  Uiso   1.00
C870   C     0.85970   0.49790   0.64968   0.00000  Uiso   1.00
C871   C     0.92543   0.45253   0.51465   0.00000  Uiso   1.00
C872   C     0.87458   0.48852   0.59275   0.00000  Uiso   1.00
C873   C     0.74450   0.51400   0.93676   0.00000  Uiso   1.00
C874   C     0.72902   0.51442   0.99143   0.00000  Uiso   1.00
C875   C     0.76002   0.50069   0.51911   0.00000  Uiso   1.00
C876   C     0.82072   0.48020   0.93654   0.00000  Uiso   1.00
C877   C     0.84685   0.48335   0.51530   0.00000  Uiso   1.00
C878   C     0.88979   0.46027   0.98881   0.00000  Uiso   1.00
C879   C     0.89433   0.44350   0.93878   0.00000  Uiso   1.00
C880   C     0.86081   0.45380   0.91274   0.00000  Uiso   1.00
C881   C     0.84381   0.50161   0.56423   0.00000  Uiso   1.00
C882   C     0.91495   0.46263   0.56792   0.00000  Uiso   1.00
Cu883  Cu    0.78645   0.49999   0.75000   0.00000  Uiso   1.00
Cu884  Cu    0.88022   0.50001   0.75000   0.00000  Uiso   1.00
F885   F     0.92178   0.37544   0.70899   0.00000  Uiso   1.00
F886   F     0.69730   0.55259   0.81384   0.00000  Uiso   1.00
F887   F     0.73296   0.44685   0.68637   0.00000  Uiso   1.00
F888   F     0.97094   0.44692   0.68648   0.00000  Uiso   1.00
F889   F     0.92993   0.41568   0.91523   0.00000  Uiso   1.00
F890   F     0.81183   0.53302   0.58408   0.00000  Uiso   1.00
F891   F     0.71406   0.52991   0.91163   0.00000  Uiso   1.00
F892   F     0.68287   0.52750   0.51796   0.00000  Uiso   1.00
F893   F     0.86484   0.43383   0.86671   0.00000  Uiso   1.00
H894   H     0.75511   0.37086   0.78047   0.00000  Uiso   1.00
H895   H     0.75535   0.62956   0.78029   0.00000  Uiso   1.00
H896   H     0.92219   0.43532   0.62803   0.00000  Uiso   1.00
H897   H     0.94741   0.57012   0.83535   0.00000  Uiso   1.00
H898   H     0.98316   0.44532   0.95504   0.00000  Uiso   1.00
H899   H     0.75615   0.47185   0.58313   0.00000  Uiso   1.00
H900   H     0.95084   0.64215   0.69555   0.00000  Uiso   1.00
N901   N     0.71598   0.49999   0.74999   0.00000  Uiso   1.00
N902   N     0.95069   0.50002   0.74999   0.00000  Uiso   1.00
O903   O     0.79375   0.56011   0.75000   0.00000  Uiso   1.00
O904   O     0.93149   0.55302   0.81441   0.00000  Uiso   1.00
O905   O     0.96941   0.43293   0.99025   0.00000  Uiso   1.00
O906   O     0.73905   0.49510   0.57245   0.00000  Uiso   1.00
O907   O     0.92275   0.62306   0.70748   0.00000  Uiso   1.00
O908   O     0.87294   0.56012   0.75000   0.00000  Uiso   1.00
O909   O     0.77441   0.49998   0.82549   0.00000  Uiso   1.00
O910   O     0.85360   0.49999   0.82549   0.00000  Uiso   1.00
O911   O     0.79373   0.43988   0.74999   0.00000  Uiso   1.00
O912   O     0.87292   0.43989   0.74999   0.00000  Uiso   1.00
O913   O     0.81306   0.50001   0.67451   0.00000  Uiso   1.00
O914   O     0.89225   0.50002   0.67451   0.00000  Uiso   1.00
O915   O     0.94444   0.44601   0.59458   0.00000  Uiso   1.00
C916   C     0.16701   0.91260   0.74906   0.00000  Uiso   1.00
C917   C     0.12348   0.82982   0.90850   0.00000  Uiso   1.00
C918   C     0.21276   0.97835   0.72774   0.00000  Uiso   1.00
C919   C     0.14016   0.83187   0.85040   0.00000  Uiso   1.00
C920   C     0.21225   0.68802   0.72834   0.00000  Uiso   1.00
C921   C     0.16754   0.70943   0.74772   0.00000  Uiso   1.00
C922   C     0.12321   0.68805   0.76553   0.00000  Uiso   1.00
C923   C     0.12337   0.97886   0.76537   0.00000  Uiso   1.00
C924   C     0.16786   0.95723   0.74725   0.00000  Uiso   1.00
C925   C     0.29901   0.85988   0.78221   0.00000  Uiso   1.00
C926   C     0.01575   0.85970   0.78204   0.00000  Uiso   1.00
C927   C     0.14264   0.82212   0.99109   0.00000  Uiso   1.00
C928   C     0.03396   0.80696   0.71823   0.00000  Uiso   1.00
C929   C     0.31789   0.80699   0.71827   0.00000  Uiso   1.00
C930   C     0.16692   0.75405   0.74924   0.00000  Uiso   1.00
C931   C     0.19304   0.83123   0.64968   0.00000  Uiso   1.00
C932   C     0.25876   0.78586   0.51465   0.00000  Uiso   1.00
C933   C     0.20791   0.82185   0.59275   0.00000  Uiso   1.00
C934   C     0.07784   0.84733   0.93676   0.00000  Uiso   1.00
C935   C     0.06235   0.84775   0.99143   0.00000  Uiso   1.00
C936   C     0.09336   0.83403   0.51911   0.00000  Uiso   1.00
C937   C     0.15406   0.81353   0.93654   0.00000  Uiso   1.00
C938   C     0.18019   0.81668   0.51530   0.00000  Uiso   1.00
C939   C     0.22313   0.79360   0.98881   0.00000  Uiso   1.00
C940   C     0.22766   0.77683   0.93878   0.00000  Uiso   1.00
C941   C     0.19415   0.78714   0.91274   0.00000  Uiso   1.00
C942   C     0.17715   0.83494   0.56423   0.00000  Uiso   1.00
C943   C     0.24828   0.79596   0.56792   0.00000  Uiso   1.00
Cu944  Cu    0.11978   0.83333   0.75000   0.00000  Uiso   1.00
Cu945  Cu    0.21355   0.83334   0.75000   0.00000  Uiso   1.00
F946   F     0.25511   0.70878   0.70899   0.00000  Uiso   1.00
F947   F     0.03063   0.88593   0.81384   0.00000  Uiso   1.00
F948   F     0.06630   0.78018   0.68637   0.00000  Uiso   1.00
F949   F     0.30427   0.78026   0.68648   0.00000  Uiso   1.00
F950   F     0.26327   0.74901   0.91523   0.00000  Uiso   1.00
F951   F     0.14517   0.86635   0.58408   0.00000  Uiso   1.00
F952   F     0.04740   0.86325   0.91163   0.00000  Uiso   1.00
F953   F     0.01620   0.86083   0.51796   0.00000  Uiso   1.00
F954   F     0.19818   0.76716   0.86671   0.00000  Uiso   1.00
H955   H     0.08844   0.70419   0.78047   0.00000  Uiso   1.00
H956   H     0.08869   0.96290   0.78029   0.00000  Uiso   1.00
H957   H     0.25552   0.76865   0.62803   0.00000  Uiso   1.00
H958   H     0.28074   0.90345   0.83535   0.00000  Uiso   1.00
H959   H     0.31649   0.77865   0.95504   0.00000  Uiso   1.00
H960   H     0.08949   0.80518   0.58313   0.00000  Uiso   1.00
H961   H     0.28417   0.97548   0.69555   0.00000  Uiso   1.00
N962   N     0.04931   0.83332   0.74999   0.00000  Uiso   1.00
N963   N     0.28402   0.83335   0.74999   0.00000  Uiso   1.00
O964   O     0.12708   0.89345   0.75000   0.00000  Uiso   1.00
O965   O     0.26482   0.88635   0.81441   0.00000  Uiso   1.00
O966   O     0.30274   0.76627   0.99025   0.00000  Uiso   1.00
O967   O     0.07238   0.82843   0.57245   0.00000  Uiso   1.00
O968   O     0.25608   0.95639   0.70748   0.00000  Uiso   1.00
O969   O     0.20627   0.89346   0.75000   0.00000  Uiso   1.00
O970   O     0.10775   0.83332   0.82549   0.00000  Uiso   1.00
O971   O     0.18694   0.83333   0.82549   0.00000  Uiso   1.00
O972   O     0.12706   0.77321   0.74999   0.00000  Uiso   1.00
O973   O     0.20625   0.77322   0.74999   0.00000  Uiso   1.00
O974   O     0.14640   0.83334   0.67451   0.00000  Uiso   1.00
O975   O     0.22559   0.83335   0.67451   0.00000  Uiso   1.00
O976   O     0.27777   0.77935   0.59458   0.00000  Uiso   1.00
C977   C     0.50034   0.91260   0.74906   0.00000  Uiso   1.00
C978   C     0.45681   0.82982   0.90850   0.00000  Uiso   1.00
C979   C     0.54609   0.97835   0.72774   0.00000  Uiso   1.00
C980   C     0.47350   0.83187   0.85040   0.00000  Uiso   1.00
C981   C     0.54559   0.68802   0.72834   0.00000  Uiso   1.00
C982   C     0.50088   0.70943   0.74772   0.00000  Uiso   1.00
C983   C     0.45654   0.68805   0.76553   0.00000  Uiso   1.00
C984   C     0.45671   0.97886   0.76537   0.00000  Uiso   1.00
C985   C     0.50119   0.95723   0.74725   0.00000  Uiso   1.00
C986   C     0.63234   0.85988   0.78221   0.00000  Uiso   1.00
C987   C     0.34908   0.85970   0.78204   0.00000  Uiso   1.00
C988   C     0.47597   0.82212   0.99109   0.00000  Uiso   1.00
C989   C     0.36730   0.80696   0.71823   0.00000  Uiso   1.00
C990   C     0.65122   0.80699   0.71827   0.00000  Uiso   1.00
C991   C     0.50025   0.75405   0.74924   0.00000  Uiso   1.00
C992   C     0.52637   0.83123   0.64968   0.00000  Uiso   1.00
C993   C     0.59210   0.78586   0.51465   0.00000  Uiso   1.00
C994   C     0.54124   0.82185   0.59275   0.00000  Uiso   1.00
C995   C     0.41117   0.84733   0.93676   0.00000  Uiso   1.00
C996   C     0.39569   0.84775   0.99143   0.00000  Uiso   1.00
C997   C     0.42669   0.83403   0.51911   0.00000  Uiso   1.00
C998   C     0.48739   0.81353   0.93654   0.00000  Uiso   1.00
C999   C     0.51352   0.81668   0.51530   0.00000  Uiso   1.00
C1000  C     0.55646   0.79360   0.98881   0.00000  Uiso   1.00
C1001  C     0.56100   0.77683   0.93878   0.00000  Uiso   1.00
C1002  C     0.52748   0.78714   0.91274   0.00000  Uiso   1.00
C1003  C     0.51048   0.83494   0.56423   0.00000  Uiso   1.00
C1004  C     0.58161   0.79596   0.56792   0.00000  Uiso   1.00
Cu1005 Cu    0.45311   0.83333   0.75000   0.00000  Uiso   1.00
Cu1006 Cu    0.54689   0.83334   0.75000   0.00000  Uiso   1.00
F1007  F     0.58844   0.70878   0.70899   0.00000  Uiso   1.00
F1008  F     0.36396   0.88593   0.81384   0.00000  Uiso   1.00
F1009  F     0.39963   0.78018   0.68637   0.00000  Uiso   1.00
F1010  F     0.63760   0.78026   0.68648   0.00000  Uiso   1.00
F1011  F     0.59660   0.74901   0.91523   0.00000  Uiso   1.00
F1012  F     0.47850   0.86635   0.58408   0.00000  Uiso   1.00
F1013  F     0.38073   0.86325   0.91163   0.00000  Uiso   1.00
F1014  F     0.34954   0.86083   0.51796   0.00000  Uiso   1.00
F1015  F     0.53151   0.76716   0.86671   0.00000  Uiso   1.00
H1016  H     0.42178   0.70419   0.78047   0.00000  Uiso   1.00
H1017  H     0.42202   0.96290   0.78029   0.00000  Uiso   1.00
H1018  H     0.58885   0.76865   0.62803   0.00000  Uiso   1.00
H1019  H     0.61408   0.90345   0.83535   0.00000  Uiso   1.00
H1020  H     0.64982   0.77865   0.95504   0.00000  Uiso   1.00
H1021  H     0.42282   0.80518   0.58313   0.00000  Uiso   1.00
H1022  H     0.61751   0.97548   0.69555   0.00000  Uiso   1.00
N1023  N     0.38265   0.83332   0.74999   0.00000  Uiso   1.00
N1024  N     0.61735   0.83335   0.74999   0.00000  Uiso   1.00
O1025  O     0.46042   0.89345   0.75000   0.00000  Uiso   1.00
O1026  O     0.59816   0.88635   0.81441   0.00000  Uiso   1.00
O1027  O     0.63607   0.76627   0.99025   0.00000  Uiso   1.00
O1028  O     0.40572   0.82843   0.57245   0.00000  Uiso   1.00
O1029  O     0.58941   0.95639   0.70748   0.00000  Uiso   1.00
O1030  O     0.53961   0.89346   0.75000   0.00000  Uiso   1.00
O1031  O     0.44108   0.83332   0.82549   0.00000  Uiso   1.00
O1032  O     0.52027   0.83333   0.82549   0.00000  Uiso   1.00
O1033  O     0.46039   0.77321   0.74999   0.00000  Uiso   1.00
O1034  O     0.53958   0.77322   0.74999   0.00000  Uiso   1.00
O1035  O     0.47973   0.83334   0.67451   0.00000  Uiso   1.00
O1036  O     0.55892   0.83335   0.67451   0.00000  Uiso   1.00
O1037  O     0.61110   0.77935   0.59458   0.00000  Uiso   1.00
C1038  C     0.83368   0.91260   0.74906   0.00000  Uiso   1.00
C1039  C     0.79014   0.82982   0.90850   0.00000  Uiso   1.00
C1040  C     0.87942   0.97835   0.72774   0.00000  Uiso   1.00
C1041  C     0.80683   0.83187   0.85040   0.00000  Uiso   1.00
C1042  C     0.87892   0.68802   0.72834   0.00000  Uiso   1.00
C1043  C     0.83421   0.70943   0.74772   0.00000  Uiso   1.00
C1044  C     0.78988   0.68805   0.76553   0.00000  Uiso   1.00
C1045  C     0.79004   0.97886   0.76537   0.00000  Uiso   1.00
C1046  C     0.83452   0.95723   0.74725   0.00000  Uiso   1.00
C1047  C     0.96568   0.85988   0.78221   0.00000  Uiso   1.00
C1048  C     0.68242   0.85970   0.78204   0.00000  Uiso   1.00
C1049  C     0.80931   0.82212   0.99109   0.00000  Uiso   1.00
C1050  C     0.70063   0.80696   0.71823   0.00000  Uiso   1.00
C1051  C     0.98455   0.80699   0.71827   0.00000  Uiso   1.00
C1052  C     0.83359   0.75405   0.74924   0.00000  Uiso   1.00
C1053  C     0.85970   0.83123   0.64968   0.00000  Uiso   1.00
C1054  C     0.92543   0.78586   0.51465   0.00000  Uiso   1.00
C1055  C     0.87458   0.82185   0.59275   0.00000  Uiso   1.00
C1056  C     0.74450   0.84733   0.93676   0.00000  Uiso   1.00
C1057  C     0.72902   0.84775   0.99143   0.00000  Uiso   1.00
C1058  C     0.76002   0.83403   0.51911   0.00000  Uiso   1.00
C1059  C     0.82072   0.81353   0.93654   0.00000  Uiso   1.00
C1060  C     0.84685   0.81668   0.51530   0.00000  Uiso   1.00
C1061  C     0.88979   0.79360   0.98881   0.00000  Uiso   1.00
C1062  C     0.89433   0.77683   0.93878   0.00000  Uiso   1.00
C1063  C     0.86081   0.78714   0.91274   0.00000  Uiso   1.00
C1064  C     0.84381   0.83494   0.56423   0.00000  Uiso   1.00
C1065  C     0.91495   0.79596   0.56792   0.00000  Uiso   1.00
Cu1066 Cu    0.78645   0.83333   0.75000   0.00000  Uiso   1.00
Cu1067 Cu    0.88022   0.83334   0.75000   0.00000  Uiso   1.00
F1068  F     0.92178   0.70878   0.70899   0.00000  Uiso   1.00
F1069  F     0.69730   0.88593   0.81384   0.00000  Uiso   1.00
F1070  F     0.73296   0.78018   0.68637   0.00000  Uiso   1.00
F1071  F     0.97094   0.78026   0.68648   0.00000  Uiso   1.00
F1072  F     0.92993   0.74901   0.91523   0.00000  Uiso   1.00
F1073  F     0.81183   0.86635   0.58408   0.00000  Uiso   1.00
F1074  F     0.71406   0.86325   0.91163   0.00000  Uiso   1.00
F1075  F     0.68287   0.86083   0.51796   0.00000  Uiso   1.00
F1076  F     0.86484   0.76716   0.86671   0.00000  Uiso   1.00
H1077  H     0.75511   0.70419   0.78047   0.00000  Uiso   1.00
H1078  H     0.75535   0.96290   0.78029   0.00000  Uiso   1.00
H1079  H     0.92219   0.76865   0.62803   0.00000  Uiso   1.00
H1080  H     0.94741   0.90345   0.83535   0.00000  Uiso   1.00
H1081  H     0.98316   0.77865   0.95504   0.00000  Uiso   1.00
H1082  H     0.75615   0.80518   0.58313   0.00000  Uiso   1.00
H1083  H     0.95084   0.97548   0.69555   0.00000  Uiso   1.00
N1084  N     0.71598   0.83332   0.74999   0.00000  Uiso   1.00
N1085  N     0.95069   0.83335   0.74999   0.00000  Uiso   1.00
O1086  O     0.79375   0.89345   0.75000   0.00000  Uiso   1.00
O1087  O     0.93149   0.88635   0.81441   0.00000  Uiso   1.00
O1088  O     0.96941   0.76627   0.99025   0.00000  Uiso   1.00
O1089  O     0.73905   0.82843   0.57245   0.00000  Uiso   1.00
O1090  O     0.92275   0.95639   0.70748   0.00000  Uiso   1.00
O1091  O     0.87294   0.89346   0.75000   0.00000  Uiso   1.00
O1092  O     0.77441   0.83332   0.82549   0.00000  Uiso   1.00
O1093  O     0.85360   0.83333   0.82549   0.00000  Uiso   1.00
O1094  O     0.79373   0.77321   0.74999   0.00000  Uiso   1.00
O1095  O     0.87292   0.77322   0.74999   0.00000  Uiso   1.00
O1096  O     0.81306   0.83334   0.67451   0.00000  Uiso   1.00
O1097  O     0.89225   0.83335   0.67451   0.00000  Uiso   1.00
O1098  O     0.94444   0.77935   0.59458   0.00000  Uiso   1.00
loop_
_geom_bond_atom_site_label_1
_geom_bond_atom_site_label_2
_geom_bond_distance
_geom_bond_site_symmetry_2
_ccdc_geom_bond_type
C1     O54     1.291   .     A
C1     C9      1.453   .     S
C1     O49     1.295   .     A
C2     C4      1.479   .     S
C2     C22     1.421   .     A
C2     C19     1.408   .     A
C3     C9      1.410   .     A
C3     O53     1.384   .     S
C3     C188    1.399   .     S
C4     O56     1.299   .     A
C4     O55     1.298   .     A
C5     C6      1.404   .     A
C5     F31     1.358   .     S
C5     C369    1.399   1_545 S
C6     C7      1.398   .     A
C6     C15     1.451   .     S
C7     H40     1.084   .     S
C7     C374    1.382   1_545 S
C8     H41     1.084   .     S
C8     C9      1.400   .     A
C8     C190    1.382   .     S
C10    N48     1.372   .     A
C10    O50     1.379   .     S
C10    C72     1.431   .     S
C11    N47     1.367   .     A
C11    F32     1.356   .     S
C11    C132    1.431   1_455 S
C12    C22     1.417   .     A
C12    C570    1.429   .     S
C12    C572    1.426   .     S
C13    F33     1.355   .     S
C13    N47     1.365   .     A
C13    C136    1.413   1_455 S
C14    F34     1.348   .     S
C14    N48     1.367   .     A
C14    C74     1.413   .     S
C15    O57     1.293   .     A
C15    O58     1.292   .     A
C16    O60     1.300   .     A
C16    C18     1.476   .     S
C16    O59     1.296   .     A
C17    C28     1.397   .     A
C17    C573    1.420   1_554 S
C17    O600    1.378   1_554 S
C18    C28     1.413   .     A
C18    C27     1.398   .     A
C19    C20     1.390   .     A
C19    F37     1.358   .     S
C20    C570    1.394   .     S
C20    F587    1.358   .     S
C21    O52     1.379   .     S
C21    C561    1.429   1_554 S
C21    C569    1.394   1_554 S
C22    C26     1.412   .     A
C23    C27     1.408   .     A
C23    C561    1.426   1_554 S
C23    C573    1.423   1_554 S
C24    C25     1.407   .     A
C24    C566    1.420   .     S
C24    C572    1.423   .     S
C25    C26     1.389   .     A
C25    F35     1.358   .     S
C26    F39     1.358   .     S
C27    F36     1.360   .     S
C28    O61     1.374   .     S
Cu29   O55     1.939   .     S
Cu29   O49     1.966   .     S
Cu29   Cu30    2.682   .     S
Cu29   N47     2.016   .     S
Cu29   O57     1.966   .     S
Cu29   O59     1.924   .     S
Cu30   O56     1.924   .     S
Cu30   O58     1.966   .     S
Cu30   N48     2.016   .     S
Cu30   O54     1.966   .     S
Cu30   O60     1.939   .     S
F38    C569    1.358   1_554 S
H42    O61     0.990   .     S
H43    O50     0.990   .     S
H44    O51     0.991   .     S
H45    O52     0.991   .     S
H46    O53     0.990   .     S
O51    C566    1.378   .     S
C62    O115    1.291   .     A
C62    C70     1.453   .     S
C62    O110    1.295   .     A
C63    C65     1.479   .     S
C63    C83     1.421   .     A
C63    C80     1.408   .     A
C64    C70     1.410   .     A
C64    O114    1.384   .     S
C64    C249    1.399   .     S
C65    O117    1.299   .     A
C65    O116    1.298   .     A
C66    C67     1.404   .     A
C66    F92     1.358   .     S
C66    C430    1.399   1_545 S
C67    C68     1.398   .     A
C67    C76     1.451   .     S
C68    H101    1.084   .     S
C68    C435    1.382   1_545 S
C69    H102    1.084   .     S
C69    C70     1.400   .     A
C69    C251    1.382   .     S
C71    N109    1.372   .     A
C71    O111    1.379   .     S
C71    C133    1.431   .     S
C72    N108    1.367   .     A
C72    F93     1.356   .     S
C73    C83     1.417   .     A
C73    C631    1.429   .     S
C73    C633    1.426   .     S
C74    F94     1.355   .     S
C74    N108    1.365   .     A
C75    F95     1.348   .     S
C75    N109    1.367   .     A
C75    C135    1.413   .     S
C76    O118    1.293   .     A
C76    O119    1.292   .     A
C77    O121    1.300   .     A
C77    C79     1.476   .     S
C77    O120    1.296   .     A
C78    C89     1.397   .     A
C78    C634    1.420   1_554 S
C78    O661    1.378   1_554 S
C79    C89     1.413   .     A
C79    C88     1.398   .     A
C80    C81     1.390   .     A
C80    F98     1.358   .     S
C81    C631    1.394   .     S
C81    F648    1.358   .     S
C82    O113    1.379   .     S
C82    C622    1.429   1_554 S
C82    C630    1.394   1_554 S
C83    C87     1.412   .     A
C84    C88     1.408   .     A
C84    C622    1.426   1_554 S
C84    C634    1.423   1_554 S
C85    C86     1.407   .     A
C85    C627    1.420   .     S
C85    C633    1.423   .     S
C86    C87     1.389   .     A
C86    F96     1.358   .     S
C87    F100    1.358   .     S
C88    F97     1.360   .     S
C89    O122    1.374   .     S
Cu90   O116    1.939   .     S
Cu90   O110    1.966   .     S
Cu90   Cu91    2.682   .     S
Cu90   N108    2.016   .     S
Cu90   O118    1.966   .     S
Cu90   O120    1.924   .     S
Cu91   O117    1.924   .     S
Cu91   O119    1.966   .     S
Cu91   N109    2.016   .     S
Cu91   O115    1.966   .     S
Cu91   O121    1.939   .     S
F99    C630    1.358   1_554 S
H103   O122    0.990   .     S
H104   O111    0.990   .     S
H105   O112    0.991   .     S
H106   O113    0.991   .     S
H107   O114    0.990   .     S
O112   C627    1.378   .     S
C123   O176    1.291   .     A
C123   C131    1.453   .     S
C123   O171    1.295   .     A
C124   C126    1.479   .     S
C124   C144    1.421   .     A
C124   C141    1.408   .     A
C125   C131    1.410   .     A
C125   O175    1.384   .     S
C125   C310    1.399   .     S
C126   O178    1.299   .     A
C126   O177    1.298   .     A
C127   C128    1.404   .     A
C127   F153    1.358   .     S
C127   C491    1.399   1_545 S
C128   C129    1.398   .     A
C128   C137    1.451   .     S
C129   H162    1.084   .     S
C129   C496    1.382   1_545 S
C130   H163    1.084   .     S
C130   C131    1.400   .     A
C130   C312    1.382   .     S
C132   N170    1.372   .     A
C132   O172    1.379   .     S
C132   C11     1.431   1_655 S
C133   N169    1.367   .     A
C133   F154    1.356   .     S
C134   C144    1.417   .     A
C134   C692    1.429   .     S
C134   C694    1.426   .     S
C135   F155    1.355   .     S
C135   N169    1.365   .     A
C136   F156    1.348   .     S
C136   N170    1.367   .     A
C136   C13     1.413   1_655 S
C137   O179    1.293   .     A
C137   O180    1.292   .     A
C138   O182    1.300   .     A
C138   C140    1.476   .     S
C138   O181    1.296   .     A
C139   C150    1.397   .     A
C139   C695    1.420   1_554 S
C139   O722    1.378   1_554 S
C140   C150    1.413   .     A
C140   C149    1.398   .     A
C141   C142    1.390   .     A
C141   F159    1.358   .     S
C142   C692    1.394   .     S
C142   F709    1.358   .     S
C143   O174    1.379   .     S
C143   C683    1.429   1_554 S
C143   C691    1.394   1_554 S
C144   C148    1.412   .     A
C145   C149    1.408   .     A
C145   C683    1.426   1_554 S
C145   C695    1.423   1_554 S
C146   C147    1.407   .     A
C146   C688    1.420   .     S
C146   C694    1.423   .     S
C147   C148    1.389   .     A
C147   F157    1.358   .     S
C148   F161    1.358   .     S
C149   F158    1.360   .     S
C150   O183    1.374   .     S
Cu151  O177    1.939   .     S
Cu151  O171    1.966   .     S
Cu151  Cu152   2.682   .     S
Cu151  N169    2.016   .     S
Cu151  O179    1.966   .     S
Cu151  O181    1.924   .     S
Cu152  O178    1.924   .     S
Cu152  O180    1.966   .     S
Cu152  N170    2.016   .     S
Cu152  O176    1.966   .     S
Cu152  O182    1.939   .     S
F160   C691    1.358   1_554 S
H164   O183    0.990   .     S
H165   O172    0.990   .     S
H166   O173    0.991   .     S
H167   O174    0.991   .     S
H168   O175    0.990   .     S
O173   C688    1.378   .     S
C184   O237    1.291   .     A
C184   C192    1.453   .     S
C184   O232    1.295   .     A
C185   C187    1.479   .     S
C185   C205    1.421   .     A
C185   C202    1.408   .     A
C186   C192    1.410   .     A
C186   O236    1.384   .     S
C186   C371    1.399   .     S
C187   O239    1.299   .     A
C187   O238    1.298   .     A
C188   C189    1.404   .     A
C188   F214    1.358   .     S
C189   C190    1.398   .     A
C189   C198    1.451   .     S
C190   H223    1.084   .     S
C191   H224    1.084   .     S
C191   C192    1.400   .     A
C191   C373    1.382   .     S
C193   N231    1.372   .     A
C193   O233    1.379   .     S
C193   C255    1.431   .     S
C194   N230    1.367   .     A
C194   F215    1.356   .     S
C194   C315    1.431   1_455 S
C195   C205    1.417   .     A
C195   C753    1.429   .     S
C195   C755    1.426   .     S
C196   F216    1.355   .     S
C196   N230    1.365   .     A
C196   C319    1.413   1_455 S
C197   F217    1.348   .     S
C197   N231    1.367   .     A
C197   C257    1.413   .     S
C198   O240    1.293   .     A
C198   O241    1.292   .     A
C199   O243    1.300   .     A
C199   C201    1.476   .     S
C199   O242    1.296   .     A
C200   C211    1.397   .     A
C200   C756    1.420   1_554 S
C200   O783    1.378   1_554 S
C201   C211    1.413   .     A
C201   C210    1.398   .     A
C202   C203    1.390   .     A
C202   F220    1.358   .     S
C203   C753    1.394   .     S
C203   F770    1.358   .     S
C204   O235    1.379   .     S
C204   C744    1.429   1_554 S
C204   C752    1.394   1_554 S
C205   C209    1.412   .     A
C206   C210    1.408   .     A
C206   C744    1.426   1_554 S
C206   C756    1.423   1_554 S
C207   C208    1.407   .     A
C207   C749    1.420   .     S
C207   C755    1.423   .     S
C208   C209    1.389   .     A
C208   F218    1.358   .     S
C209   F222    1.358   .     S
C210   F219    1.360   .     S
C211   O244    1.374   .     S
Cu212  O238    1.939   .     S
Cu212  O232    1.966   .     S
Cu212  Cu213   2.682   .     S
Cu212  N230    2.016   .     S
Cu212  O240    1.966   .     S
Cu212  O242    1.924   .     S
Cu213  O239    1.924   .     S
Cu213  O241    1.966   .     S
Cu213  N231    2.016   .     S
Cu213  O237    1.966   .     S
Cu213  O243    1.939   .     S
F221   C752    1.358   1_554 S
H225   O244    0.990   .     S
H226   O233    0.990   .     S
H227   O234    0.991   .     S
H228   O235    0.991   .     S
H229   O236    0.990   .     S
O234   C749    1.378   .     S
C245   O298    1.291   .     A
C245   C253    1.453   .     S
C245   O293    1.295   .     A
C246   C248    1.479   .     S
C246   C266    1.421   .     A
C246   C263    1.408   .     A
C247   C253    1.410   .     A
C247   O297    1.384   .     S
C247   C432    1.399   .     S
C248   O300    1.299   .     A
C248   O299    1.298   .     A
C249   C250    1.404   .     A
C249   F275    1.358   .     S
C250   C251    1.398   .     A
C250   C259    1.451   .     S
C251   H284    1.084   .     S
C252   H285    1.084   .     S
C252   C253    1.400   .     A
C252   C434    1.382   .     S
C254   N292    1.372   .     A
C254   O294    1.379   .     S
C254   C316    1.431   .     S
C255   N291    1.367   .     A
C255   F276    1.356   .     S
C256   C266    1.417   .     A
C256   C814    1.429   .     S
C256   C816    1.426   .     S
C257   F277    1.355   .     S
C257   N291    1.365   .     A
C258   F278    1.348   .     S
C258   N292    1.367   .     A
C258   C318    1.413   .     S
C259   O301    1.293   .     A
C259   O302    1.292   .     A
C260   O304    1.300   .     A
C260   C262    1.476   .     S
C260   O303    1.296   .     A
C261   C272    1.397   .     A
C261   C817    1.420   1_554 S
C261   O844    1.378   1_554 S
C262   C272    1.413   .     A
C262   C271    1.398   .     A
C263   C264    1.390   .     A
C263   F281    1.358   .     S
C264   C814    1.394   .     S
C264   F831    1.358   .     S
C265   O296    1.379   .     S
C265   C805    1.429   1_554 S
C265   C813    1.394   1_554 S
C266   C270    1.412   .     A
C267   C271    1.408   .     A
C267   C805    1.426   1_554 S
C267   C817    1.423   1_554 S
C268   C269    1.407   .     A
C268   C810    1.420   .     S
C268   C816    1.423   .     S
C269   C270    1.389   .     A
C269   F279    1.358   .     S
C270   F283    1.358   .     S
C271   F280    1.360   .     S
C272   O305    1.374   .     S
Cu273  O299    1.939   .     S
Cu273  O293    1.966   .     S
Cu273  Cu274   2.682   .     S
Cu273  N291    2.016   .     S
Cu273  O301    1.966   .     S
Cu273  O303    1.924   .     S
Cu274  O300    1.924   .     S
Cu274  O302    1.966   .     S
Cu274  N292    2.016   .     S
Cu274  O298    1.966   .     S
Cu274  O304    1.939   .     S
F282   C813    1.358   1_554 S
H286   O305    0.990   .     S
H287   O294    0.990   .     S
H288   O295    0.991   .     S
H289   O296    0.991   .     S
H290   O297    0.990   .     S
O295   C810    1.378   .     S
C306   O359    1.291   .     A
C306   C314    1.453   .     S
C306   O354    1.295   .     A
C307   C309    1.479   .     S
C307   C327    1.421   .     A
C307   C324    1.408   .     A
C308   C314    1.410   .     A
C308   O358    1.384   .     S
C308   C493    1.399   .     S
C309   O361    1.299   .     A
C309   O360    1.298   .     A
C310   C311    1.404   .     A
C310   F336    1.358   .     S
C311   C312    1.398   .     A
C311   C320    1.451   .     S
C312   H345    1.084   .     S
C313   H346    1.084   .     S
C313   C314    1.400   .     A
C313   C495    1.382   .     S
C315   N353    1.372   .     A
C315   O355    1.379   .     S
C315   C194    1.431   1_655 S
C316   N352    1.367   .     A
C316   F337    1.356   .     S
C317   C327    1.417   .     A
C317   C875    1.429   .     S
C317   C877    1.426   .     S
C318   F338    1.355   .     S
C318   N352    1.365   .     A
C319   F339    1.348   .     S
C319   N353    1.367   .     A
C319   C196    1.413   1_655 S
C320   O362    1.293   .     A
C320   O363    1.292   .     A
C321   O365    1.300   .     A
C321   C323    1.476   .     S
C321   O364    1.296   .     A
C322   C333    1.397   .     A
C322   C878    1.420   1_554 S
C322   O905    1.378   1_554 S
C323   C333    1.413   .     A
C323   C332    1.398   .     A
C324   C325    1.390   .     A
C324   F342    1.358   .     S
C325   C875    1.394   .     S
C325   F892    1.358   .     S
C326   O357    1.379   .     S
C326   C866    1.429   1_554 S
C326   C874    1.394   1_554 S
C327   C331    1.412   .     A
C328   C332    1.408   .     A
C328   C866    1.426   1_554 S
C328   C878    1.423   1_554 S
C329   C330    1.407   .     A
C329   C871    1.420   .     S
C329   C877    1.423   .     S
C330   C331    1.389   .     A
C330   F340    1.358   .     S
C331   F344    1.358   .     S
C332   F341    1.360   .     S
C333   O366    1.374   .     S
Cu334  O360    1.939   .     S
Cu334  O354    1.966   .     S
Cu334  Cu335   2.682   .     S
Cu334  N352    2.016   .     S
Cu334  O362    1.966   .     S
Cu334  O364    1.924   .     S
Cu335  O361    1.924   .     S
Cu335  O363    1.966   .     S
Cu335  N353    2.016   .     S
Cu335  O359    1.966   .     S
Cu335  O365    1.939   .     S
F343   C874    1.358   1_554 S
H347   O366    0.990   .     S
H348   O355    0.990   .     S
H349   O356    0.991   .     S
H350   O357    0.991   .     S
H351   O358    0.990   .     S
O356   C871    1.378   .     S
C367   O420    1.291   .     A
C367   C375    1.453   .     S
C367   O415    1.295   .     A
C368   C370    1.479   .     S
C368   C388    1.421   .     A
C368   C385    1.408   .     A
C369   C375    1.410   .     A
C369   O419    1.384   .     S
C369   C5      1.399   1_565 S
C370   O422    1.299   .     A
C370   O421    1.298   .     A
C371   C372    1.404   .     A
C371   F397    1.358   .     S
C372   C373    1.398   .     A
C372   C381    1.451   .     S
C373   H406    1.084   .     S
C374   H407    1.084   .     S
C374   C375    1.400   .     A
C374   C7      1.382   1_565 S
C376   N414    1.372   .     A
C376   O416    1.379   .     S
C376   C438    1.431   .     S
C377   N413    1.367   .     A
C377   F398    1.356   .     S
C377   C498    1.431   1_455 S
C378   C388    1.417   .     A
C378   C936    1.429   .     S
C378   C938    1.426   .     S
C379   F399    1.355   .     S
C379   N413    1.365   .     A
C379   C502    1.413   1_455 S
C380   F400    1.348   .     S
C380   N414    1.367   .     A
C380   C440    1.413   .     S
C381   O423    1.293   .     A
C381   O424    1.292   .     A
C382   O426    1.300   .     A
C382   C384    1.476   .     S
C382   O425    1.296   .     A
C383   C394    1.397   .     A
C383   C939    1.420   1_554 S
C383   O966    1.378   1_554 S
C384   C394    1.413   .     A
C384   C393    1.398   .     A
C385   C386    1.390   .     A
C385   F403    1.358   .     S
C386   C936    1.394   .     S
C386   F953    1.358   .     S
C387   O418    1.379   .     S
C387   C927    1.429   1_554 S
C387   C935    1.394   1_554 S
C388   C392    1.412   .     A
C389   C393    1.408   .     A
C389   C927    1.426   1_554 S
C389   C939    1.423   1_554 S
C390   C391    1.407   .     A
C390   C932    1.420   .     S
C390   C938    1.423   .     S
C391   C392    1.389   .     A
C391   F401    1.358   .     S
C392   F405    1.358   .     S
C393   F402    1.360   .     S
C394   O427    1.374   .     S
Cu395  O421    1.939   .     S
Cu395  O415    1.966   .     S
Cu395  Cu396   2.682   .     S
Cu395  N413    2.016   .     S
Cu395  O423    1.966   .     S
Cu395  O425    1.924   .     S
Cu396  O422    1.924   .     S
Cu396  O424    1.966   .     S
Cu396  N414    2.016   .     S
Cu396  O420    1.966   .     S
Cu396  O426    1.939   .     S
F404   C935    1.358   1_554 S
H408   O427    0.990   .     S
H409   O416    0.990   .     S
H410   O417    0.991   .     S
H411   O418    0.991   .     S
H412   O419    0.990   .     S
O417   C932    1.378   .     S
C428   O481    1.291   .     A
C428   C436    1.453   .     S
C428   O476    1.295   .     A
C429   C431    1.479   .     S
C429   C449    1.421   .     A
C429   C446    1.408   .     A
C430   C436    1.410   .     A
C430   O480    1.384   .     S
C430   C66     1.399   1_565 S
C431   O483    1.299   .     A
C431   O482    1.298   .     A
C432   C433    1.404   .     A
C432   F458    1.358   .     S
C433   C434    1.398   .     A
C433   C442    1.451   .     S
C434   H467    1.084   .     S
C435   H468    1.084   .     S
C435   C436    1.400   .     A
C435   C68     1.382   1_565 S
C437   N475    1.372   .     A
C437   O477    1.379   .     S
C437   C499    1.431   .     S
C438   N474    1.367   .     A
C438   F459    1.356   .     S
C439   C449    1.417   .     A
C439   C997    1.429   .     S
C439   C999    1.426   .     S
C440   F460    1.355   .     S
C440   N474    1.365   .     A
C441   F461    1.348   .     S
C441   N475    1.367   .     A
C441   C501    1.413   .     S
C442   O484    1.293   .     A
C442   O485    1.292   .     A
C443   O487    1.300   .     A
C443   C445    1.476   .     S
C443   O486    1.296   .     A
C444   C455    1.397   .     A
C444   C1000   1.420   1_554 S
C444   O1027   1.378   1_554 S
C445   C455    1.413   .     A
C445   C454    1.398   .     A
C446   C447    1.390   .     A
C446   F464    1.358   .     S
C447   C997    1.394   .     S
C447   F1014   1.358   .     S
C448   O479    1.379   .     S
C448   C988    1.429   1_554 S
C448   C996    1.394   1_554 S
C449   C453    1.412   .     A
C450   C454    1.408   .     A
C450   C988    1.426   1_554 S
C450   C1000   1.423   1_554 S
C451   C452    1.407   .     A
C451   C993    1.420   .     S
C451   C999    1.423   .     S
C452   C453    1.389   .     A
C452   F462    1.358   .     S
C453   F466    1.358   .     S
C454   F463    1.360   .     S
C455   O488    1.374   .     S
Cu456  O482    1.939   .     S
Cu456  O476    1.966   .     S
Cu456  Cu457   2.682   .     S
Cu456  N474    2.016   .     S
Cu456  O484    1.966   .     S
Cu456  O486    1.924   .     S
Cu457  O483    1.924   .     S
Cu457  O485    1.966   .     S
Cu457  N475    2.016   .     S
Cu457  O481    1.966   .     S
Cu457  O487    1.939   .     S
F465   C996    1.358   1_554 S
H469   O488    0.990   .     S
H470   O477    0.990   .     S
H471   O478    0.991   .     S
H472   O479    0.991   .     S
H473   O480    0.990   .     S
O478   C993    1.378   .     S
C489   O542    1.291   .     A
C489   C497    1.453   .     S
C489   O537    1.295   .     A
C490   C492    1.479   .     S
C490   C510    1.421   .     A
C490   C507    1.408   .     A
C491   C497    1.410   .     A
C491   O541    1.384   .     S
C491   C127    1.399   1_565 S
C492   O544    1.299   .     A
C492   O543    1.298   .     A
C493   C494    1.404   .     A
C493   F519    1.358   .     S
C494   C495    1.398   .     A
C494   C503    1.451   .     S
C495   H528    1.084   .     S
C496   H529    1.084   .     S
C496   C497    1.400   .     A
C496   C129    1.382   1_565 S
C498   N536    1.372   .     A
C498   O538    1.379   .     S
C498   C377    1.431   1_655 S
C499   N535    1.367   .     A
C499   F520    1.356   .     S
C500   C510    1.417   .     A
C500   C1058   1.429   .     S
C500   C1060   1.426   .     S
C501   F521    1.355   .     S
C501   N535    1.365   .     A
C502   F522    1.348   .     S
C502   N536    1.367   .     A
C502   C379    1.413   1_655 S
C503   O545    1.293   .     A
C503   O546    1.292   .     A
C504   O548    1.300   .     A
C504   C506    1.476   .     S
C504   O547    1.296   .     A
C505   C516    1.397   .     A
C505   C1061   1.420   1_554 S
C505   O1088   1.378   1_554 S
C506   C516    1.413   .     A
C506   C515    1.398   .     A
C507   C508    1.390   .     A
C507   F525    1.358   .     S
C508   C1058   1.394   .     S
C508   F1075   1.358   .     S
C509   O540    1.379   .     S
C509   C1049   1.429   1_554 S
C509   C1057   1.394   1_554 S
C510   C514    1.412   .     A
C511   C515    1.408   .     A
C511   C1049   1.426   1_554 S
C511   C1061   1.423   1_554 S
C512   C513    1.407   .     A
C512   C1054   1.420   .     S
C512   C1060   1.423   .     S
C513   C514    1.389   .     A
C513   F523    1.358   .     S
C514   F527    1.358   .     S
C515   F524    1.360   .     S
C516   O549    1.374   .     S
Cu517  O543    1.939   .     S
Cu517  O537    1.966   .     S
Cu517  Cu518   2.682   .     S
Cu517  N535    2.016   .     S
Cu517  O545    1.966   .     S
Cu517  O547    1.924   .     S
Cu518  O544    1.924   .     S
Cu518  O546    1.966   .     S
Cu518  N536    2.016   .     S
Cu518  O542    1.966   .     S
Cu518  O548    1.939   .     S
F526   C1057   1.358   1_554 S
H530   O549    0.990   .     S
H531   O538    0.990   .     S
H532   O539    0.991   .     S
H533   O540    0.991   .     S
H534   O541    0.990   .     S
O539   C1054   1.378   .     S
C550   O603    1.291   .     A
C550   C558    1.453   .     S
C550   O598    1.295   .     A
C551   C553    1.479   .     S
C551   C571    1.421   .     A
C551   C568    1.408   .     A
C552   C558    1.410   .     A
C552   O602    1.384   .     S
C552   C737    1.399   .     S
C553   O605    1.299   .     A
C553   O604    1.298   .     A
C554   C555    1.404   .     A
C554   F580    1.358   .     S
C554   C918    1.399   1_545 S
C555   C556    1.398   .     A
C555   C564    1.451   .     S
C556   H589    1.084   .     S
C556   C923    1.382   1_545 S
C557   H590    1.084   .     S
C557   C558    1.400   .     A
C557   C739    1.382   .     S
C559   N597    1.372   .     A
C559   O599    1.379   .     S
C559   C621    1.431   .     S
C560   N596    1.367   .     A
C560   F581    1.356   .     S
C560   C681    1.431   1_455 S
C561   C571    1.417   .     A
C561   C21     1.429   1_556 S
C561   C23     1.426   1_556 S
C562   F582    1.355   .     S
C562   N596    1.365   .     A
C562   C685    1.413   1_455 S
C563   F583    1.348   .     S
C563   N597    1.367   .     A
C563   C623    1.413   .     S
C564   O606    1.293   .     A
C564   O607    1.292   .     A
C565   O609    1.300   .     A
C565   C567    1.476   .     S
C565   O608    1.296   .     A
C566   C577    1.397   .     A
C567   C577    1.413   .     A
C567   C576    1.398   .     A
C568   C569    1.390   .     A
C568   F586    1.358   .     S
C569   C21     1.394   1_556 S
C569   F38     1.358   1_556 S
C570   O601    1.379   .     S
C571   C575    1.412   .     A
C572   C576    1.408   .     A
C573   C574    1.407   .     A
C573   C17     1.420   1_556 S
C573   C23     1.423   1_556 S
C574   C575    1.389   .     A
C574   F584    1.358   .     S
C575   F588    1.358   .     S
C576   F585    1.360   .     S
C577   O610    1.374   .     S
Cu578  O604    1.939   .     S
Cu578  O598    1.966   .     S
Cu578  Cu579   2.682   .     S
Cu578  N596    2.016   .     S
Cu578  O606    1.966   .     S
Cu578  O608    1.924   .     S
Cu579  O605    1.924   .     S
Cu579  O607    1.966   .     S
Cu579  N597    2.016   .     S
Cu579  O603    1.966   .     S
Cu579  O609    1.939   .     S
H591   O610    0.990   .     S
H592   O599    0.990   .     S
H593   O600    0.991   .     S
H594   O601    0.991   .     S
H595   O602    0.990   .     S
O600   C17     1.378   1_556 S
C611   O664    1.291   .     A
C611   C619    1.453   .     S
C611   O659    1.295   .     A
C612   C614    1.479   .     S
C612   C632    1.421   .     A
C612   C629    1.408   .     A
C613   C619    1.410   .     A
C613   O663    1.384   .     S
C613   C798    1.399   .     S
C614   O666    1.299   .     A
C614   O665    1.298   .     A
C615   C616    1.404   .     A
C615   F641    1.358   .     S
C615   C979    1.399   1_545 S
C616   C617    1.398   .     A
C616   C625    1.451   .     S
C617   H650    1.084   .     S
C617   C984    1.382   1_545 S
C618   H651    1.084   .     S
C618   C619    1.400   .     A
C618   C800    1.382   .     S
C620   N658    1.372   .     A
C620   O660    1.379   .     S
C620   C682    1.431   .     S
C621   N657    1.367   .     A
C621   F642    1.356   .     S
C622   C632    1.417   .     A
C622   C82     1.429   1_556 S
C622   C84     1.426   1_556 S
C623   F643    1.355   .     S
C623   N657    1.365   .     A
C624   F644    1.348   .     S
C624   N658    1.367   .     A
C624   C684    1.413   .     S
C625   O667    1.293   .     A
C625   O668    1.292   .     A
C626   O670    1.300   .     A
C626   C628    1.476   .     S
C626   O669    1.296   .     A
C627   C638    1.397   .     A
C628   C638    1.413   .     A
C628   C637    1.398   .     A
C629   C630    1.390   .     A
C629   F647    1.358   .     S
C630   C82     1.394   1_556 S
C630   F99     1.358   1_556 S
C631   O662    1.379   .     S
C632   C636    1.412   .     A
C633   C637    1.408   .     A
C634   C635    1.407   .     A
C634   C78     1.420   1_556 S
C634   C84     1.423   1_556 S
C635   C636    1.389   .     A
C635   F645    1.358   .     S
C636   F649    1.358   .     S
C637   F646    1.360   .     S
C638   O671    1.374   .     S
Cu639  O665    1.939   .     S
Cu639  O659    1.966   .     S
Cu639  Cu640   2.682   .     S
Cu639  N657    2.016   .     S
Cu639  O667    1.966   .     S
Cu639  O669    1.924   .     S
Cu640  O666    1.924   .     S
Cu640  O668    1.966   .     S
Cu640  N658    2.016   .     S
Cu640  O664    1.966   .     S
Cu640  O670    1.939   .     S
H652   O671    0.990   .     S
H653   O660    0.990   .     S
H654   O661    0.991   .     S
H655   O662    0.991   .     S
H656   O663    0.990   .     S
O661   C78     1.378   1_556 S
C672   O725    1.291   .     A
C672   C680    1.453   .     S
C672   O720    1.295   .     A
C673   C675    1.479   .     S
C673   C693    1.421   .     A
C673   C690    1.408   .     A
C674   C680    1.410   .     A
C674   O724    1.384   .     S
C674   C859    1.399   .     S
C675   O727    1.299   .     A
C675   O726    1.298   .     A
C676   C677    1.404   .     A
C676   F702    1.358   .     S
C676   C1040   1.399   1_545 S
C677   C678    1.398   .     A
C677   C686    1.451   .     S
C678   H711    1.084   .     S
C678   C1045   1.382   1_545 S
C679   H712    1.084   .     S
C679   C680    1.400   .     A
C679   C861    1.382   .     S
C681   N719    1.372   .     A
C681   O721    1.379   .     S
C681   C560    1.431   1_655 S
C682   N718    1.367   .     A
C682   F703    1.356   .     S
C683   C693    1.417   .     A
C683   C143    1.429   1_556 S
C683   C145    1.426   1_556 S
C684   F704    1.355   .     S
C684   N718    1.365   .     A
C685   F705    1.348   .     S
C685   N719    1.367   .     A
C685   C562    1.413   1_655 S
C686   O728    1.293   .     A
C686   O729    1.292   .     A
C687   O731    1.300   .     A
C687   C689    1.476   .     S
C687   O730    1.296   .     A
C688   C699    1.397   .     A
C689   C699    1.413   .     A
C689   C698    1.398   .     A
C690   C691    1.390   .     A
C690   F708    1.358   .     S
C691   C143    1.394   1_556 S
C691   F160    1.358   1_556 S
C692   O723    1.379   .     S
C693   C697    1.412   .     A
C694   C698    1.408   .     A
C695   C696    1.407   .     A
C695   C139    1.420   1_556 S
C695   C145    1.423   1_556 S
C696   C697    1.389   .     A
C696   F706    1.358   .     S
C697   F710    1.358   .     S
C698   F707    1.360   .     S
C699   O732    1.374   .     S
Cu700  O726    1.939   .     S
Cu700  O720    1.966   .     S
Cu700  Cu701   2.682   .     S
Cu700  N718    2.016   .     S
Cu700  O728    1.966   .     S
Cu700  O730    1.924   .     S
Cu701  O727    1.924   .     S
Cu701  O729    1.966   .     S
Cu701  N719    2.016   .     S
Cu701  O725    1.966   .     S
Cu701  O731    1.939   .     S
H713   O732    0.990   .     S
H714   O721    0.990   .     S
H715   O722    0.991   .     S
H716   O723    0.991   .     S
H717   O724    0.990   .     S
O722   C139    1.378   1_556 S
C733   O786    1.291   .     A
C733   C741    1.453   .     S
C733   O781    1.295   .     A
C734   C736    1.479   .     S
C734   C754    1.421   .     A
C734   C751    1.408   .     A
C735   C741    1.410   .     A
C735   O785    1.384   .     S
C735   C920    1.399   .     S
C736   O788    1.299   .     A
C736   O787    1.298   .     A
C737   C738    1.404   .     A
C737   F763    1.358   .     S
C738   C739    1.398   .     A
C738   C747    1.451   .     S
C739   H772    1.084   .     S
C740   H773    1.084   .     S
C740   C741    1.400   .     A
C740   C922    1.382   .     S
C742   N780    1.372   .     A
C742   O782    1.379   .     S
C742   C804    1.431   .     S
C743   N779    1.367   .     A
C743   F764    1.356   .     S
C743   C864    1.431   1_455 S
C744   C754    1.417   .     A
C744   C204    1.429   1_556 S
C744   C206    1.426   1_556 S
C745   F765    1.355   .     S
C745   N779    1.365   .     A
C745   C868    1.413   1_455 S
C746   F766    1.348   .     S
C746   N780    1.367   .     A
C746   C806    1.413   .     S
C747   O789    1.293   .     A
C747   O790    1.292   .     A
C748   O792    1.300   .     A
C748   C750    1.476   .     S
C748   O791    1.296   .     A
C749   C760    1.397   .     A
C750   C760    1.413   .     A
C750   C759    1.398   .     A
C751   C752    1.390   .     A
C751   F769    1.358   .     S
C752   C204    1.394   1_556 S
C752   F221    1.358   1_556 S
C753   O784    1.379   .     S
C754   C758    1.412   .     A
C755   C759    1.408   .     A
C756   C757    1.407   .     A
C756   C200    1.420   1_556 S
C756   C206    1.423   1_556 S
C757   C758    1.389   .     A
C757   F767    1.358   .     S
C758   F771    1.358   .     S
C759   F768    1.360   .     S
C760   O793    1.374   .     S
Cu761  O787    1.939   .     S
Cu761  O781    1.966   .     S
Cu761  Cu762   2.682   .     S
Cu761  N779    2.016   .     S
Cu761  O789    1.966   .     S
Cu761  O791    1.924   .     S
Cu762  O788    1.924   .     S
Cu762  O790    1.966   .     S
Cu762  N780    2.016   .     S
Cu762  O786    1.966   .     S
Cu762  O792    1.939   .     S
H774   O793    0.990   .     S
H775   O782    0.990   .     S
H776   O783    0.991   .     S
H777   O784    0.991   .     S
H778   O785    0.990   .     S
O783   C200    1.378   1_556 S
C794   O847    1.291   .     A
C794   C802    1.453   .     S
C794   O842    1.295   .     A
C795   C797    1.479   .     S
C795   C815    1.421   .     A
C795   C812    1.408   .     A
C796   C802    1.410   .     A
C796   O846    1.384   .     S
C796   C981    1.399   .     S
C797   O849    1.299   .     A
C797   O848    1.298   .     A
C798   C799    1.404   .     A
C798   F824    1.358   .     S
C799   C800    1.398   .     A
C799   C808    1.451   .     S
C800   H833    1.084   .     S
C801   H834    1.084   .     S
C801   C802    1.400   .     A
C801   C983    1.382   .     S
C803   N841    1.372   .     A
C803   O843    1.379   .     S
C803   C865    1.431   .     S
C804   N840    1.367   .     A
C804   F825    1.356   .     S
C805   C815    1.417   .     A
C805   C265    1.429   1_556 S
C805   C267    1.426   1_556 S
C806   F826    1.355   .     S
C806   N840    1.365   .     A
C807   F827    1.348   .     S
C807   N841    1.367   .     A
C807   C867    1.413   .     S
C808   O850    1.293   .     A
C808   O851    1.292   .     A
C809   O853    1.300   .     A
C809   C811    1.476   .     S
C809   O852    1.296   .     A
C810   C821    1.397   .     A
C811   C821    1.413   .     A
C811   C820    1.398   .     A
C812   C813    1.390   .     A
C812   F830    1.358   .     S
C813   C265    1.394   1_556 S
C813   F282    1.358   1_556 S
C814   O845    1.379   .     S
C815   C819    1.412   .     A
C816   C820    1.408   .     A
C817   C818    1.407   .     A
C817   C261    1.420   1_556 S
C817   C267    1.423   1_556 S
C818   C819    1.389   .     A
C818   F828    1.358   .     S
C819   F832    1.358   .     S
C820   F829    1.360   .     S
C821   O854    1.374   .     S
Cu822  O848    1.939   .     S
Cu822  O842    1.966   .     S
Cu822  Cu823   2.682   .     S
Cu822  N840    2.016   .     S
Cu822  O850    1.966   .     S
Cu822  O852    1.924   .     S
Cu823  O849    1.924   .     S
Cu823  O851    1.966   .     S
Cu823  N841    2.016   .     S
Cu823  O847    1.966   .     S
Cu823  O853    1.939   .     S
H835   O854    0.990   .     S
H836   O843    0.990   .     S
H837   O844    0.991   .     S
H838   O845    0.991   .     S
H839   O846    0.990   .     S
O844   C261    1.378   1_556 S
C855   O908    1.291   .     A
C855   C863    1.453   .     S
C855   O903    1.295   .     A
C856   C858    1.479   .     S
C856   C876    1.421   .     A
C856   C873    1.408   .     A
C857   C863    1.410   .     A
C857   O907    1.384   .     S
C857   C1042   1.399   .     S
C858   O910    1.299   .     A
C858   O909    1.298   .     A
C859   C860    1.404   .     A
C859   F885    1.358   .     S
C860   C861    1.398   .     A
C860   C869    1.451   .     S
C861   H894    1.084   .     S
C862   H895    1.084   .     S
C862   C863    1.400   .     A
C862   C1044   1.382   .     S
C864   N902    1.372   .     A
C864   O904    1.379   .     S
C864   C743    1.431   1_655 S
C865   N901    1.367   .     A
C865   F886    1.356   .     S
C866   C876    1.417   .     A
C866   C326    1.429   1_556 S
C866   C328    1.426   1_556 S
C867   F887    1.355   .     S
C867   N901    1.365   .     A
C868   F888    1.348   .     S
C868   N902    1.367   .     A
C868   C745    1.413   1_655 S
C869   O911    1.293   .     A
C869   O912    1.292   .     A
C870   O914    1.300   .     A
C870   C872    1.476   .     S
C870   O913    1.296   .     A
C871   C882    1.397   .     A
C872   C882    1.413   .     A
C872   C881    1.398   .     A
C873   C874    1.390   .     A
C873   F891    1.358   .     S
C874   C326    1.394   1_556 S
C874   F343    1.358   1_556 S
C875   O906    1.379   .     S
C876   C880    1.412   .     A
C877   C881    1.408   .     A
C878   C879    1.407   .     A
C878   C322    1.420   1_556 S
C878   C328    1.423   1_556 S
C879   C880    1.389   .     A
C879   F889    1.358   .     S
C880   F893    1.358   .     S
C881   F890    1.360   .     S
C882   O915    1.374   .     S
Cu883  O909    1.939   .     S
Cu883  O903    1.966   .     S
Cu883  Cu884   2.682   .     S
Cu883  N901    2.016   .     S
Cu883  O911    1.966   .     S
Cu883  O913    1.924   .     S
Cu884  O910    1.924   .     S
Cu884  O912    1.966   .     S
Cu884  N902    2.016   .     S
Cu884  O908    1.966   .     S
Cu884  O914    1.939   .     S
H896   O915    0.990   .     S
H897   O904    0.990   .     S
H898   O905    0.991   .     S
H899   O906    0.991   .     S
H900   O907    0.990   .     S
O905   C322    1.378   1_556 S
C916   O969    1.291   .     A
C916   C924    1.453   .     S
C916   O964    1.295   .     A
C917   C919    1.479   .     S
C917   C937    1.421   .     A
C917   C934    1.408   .     A
C918   C924    1.410   .     A
C918   O968    1.384   .     S
C918   C554    1.399   1_565 S
C919   O971    1.299   .     A
C919   O970    1.298   .     A
C920   C921    1.404   .     A
C920   F946    1.358   .     S
C921   C922    1.398   .     A
C921   C930    1.451   .     S
C922   H955    1.084   .     S
C923   H956    1.084   .     S
C923   C924    1.400   .     A
C923   C556    1.382   1_565 S
C925   N963    1.372   .     A
C925   O965    1.379   .     S
C925   C987    1.431   .     S
C926   N962    1.367   .     A
C926   F947    1.356   .     S
C926   C1047   1.431   1_455 S
C927   C937    1.417   .     A
C927   C387    1.429   1_556 S
C927   C389    1.426   1_556 S
C928   F948    1.355   .     S
C928   N962    1.365   .     A
C928   C1051   1.413   1_455 S
C929   F949    1.348   .     S
C929   N963    1.367   .     A
C929   C989    1.413   .     S
C930   O972    1.293   .     A
C930   O973    1.292   .     A
C931   O975    1.300   .     A
C931   C933    1.476   .     S
C931   O974    1.296   .     A
C932   C943    1.397   .     A
C933   C943    1.413   .     A
C933   C942    1.398   .     A
C934   C935    1.390   .     A
C934   F952    1.358   .     S
C935   C387    1.394   1_556 S
C935   F404    1.358   1_556 S
C936   O967    1.379   .     S
C937   C941    1.412   .     A
C938   C942    1.408   .     A
C939   C940    1.407   .     A
C939   C383    1.420   1_556 S
C939   C389    1.423   1_556 S
C940   C941    1.389   .     A
C940   F950    1.358   .     S
C941   F954    1.358   .     S
C942   F951    1.360   .     S
C943   O976    1.374   .     S
Cu944  O970    1.939   .     S
Cu944  O964    1.966   .     S
Cu944  Cu945   2.682   .     S
Cu944  N962    2.016   .     S
Cu944  O972    1.966   .     S
Cu944  O974    1.924   .     S
Cu945  O971    1.924   .     S
Cu945  O973    1.966   .     S
Cu945  N963    2.016   .     S
Cu945  O969    1.966   .     S
Cu945  O975    1.939   .     S
H957   O976    0.990   .     S
H958   O965    0.990   .     S
H959   O966    0.991   .     S
H960   O967    0.991   .     S
H961   O968    0.990   .     S
O966   C383    1.378   1_556 S
C977   O1030   1.291   .     A
C977   C985    1.453   .     S
C977   O1025   1.295   .     A
C978   C980    1.479   .     S
C978   C998    1.421   .     A
C978   C995    1.408   .     A
C979   C985    1.410   .     A
C979   O1029   1.384   .     S
C979   C615    1.399   1_565 S
C980   O1032   1.299   .     A
C980   O1031   1.298   .     A
C981   C982    1.404   .     A
C981   F1007   1.358   .     S
C982   C983    1.398   .     A
C982   C991    1.451   .     S
C983   H1016   1.084   .     S
C984   H1017   1.084   .     S
C984   C985    1.400   .     A
C984   C617    1.382   1_565 S
C986   N1024   1.372   .     A
C986   O1026   1.379   .     S
C986   C1048   1.431   .     S
C987   N1023   1.367   .     A
C987   F1008   1.356   .     S
C988   C998    1.417   .     A
C988   C448    1.429   1_556 S
C988   C450    1.426   1_556 S
C989   F1009   1.355   .     S
C989   N1023   1.365   .     A
C990   F1010   1.348   .     S
C990   N1024   1.367   .     A
C990   C1050   1.413   .     S
C991   O1033   1.293   .     A
C991   O1034   1.292   .     A
C992   O1036   1.300   .     A
C992   C994    1.476   .     S
C992   O1035   1.296   .     A
C993   C1004   1.397   .     A
C994   C1004   1.413   .     A
C994   C1003   1.398   .     A
C995   C996    1.390   .     A
C995   F1013   1.358   .     S
C996   C448    1.394   1_556 S
C996   F465    1.358   1_556 S
C997   O1028   1.379   .     S
C998   C1002   1.412   .     A
C999   C1003   1.408   .     A
C1000  C1001   1.407   .     A
C1000  C444    1.420   1_556 S
C1000  C450    1.423   1_556 S
C1001  C1002   1.389   .     A
C1001  F1011   1.358   .     S
C1002  F1015   1.358   .     S
C1003  F1012   1.360   .     S
C1004  O1037   1.374   .     S
Cu1005 O1031   1.939   .     S
Cu1005 O1025   1.966   .     S
Cu1005 Cu1006  2.682   .     S
Cu1005 N1023   2.016   .     S
Cu1005 O1033   1.966   .     S
Cu1005 O1035   1.924   .     S
Cu1006 O1032   1.924   .     S
Cu1006 O1034   1.966   .     S
Cu1006 N1024   2.016   .     S
Cu1006 O1030   1.966   .     S
Cu1006 O1036   1.939   .     S
H1018  O1037   0.990   .     S
H1019  O1026   0.990   .     S
H1020  O1027   0.991   .     S
H1021  O1028   0.991   .     S
H1022  O1029   0.990   .     S
O1027  C444    1.378   1_556 S
C1038  O1091   1.291   .     A
C1038  C1046   1.453   .     S
C1038  O1086   1.295   .     A
C1039  C1041   1.479   .     S
C1039  C1059   1.421   .     A
C1039  C1056   1.408   .     A
C1040  C1046   1.410   .     A
C1040  O1090   1.384   .     S
C1040  C676    1.399   1_565 S
C1041  O1093   1.299   .     A
C1041  O1092   1.298   .     A
C1042  C1043   1.404   .     A
C1042  F1068   1.358   .     S
C1043  C1044   1.398   .     A
C1043  C1052   1.451   .     S
C1044  H1077   1.084   .     S
C1045  H1078   1.084   .     S
C1045  C1046   1.400   .     A
C1045  C678    1.382   1_565 S
C1047  N1085   1.372   .     A
C1047  O1087   1.379   .     S
C1047  C926    1.431   1_655 S
C1048  N1084   1.367   .     A
C1048  F1069   1.356   .     S
C1049  C1059   1.417   .     A
C1049  C509    1.429   1_556 S
C1049  C511    1.426   1_556 S
C1050  F1070   1.355   .     S
C1050  N1084   1.365   .     A
C1051  F1071   1.348   .     S
C1051  N1085   1.367   .     A
C1051  C928    1.413   1_655 S
C1052  O1094   1.293   .     A
C1052  O1095   1.292   .     A
C1053  O1097   1.300   .     A
C1053  C1055   1.476   .     S
C1053  O1096   1.296   .     A
C1054  C1065   1.397   .     A
C1055  C1065   1.413   .     A
C1055  C1064   1.398   .     A
C1056  C1057   1.390   .     A
C1056  F1074   1.358   .     S
C1057  C509    1.394   1_556 S
C1057  F526    1.358   1_556 S
C1058  O1089   1.379   .     S
C1059  C1063   1.412   .     A
C1060  C1064   1.408   .     A
C1061  C1062   1.407   .     A
C1061  C505    1.420   1_556 S
C1061  C511    1.423   1_556 S
C1062  C1063   1.389   .     A
C1062  F1072   1.358   .     S
C1063  F1076   1.358   .     S
C1064  F1073   1.360   .     S
C1065  O1098   1.374   .     S
Cu1066 O1092   1.939   .     S
Cu1066 O1086   1.966   .     S
Cu1066 Cu1067  2.682   .     S
Cu1066 N1084   2.016   .     S
Cu1066 O1094   1.966   .     S
Cu1066 O1096   1.924   .     S
Cu1067 O1093   1.924   .     S
Cu1067 O1095   1.966   .     S
Cu1067 N1085   2.016   .     S
Cu1067 O1091   1.966   .     S
Cu1067 O1097   1.939   .     S
H1079  O1098   0.990   .     S
H1080  O1087   0.990   .     S
H1081  O1088   0.991   .     S
H1082  O1089   0.991   .     S
H1083  O1090   0.990   .     S
O1088  C505    1.378   1_556 S
