data_str_m2_o1_o16_pcu_sym.97
_audit_creation_date              2020-01-03
_audit_creation_method            'Materials Studio'
_symmetry_space_group_name_H-M    'P1'
_symmetry_Int_Tables_number       1
_symmetry_cell_setting            triclinic
loop_
_symmetry_equiv_pos_as_xyz
  x,y,z
_cell_length_a                    28.6143
_cell_length_b                    32.4750
_cell_length_c                    26.9635
_cell_angle_alpha                 90.3927
_cell_angle_beta                  72.9058
_cell_angle_gamma                 89.7823
loop_
_atom_site_label
_atom_site_type_symbol
_atom_site_fract_x
_atom_site_fract_y
_atom_site_fract_z
_atom_site_U_iso_or_equiv
_atom_site_adp_type
_atom_site_occupancy
O1     O     0.12708   0.22678   0.25000   0.00000  Uiso   1.00
O2     O     0.20627   0.22679   0.25000   0.00000  Uiso   1.00
C3     C     0.16655   0.24595   0.25024   0.00000  Uiso   1.00
O4     O     0.10775   0.16665   0.32549   0.00000  Uiso   1.00
O5     O     0.18694   0.16666   0.32549   0.00000  Uiso   1.00
C6     C     0.14119   0.16185   0.34947   0.00000  Uiso   1.00
Cu7    Cu    0.11978   0.16666   0.25000   0.00000  Uiso   1.00
Cu8    Cu    0.21355   0.16667   0.25000   0.00000  Uiso   1.00
O9     O     0.12706   0.10654   0.24999   0.00000  Uiso   1.00
O10    O     0.20625   0.10655   0.24999   0.00000  Uiso   1.00
O11    O     0.14640   0.16667   0.17451   0.00000  Uiso   1.00
O12    O     0.22559   0.16668   0.17451   0.00000  Uiso   1.00
C13    C     0.16664   0.08738   0.25019   0.00000  Uiso   1.00
C14    C     0.19264   0.16700   0.15012   0.00000  Uiso   1.00
C15    C     0.26874   0.16919   0.01036   0.00000  Uiso   1.00
H16    H     0.28303   0.18145   0.08248   0.00000  Uiso   1.00
H17    H     0.28736   0.14932   0.41104   0.00000  Uiso   1.00
H18    H     0.30601   0.17535   0.48785   0.00000  Uiso   1.00
C19    C     0.20721   0.16584   0.09339   0.00000  Uiso   1.00
C20    C     0.07847   0.14572   0.43264   0.00000  Uiso   1.00
C21    C     0.06443   0.13856   0.48574   0.00000  Uiso   1.00
C22    C     0.09835   0.14095   0.01338   0.00000  Uiso   1.00
C23    C     0.14846   0.14725   0.48760   0.00000  Uiso   1.00
C24    C     0.16379   0.14714   0.43253   0.00000  Uiso   1.00
C25    C     0.18406   0.15368   0.01434   0.00000  Uiso   1.00
C26    C     0.23396   0.15805   0.48565   0.00000  Uiso   1.00
C27    C     0.24887   0.15013   0.43269   0.00000  Uiso   1.00
C28    C     0.21443   0.14252   0.40706   0.00000  Uiso   1.00
C29    C     0.17166   0.15741   0.06848   0.00000  Uiso   1.00
C30    C     0.25555   0.17295   0.06405   0.00000  Uiso   1.00
C31    C     0.12792   0.15123   0.40535   0.00000  Uiso   1.00
H32    H     0.13447   0.15395   0.09222   0.00000  Uiso   1.00
H33    H     0.05059   0.14640   0.41283   0.00000  Uiso   1.00
H34    H     0.08420   0.13675   0.05467   0.00000  Uiso   1.00
H35    H     0.02675   0.13201   0.00622   0.00000  Uiso   1.00
H36    H     0.22888   0.13175   0.36763   0.00000  Uiso   1.00
C37    C     0.20481   0.31193   0.26128   0.00000  Uiso   1.00
H38    H     0.23472   0.29578   0.26978   0.00000  Uiso   1.00
C39    C     0.20474   0.02121   0.26152   0.00000  Uiso   1.00
H40    H     0.23439   0.03720   0.27057   0.00000  Uiso   1.00
C41    C     0.16645   0.04276   0.25067   0.00000  Uiso   1.00
C42    C     0.12780   0.02139   0.24043   0.00000  Uiso   1.00
H43    H     0.09787   0.03753   0.23195   0.00000  Uiso   1.00
C44    C     0.12770   0.31211   0.24052   0.00000  Uiso   1.00
H45    H     0.09770   0.29610   0.23216   0.00000  Uiso   1.00
C46    C     0.16634   0.29057   0.25067   0.00000  Uiso   1.00
C47    C     0.29907   0.19114   0.28379   0.00000  Uiso   1.00
H48    H     0.27287   0.21077   0.31088   0.00000  Uiso   1.00
C49    C     0.01528   0.19106   0.28384   0.00000  Uiso   1.00
H50    H     0.02632   0.21063   0.31098   0.00000  Uiso   1.00
N51    N     0.04931   0.16666   0.24998   0.00000  Uiso   1.00
C52    C     0.03453   0.14227   0.21628   0.00000  Uiso   1.00
H53    H     0.06101   0.12268   0.18938   0.00000  Uiso   1.00
C54    C     0.31842   0.14205   0.21614   0.00000  Uiso   1.00
N55    N     0.28402   0.16669   0.24999   0.00000  Uiso   1.00
N56    N     0.30519   0.11559   0.18011   0.00000  Uiso   1.00
O57    O     0.31809   0.12576   0.13143   0.00000  Uiso   1.00
O58    O     0.29695   0.07700   0.19185   0.00000  Uiso   1.00
O59    O     0.46042   0.22678   0.25000   0.00000  Uiso   1.00
O60    O     0.53961   0.22679   0.25000   0.00000  Uiso   1.00
C61    C     0.49988   0.24595   0.25024   0.00000  Uiso   1.00
O62    O     0.44108   0.16665   0.32549   0.00000  Uiso   1.00
O63    O     0.52027   0.16666   0.32549   0.00000  Uiso   1.00
C64    C     0.47453   0.16185   0.34947   0.00000  Uiso   1.00
Cu65   Cu    0.45311   0.16666   0.25000   0.00000  Uiso   1.00
Cu66   Cu    0.54689   0.16667   0.25000   0.00000  Uiso   1.00
O67    O     0.46039   0.10654   0.24999   0.00000  Uiso   1.00
O68    O     0.53958   0.10655   0.24999   0.00000  Uiso   1.00
O69    O     0.47973   0.16667   0.17451   0.00000  Uiso   1.00
O70    O     0.55892   0.16668   0.17451   0.00000  Uiso   1.00
C71    C     0.49998   0.08738   0.25019   0.00000  Uiso   1.00
C72    C     0.52597   0.16700   0.15012   0.00000  Uiso   1.00
C73    C     0.60208   0.16919   0.01036   0.00000  Uiso   1.00
H74    H     0.61637   0.18145   0.08248   0.00000  Uiso   1.00
H75    H     0.62070   0.14932   0.41104   0.00000  Uiso   1.00
H76    H     0.63934   0.17535   0.48785   0.00000  Uiso   1.00
C77    C     0.54055   0.16584   0.09339   0.00000  Uiso   1.00
C78    C     0.41181   0.14572   0.43264   0.00000  Uiso   1.00
C79    C     0.39776   0.13856   0.48574   0.00000  Uiso   1.00
C80    C     0.43169   0.14095   0.01338   0.00000  Uiso   1.00
C81    C     0.48180   0.14725   0.48760   0.00000  Uiso   1.00
C82    C     0.49712   0.14714   0.43253   0.00000  Uiso   1.00
C83    C     0.51739   0.15368   0.01434   0.00000  Uiso   1.00
C84    C     0.56729   0.15805   0.48565   0.00000  Uiso   1.00
C85    C     0.58220   0.15013   0.43269   0.00000  Uiso   1.00
C86    C     0.54776   0.14252   0.40706   0.00000  Uiso   1.00
C87    C     0.50499   0.15741   0.06848   0.00000  Uiso   1.00
C88    C     0.58889   0.17295   0.06405   0.00000  Uiso   1.00
C89    C     0.46125   0.15123   0.40535   0.00000  Uiso   1.00
H90    H     0.46781   0.15395   0.09222   0.00000  Uiso   1.00
H91    H     0.38393   0.14640   0.41283   0.00000  Uiso   1.00
H92    H     0.41754   0.13675   0.05467   0.00000  Uiso   1.00
H93    H     0.36008   0.13201   0.00622   0.00000  Uiso   1.00
H94    H     0.56221   0.13175   0.36763   0.00000  Uiso   1.00
C95    C     0.53814   0.31193   0.26128   0.00000  Uiso   1.00
H96    H     0.56805   0.29578   0.26978   0.00000  Uiso   1.00
C97    C     0.53807   0.02121   0.26152   0.00000  Uiso   1.00
H98    H     0.56772   0.03720   0.27057   0.00000  Uiso   1.00
C99    C     0.49979   0.04276   0.25067   0.00000  Uiso   1.00
C100   C     0.46113   0.02139   0.24043   0.00000  Uiso   1.00
H101   H     0.43120   0.03753   0.23195   0.00000  Uiso   1.00
C102   C     0.46103   0.31211   0.24052   0.00000  Uiso   1.00
H103   H     0.43103   0.29610   0.23216   0.00000  Uiso   1.00
C104   C     0.49967   0.29057   0.25067   0.00000  Uiso   1.00
C105   C     0.63241   0.19114   0.28379   0.00000  Uiso   1.00
H106   H     0.60621   0.21077   0.31088   0.00000  Uiso   1.00
C107   C     0.34862   0.19106   0.28384   0.00000  Uiso   1.00
H108   H     0.35966   0.21063   0.31098   0.00000  Uiso   1.00
N109   N     0.38265   0.16666   0.24998   0.00000  Uiso   1.00
C110   C     0.36786   0.14227   0.21628   0.00000  Uiso   1.00
H111   H     0.39434   0.12268   0.18938   0.00000  Uiso   1.00
C112   C     0.65176   0.14205   0.21614   0.00000  Uiso   1.00
N113   N     0.61735   0.16669   0.24999   0.00000  Uiso   1.00
N114   N     0.63852   0.11559   0.18011   0.00000  Uiso   1.00
O115   O     0.65143   0.12576   0.13143   0.00000  Uiso   1.00
O116   O     0.63028   0.07700   0.19185   0.00000  Uiso   1.00
O117   O     0.79375   0.22678   0.25000   0.00000  Uiso   1.00
O118   O     0.87294   0.22679   0.25000   0.00000  Uiso   1.00
C119   C     0.83321   0.24595   0.25024   0.00000  Uiso   1.00
O120   O     0.77441   0.16665   0.32549   0.00000  Uiso   1.00
O121   O     0.85360   0.16666   0.32549   0.00000  Uiso   1.00
C122   C     0.80786   0.16185   0.34947   0.00000  Uiso   1.00
Cu123  Cu    0.78645   0.16666   0.25000   0.00000  Uiso   1.00
Cu124  Cu    0.88022   0.16667   0.25000   0.00000  Uiso   1.00
O125   O     0.79373   0.10654   0.24999   0.00000  Uiso   1.00
O126   O     0.87292   0.10655   0.24999   0.00000  Uiso   1.00
O127   O     0.81306   0.16667   0.17451   0.00000  Uiso   1.00
O128   O     0.89225   0.16668   0.17451   0.00000  Uiso   1.00
C129   C     0.83331   0.08738   0.25019   0.00000  Uiso   1.00
C130   C     0.85930   0.16700   0.15012   0.00000  Uiso   1.00
C131   C     0.93541   0.16919   0.01036   0.00000  Uiso   1.00
H132   H     0.94970   0.18145   0.08248   0.00000  Uiso   1.00
H133   H     0.95403   0.14932   0.41104   0.00000  Uiso   1.00
H134   H     0.97267   0.17535   0.48785   0.00000  Uiso   1.00
C135   C     0.87388   0.16584   0.09339   0.00000  Uiso   1.00
C136   C     0.74514   0.14572   0.43264   0.00000  Uiso   1.00
C137   C     0.73110   0.13856   0.48574   0.00000  Uiso   1.00
C138   C     0.76502   0.14095   0.01338   0.00000  Uiso   1.00
C139   C     0.81513   0.14725   0.48760   0.00000  Uiso   1.00
C140   C     0.83045   0.14714   0.43253   0.00000  Uiso   1.00
C141   C     0.85072   0.15368   0.01434   0.00000  Uiso   1.00
C142   C     0.90063   0.15805   0.48565   0.00000  Uiso   1.00
C143   C     0.91553   0.15013   0.43269   0.00000  Uiso   1.00
C144   C     0.88110   0.14252   0.40706   0.00000  Uiso   1.00
C145   C     0.83832   0.15741   0.06848   0.00000  Uiso   1.00
C146   C     0.92222   0.17295   0.06405   0.00000  Uiso   1.00
C147   C     0.79458   0.15123   0.40535   0.00000  Uiso   1.00
H148   H     0.80114   0.15395   0.09222   0.00000  Uiso   1.00
H149   H     0.71726   0.14640   0.41283   0.00000  Uiso   1.00
H150   H     0.75087   0.13675   0.05467   0.00000  Uiso   1.00
H151   H     0.69342   0.13201   0.00622   0.00000  Uiso   1.00
H152   H     0.89555   0.13175   0.36763   0.00000  Uiso   1.00
C153   C     0.87148   0.31193   0.26128   0.00000  Uiso   1.00
H154   H     0.90139   0.29578   0.26978   0.00000  Uiso   1.00
C155   C     0.87141   0.02121   0.26152   0.00000  Uiso   1.00
H156   H     0.90106   0.03720   0.27057   0.00000  Uiso   1.00
C157   C     0.83312   0.04276   0.25067   0.00000  Uiso   1.00
C158   C     0.79447   0.02139   0.24043   0.00000  Uiso   1.00
H159   H     0.76453   0.03753   0.23195   0.00000  Uiso   1.00
C160   C     0.79437   0.31211   0.24052   0.00000  Uiso   1.00
H161   H     0.76436   0.29610   0.23216   0.00000  Uiso   1.00
C162   C     0.83301   0.29057   0.25067   0.00000  Uiso   1.00
C163   C     0.96574   0.19114   0.28379   0.00000  Uiso   1.00
H164   H     0.93954   0.21077   0.31088   0.00000  Uiso   1.00
C165   C     0.68195   0.19106   0.28384   0.00000  Uiso   1.00
H166   H     0.69299   0.21063   0.31098   0.00000  Uiso   1.00
N167   N     0.71598   0.16666   0.24998   0.00000  Uiso   1.00
C168   C     0.70120   0.14227   0.21628   0.00000  Uiso   1.00
H169   H     0.72767   0.12268   0.18938   0.00000  Uiso   1.00
C170   C     0.98509   0.14205   0.21614   0.00000  Uiso   1.00
N171   N     0.95069   0.16669   0.24999   0.00000  Uiso   1.00
N172   N     0.97186   0.11559   0.18011   0.00000  Uiso   1.00
O173   O     0.98476   0.12576   0.13143   0.00000  Uiso   1.00
O174   O     0.96362   0.07700   0.19185   0.00000  Uiso   1.00
O175   O     0.12708   0.56011   0.25000   0.00000  Uiso   1.00
O176   O     0.20627   0.56012   0.25000   0.00000  Uiso   1.00
C177   C     0.16655   0.57928   0.25024   0.00000  Uiso   1.00
O178   O     0.10775   0.49998   0.32549   0.00000  Uiso   1.00
O179   O     0.18694   0.49999   0.32549   0.00000  Uiso   1.00
C180   C     0.14119   0.49519   0.34947   0.00000  Uiso   1.00
Cu181  Cu    0.11978   0.49999   0.25000   0.00000  Uiso   1.00
Cu182  Cu    0.21355   0.50001   0.25000   0.00000  Uiso   1.00
O183   O     0.12706   0.43988   0.24999   0.00000  Uiso   1.00
O184   O     0.20625   0.43989   0.24999   0.00000  Uiso   1.00
O185   O     0.14640   0.50001   0.17451   0.00000  Uiso   1.00
O186   O     0.22559   0.50002   0.17451   0.00000  Uiso   1.00
C187   C     0.16664   0.42071   0.25019   0.00000  Uiso   1.00
C188   C     0.19264   0.50033   0.15012   0.00000  Uiso   1.00
C189   C     0.26874   0.50252   0.01036   0.00000  Uiso   1.00
H190   H     0.28303   0.51478   0.08248   0.00000  Uiso   1.00
H191   H     0.28736   0.48265   0.41104   0.00000  Uiso   1.00
H192   H     0.30601   0.50868   0.48785   0.00000  Uiso   1.00
C193   C     0.20721   0.49917   0.09339   0.00000  Uiso   1.00
C194   C     0.07847   0.47906   0.43264   0.00000  Uiso   1.00
C195   C     0.06443   0.47189   0.48574   0.00000  Uiso   1.00
C196   C     0.09835   0.47428   0.01338   0.00000  Uiso   1.00
C197   C     0.14846   0.48058   0.48760   0.00000  Uiso   1.00
C198   C     0.16379   0.48047   0.43253   0.00000  Uiso   1.00
C199   C     0.18406   0.48702   0.01434   0.00000  Uiso   1.00
C200   C     0.23396   0.49138   0.48565   0.00000  Uiso   1.00
C201   C     0.24887   0.48347   0.43269   0.00000  Uiso   1.00
C202   C     0.21443   0.47585   0.40706   0.00000  Uiso   1.00
C203   C     0.17166   0.49075   0.06848   0.00000  Uiso   1.00
C204   C     0.25555   0.50628   0.06405   0.00000  Uiso   1.00
C205   C     0.12792   0.48457   0.40535   0.00000  Uiso   1.00
H206   H     0.13447   0.48728   0.09222   0.00000  Uiso   1.00
H207   H     0.05059   0.47974   0.41283   0.00000  Uiso   1.00
H208   H     0.08420   0.47008   0.05467   0.00000  Uiso   1.00
H209   H     0.02675   0.46535   0.00622   0.00000  Uiso   1.00
H210   H     0.22888   0.46508   0.36763   0.00000  Uiso   1.00
C211   C     0.20481   0.64527   0.26128   0.00000  Uiso   1.00
H212   H     0.23472   0.62912   0.26978   0.00000  Uiso   1.00
C213   C     0.20474   0.35454   0.26152   0.00000  Uiso   1.00
H214   H     0.23439   0.37053   0.27057   0.00000  Uiso   1.00
C215   C     0.16645   0.37609   0.25067   0.00000  Uiso   1.00
C216   C     0.12780   0.35472   0.24043   0.00000  Uiso   1.00
H217   H     0.09787   0.37086   0.23195   0.00000  Uiso   1.00
C218   C     0.12770   0.64544   0.24052   0.00000  Uiso   1.00
H219   H     0.09770   0.62944   0.23216   0.00000  Uiso   1.00
C220   C     0.16634   0.62391   0.25067   0.00000  Uiso   1.00
C221   C     0.29907   0.52447   0.28379   0.00000  Uiso   1.00
H222   H     0.27287   0.54410   0.31088   0.00000  Uiso   1.00
C223   C     0.01528   0.52439   0.28384   0.00000  Uiso   1.00
H224   H     0.02632   0.54396   0.31098   0.00000  Uiso   1.00
N225   N     0.04931   0.49999   0.24998   0.00000  Uiso   1.00
C226   C     0.03453   0.47560   0.21628   0.00000  Uiso   1.00
H227   H     0.06101   0.45601   0.18938   0.00000  Uiso   1.00
C228   C     0.31842   0.47539   0.21614   0.00000  Uiso   1.00
N229   N     0.28402   0.50002   0.24999   0.00000  Uiso   1.00
N230   N     0.30519   0.44892   0.18011   0.00000  Uiso   1.00
O231   O     0.31809   0.45909   0.13143   0.00000  Uiso   1.00
O232   O     0.29695   0.41033   0.19185   0.00000  Uiso   1.00
O233   O     0.46042   0.56011   0.25000   0.00000  Uiso   1.00
O234   O     0.53961   0.56012   0.25000   0.00000  Uiso   1.00
C235   C     0.49988   0.57928   0.25024   0.00000  Uiso   1.00
O236   O     0.44108   0.49998   0.32549   0.00000  Uiso   1.00
O237   O     0.52027   0.49999   0.32549   0.00000  Uiso   1.00
C238   C     0.47453   0.49519   0.34947   0.00000  Uiso   1.00
Cu239  Cu    0.45311   0.49999   0.25000   0.00000  Uiso   1.00
Cu240  Cu    0.54689   0.50001   0.25000   0.00000  Uiso   1.00
O241   O     0.46039   0.43988   0.24999   0.00000  Uiso   1.00
O242   O     0.53958   0.43989   0.24999   0.00000  Uiso   1.00
O243   O     0.47973   0.50001   0.17451   0.00000  Uiso   1.00
O244   O     0.55892   0.50002   0.17451   0.00000  Uiso   1.00
C245   C     0.49998   0.42071   0.25019   0.00000  Uiso   1.00
C246   C     0.52597   0.50033   0.15012   0.00000  Uiso   1.00
C247   C     0.60208   0.50252   0.01036   0.00000  Uiso   1.00
H248   H     0.61637   0.51478   0.08248   0.00000  Uiso   1.00
H249   H     0.62070   0.48265   0.41104   0.00000  Uiso   1.00
H250   H     0.63934   0.50868   0.48785   0.00000  Uiso   1.00
C251   C     0.54055   0.49917   0.09339   0.00000  Uiso   1.00
C252   C     0.41181   0.47906   0.43264   0.00000  Uiso   1.00
C253   C     0.39776   0.47189   0.48574   0.00000  Uiso   1.00
C254   C     0.43169   0.47428   0.01338   0.00000  Uiso   1.00
C255   C     0.48180   0.48058   0.48760   0.00000  Uiso   1.00
C256   C     0.49712   0.48047   0.43253   0.00000  Uiso   1.00
C257   C     0.51739   0.48702   0.01434   0.00000  Uiso   1.00
C258   C     0.56729   0.49138   0.48565   0.00000  Uiso   1.00
C259   C     0.58220   0.48347   0.43269   0.00000  Uiso   1.00
C260   C     0.54776   0.47585   0.40706   0.00000  Uiso   1.00
C261   C     0.50499   0.49075   0.06848   0.00000  Uiso   1.00
C262   C     0.58889   0.50628   0.06405   0.00000  Uiso   1.00
C263   C     0.46125   0.48457   0.40535   0.00000  Uiso   1.00
H264   H     0.46781   0.48728   0.09222   0.00000  Uiso   1.00
H265   H     0.38393   0.47974   0.41283   0.00000  Uiso   1.00
H266   H     0.41754   0.47008   0.05467   0.00000  Uiso   1.00
H267   H     0.36008   0.46535   0.00622   0.00000  Uiso   1.00
H268   H     0.56221   0.46508   0.36763   0.00000  Uiso   1.00
C269   C     0.53814   0.64527   0.26128   0.00000  Uiso   1.00
H270   H     0.56805   0.62912   0.26978   0.00000  Uiso   1.00
C271   C     0.53807   0.35454   0.26152   0.00000  Uiso   1.00
H272   H     0.56772   0.37053   0.27057   0.00000  Uiso   1.00
C273   C     0.49979   0.37609   0.25067   0.00000  Uiso   1.00
C274   C     0.46113   0.35472   0.24043   0.00000  Uiso   1.00
H275   H     0.43120   0.37086   0.23195   0.00000  Uiso   1.00
C276   C     0.46103   0.64544   0.24052   0.00000  Uiso   1.00
H277   H     0.43103   0.62944   0.23216   0.00000  Uiso   1.00
C278   C     0.49967   0.62391   0.25067   0.00000  Uiso   1.00
C279   C     0.63241   0.52447   0.28379   0.00000  Uiso   1.00
H280   H     0.60621   0.54410   0.31088   0.00000  Uiso   1.00
C281   C     0.34862   0.52439   0.28384   0.00000  Uiso   1.00
H282   H     0.35966   0.54396   0.31098   0.00000  Uiso   1.00
N283   N     0.38265   0.49999   0.24998   0.00000  Uiso   1.00
C284   C     0.36786   0.47560   0.21628   0.00000  Uiso   1.00
H285   H     0.39434   0.45601   0.18938   0.00000  Uiso   1.00
C286   C     0.65176   0.47539   0.21614   0.00000  Uiso   1.00
N287   N     0.61735   0.50002   0.24999   0.00000  Uiso   1.00
N288   N     0.63852   0.44892   0.18011   0.00000  Uiso   1.00
O289   O     0.65143   0.45909   0.13143   0.00000  Uiso   1.00
O290   O     0.63028   0.41033   0.19185   0.00000  Uiso   1.00
O291   O     0.79375   0.56011   0.25000   0.00000  Uiso   1.00
O292   O     0.87294   0.56012   0.25000   0.00000  Uiso   1.00
C293   C     0.83321   0.57928   0.25024   0.00000  Uiso   1.00
O294   O     0.77441   0.49998   0.32549   0.00000  Uiso   1.00
O295   O     0.85360   0.49999   0.32549   0.00000  Uiso   1.00
C296   C     0.80786   0.49519   0.34947   0.00000  Uiso   1.00
Cu297  Cu    0.78645   0.49999   0.25000   0.00000  Uiso   1.00
Cu298  Cu    0.88022   0.50001   0.25000   0.00000  Uiso   1.00
O299   O     0.79373   0.43988   0.24999   0.00000  Uiso   1.00
O300   O     0.87292   0.43989   0.24999   0.00000  Uiso   1.00
O301   O     0.81306   0.50001   0.17451   0.00000  Uiso   1.00
O302   O     0.89225   0.50002   0.17451   0.00000  Uiso   1.00
C303   C     0.83331   0.42071   0.25019   0.00000  Uiso   1.00
C304   C     0.85930   0.50033   0.15012   0.00000  Uiso   1.00
C305   C     0.93541   0.50252   0.01036   0.00000  Uiso   1.00
H306   H     0.94970   0.51478   0.08248   0.00000  Uiso   1.00
H307   H     0.95403   0.48265   0.41104   0.00000  Uiso   1.00
H308   H     0.97267   0.50868   0.48785   0.00000  Uiso   1.00
C309   C     0.87388   0.49917   0.09339   0.00000  Uiso   1.00
C310   C     0.74514   0.47906   0.43264   0.00000  Uiso   1.00
C311   C     0.73110   0.47189   0.48574   0.00000  Uiso   1.00
C312   C     0.76502   0.47428   0.01338   0.00000  Uiso   1.00
C313   C     0.81513   0.48058   0.48760   0.00000  Uiso   1.00
C314   C     0.83045   0.48047   0.43253   0.00000  Uiso   1.00
C315   C     0.85072   0.48702   0.01434   0.00000  Uiso   1.00
C316   C     0.90063   0.49138   0.48565   0.00000  Uiso   1.00
C317   C     0.91553   0.48347   0.43269   0.00000  Uiso   1.00
C318   C     0.88110   0.47585   0.40706   0.00000  Uiso   1.00
C319   C     0.83832   0.49075   0.06848   0.00000  Uiso   1.00
C320   C     0.92222   0.50628   0.06405   0.00000  Uiso   1.00
C321   C     0.79458   0.48457   0.40535   0.00000  Uiso   1.00
H322   H     0.80114   0.48728   0.09222   0.00000  Uiso   1.00
H323   H     0.71726   0.47974   0.41283   0.00000  Uiso   1.00
H324   H     0.75087   0.47008   0.05467   0.00000  Uiso   1.00
H325   H     0.69342   0.46535   0.00622   0.00000  Uiso   1.00
H326   H     0.89555   0.46508   0.36763   0.00000  Uiso   1.00
C327   C     0.87148   0.64527   0.26128   0.00000  Uiso   1.00
H328   H     0.90139   0.62912   0.26978   0.00000  Uiso   1.00
C329   C     0.87141   0.35454   0.26152   0.00000  Uiso   1.00
H330   H     0.90106   0.37053   0.27057   0.00000  Uiso   1.00
C331   C     0.83312   0.37609   0.25067   0.00000  Uiso   1.00
C332   C     0.79447   0.35472   0.24043   0.00000  Uiso   1.00
H333   H     0.76453   0.37086   0.23195   0.00000  Uiso   1.00
C334   C     0.79437   0.64544   0.24052   0.00000  Uiso   1.00
H335   H     0.76436   0.62944   0.23216   0.00000  Uiso   1.00
C336   C     0.83301   0.62391   0.25067   0.00000  Uiso   1.00
C337   C     0.96574   0.52447   0.28379   0.00000  Uiso   1.00
H338   H     0.93954   0.54410   0.31088   0.00000  Uiso   1.00
C339   C     0.68195   0.52439   0.28384   0.00000  Uiso   1.00
H340   H     0.69299   0.54396   0.31098   0.00000  Uiso   1.00
N341   N     0.71598   0.49999   0.24998   0.00000  Uiso   1.00
C342   C     0.70120   0.47560   0.21628   0.00000  Uiso   1.00
H343   H     0.72767   0.45601   0.18938   0.00000  Uiso   1.00
C344   C     0.98509   0.47539   0.21614   0.00000  Uiso   1.00
N345   N     0.95069   0.50002   0.24999   0.00000  Uiso   1.00
N346   N     0.97186   0.44892   0.18011   0.00000  Uiso   1.00
O347   O     0.98476   0.45909   0.13143   0.00000  Uiso   1.00
O348   O     0.96362   0.41033   0.19185   0.00000  Uiso   1.00
O349   O     0.12708   0.89345   0.25000   0.00000  Uiso   1.00
O350   O     0.20627   0.89346   0.25000   0.00000  Uiso   1.00
C351   C     0.16655   0.91262   0.25024   0.00000  Uiso   1.00
O352   O     0.10775   0.83332   0.32549   0.00000  Uiso   1.00
O353   O     0.18694   0.83333   0.32549   0.00000  Uiso   1.00
C354   C     0.14119   0.82852   0.34947   0.00000  Uiso   1.00
Cu355  Cu    0.11978   0.83333   0.25000   0.00000  Uiso   1.00
Cu356  Cu    0.21355   0.83334   0.25000   0.00000  Uiso   1.00
O357   O     0.12706   0.77321   0.24999   0.00000  Uiso   1.00
O358   O     0.20625   0.77322   0.24999   0.00000  Uiso   1.00
O359   O     0.14640   0.83334   0.17451   0.00000  Uiso   1.00
O360   O     0.22559   0.83335   0.17451   0.00000  Uiso   1.00
C361   C     0.16664   0.75405   0.25019   0.00000  Uiso   1.00
C362   C     0.19264   0.83367   0.15012   0.00000  Uiso   1.00
C363   C     0.26874   0.83586   0.01036   0.00000  Uiso   1.00
H364   H     0.28303   0.84811   0.08248   0.00000  Uiso   1.00
H365   H     0.28736   0.81598   0.41104   0.00000  Uiso   1.00
H366   H     0.30601   0.84202   0.48785   0.00000  Uiso   1.00
C367   C     0.20721   0.83250   0.09339   0.00000  Uiso   1.00
C368   C     0.07847   0.81239   0.43264   0.00000  Uiso   1.00
C369   C     0.06443   0.80522   0.48574   0.00000  Uiso   1.00
C370   C     0.09835   0.80762   0.01338   0.00000  Uiso   1.00
C371   C     0.14846   0.81392   0.48760   0.00000  Uiso   1.00
C372   C     0.16379   0.81380   0.43253   0.00000  Uiso   1.00
C373   C     0.18406   0.82035   0.01434   0.00000  Uiso   1.00
C374   C     0.23396   0.82472   0.48565   0.00000  Uiso   1.00
C375   C     0.24887   0.81680   0.43269   0.00000  Uiso   1.00
C376   C     0.21443   0.80919   0.40706   0.00000  Uiso   1.00
C377   C     0.17166   0.82408   0.06848   0.00000  Uiso   1.00
C378   C     0.25555   0.83961   0.06405   0.00000  Uiso   1.00
C379   C     0.12792   0.81790   0.40535   0.00000  Uiso   1.00
H380   H     0.13447   0.82061   0.09222   0.00000  Uiso   1.00
H381   H     0.05059   0.81307   0.41283   0.00000  Uiso   1.00
H382   H     0.08420   0.80341   0.05467   0.00000  Uiso   1.00
H383   H     0.02675   0.79868   0.00622   0.00000  Uiso   1.00
H384   H     0.22888   0.79842   0.36763   0.00000  Uiso   1.00
C385   C     0.20481   0.97860   0.26128   0.00000  Uiso   1.00
H386   H     0.23472   0.96245   0.26978   0.00000  Uiso   1.00
C387   C     0.20474   0.68788   0.26152   0.00000  Uiso   1.00
H388   H     0.23439   0.70387   0.27057   0.00000  Uiso   1.00
C389   C     0.16645   0.70942   0.25067   0.00000  Uiso   1.00
C390   C     0.12780   0.68806   0.24043   0.00000  Uiso   1.00
H391   H     0.09787   0.70420   0.23195   0.00000  Uiso   1.00
C392   C     0.12770   0.97878   0.24052   0.00000  Uiso   1.00
H393   H     0.09770   0.96277   0.23216   0.00000  Uiso   1.00
C394   C     0.16634   0.95724   0.25067   0.00000  Uiso   1.00
C395   C     0.29907   0.85780   0.28379   0.00000  Uiso   1.00
H396   H     0.27287   0.87743   0.31088   0.00000  Uiso   1.00
C397   C     0.01528   0.85772   0.28384   0.00000  Uiso   1.00
H398   H     0.02632   0.87729   0.31098   0.00000  Uiso   1.00
N399   N     0.04931   0.83332   0.24998   0.00000  Uiso   1.00
C400   C     0.03453   0.80894   0.21628   0.00000  Uiso   1.00
H401   H     0.06101   0.78935   0.18938   0.00000  Uiso   1.00
C402   C     0.31842   0.80872   0.21614   0.00000  Uiso   1.00
N403   N     0.28402   0.83335   0.24999   0.00000  Uiso   1.00
N404   N     0.30519   0.78226   0.18011   0.00000  Uiso   1.00
O405   O     0.31809   0.79243   0.13143   0.00000  Uiso   1.00
O406   O     0.29695   0.74367   0.19185   0.00000  Uiso   1.00
O407   O     0.46042   0.89345   0.25000   0.00000  Uiso   1.00
O408   O     0.53961   0.89346   0.25000   0.00000  Uiso   1.00
C409   C     0.49988   0.91262   0.25024   0.00000  Uiso   1.00
O410   O     0.44108   0.83332   0.32549   0.00000  Uiso   1.00
O411   O     0.52027   0.83333   0.32549   0.00000  Uiso   1.00
C412   C     0.47453   0.82852   0.34947   0.00000  Uiso   1.00
Cu413  Cu    0.45311   0.83333   0.25000   0.00000  Uiso   1.00
Cu414  Cu    0.54689   0.83334   0.25000   0.00000  Uiso   1.00
O415   O     0.46039   0.77321   0.24999   0.00000  Uiso   1.00
O416   O     0.53958   0.77322   0.24999   0.00000  Uiso   1.00
O417   O     0.47973   0.83334   0.17451   0.00000  Uiso   1.00
O418   O     0.55892   0.83335   0.17451   0.00000  Uiso   1.00
C419   C     0.49998   0.75405   0.25019   0.00000  Uiso   1.00
C420   C     0.52597   0.83367   0.15012   0.00000  Uiso   1.00
C421   C     0.60208   0.83586   0.01036   0.00000  Uiso   1.00
H422   H     0.61637   0.84811   0.08248   0.00000  Uiso   1.00
H423   H     0.62070   0.81598   0.41104   0.00000  Uiso   1.00
H424   H     0.63934   0.84202   0.48785   0.00000  Uiso   1.00
C425   C     0.54055   0.83250   0.09339   0.00000  Uiso   1.00
C426   C     0.41181   0.81239   0.43264   0.00000  Uiso   1.00
C427   C     0.39776   0.80522   0.48574   0.00000  Uiso   1.00
C428   C     0.43169   0.80762   0.01338   0.00000  Uiso   1.00
C429   C     0.48180   0.81392   0.48760   0.00000  Uiso   1.00
C430   C     0.49712   0.81380   0.43253   0.00000  Uiso   1.00
C431   C     0.51739   0.82035   0.01434   0.00000  Uiso   1.00
C432   C     0.56729   0.82472   0.48565   0.00000  Uiso   1.00
C433   C     0.58220   0.81680   0.43269   0.00000  Uiso   1.00
C434   C     0.54776   0.80919   0.40706   0.00000  Uiso   1.00
C435   C     0.50499   0.82408   0.06848   0.00000  Uiso   1.00
C436   C     0.58889   0.83961   0.06405   0.00000  Uiso   1.00
C437   C     0.46125   0.81790   0.40535   0.00000  Uiso   1.00
H438   H     0.46781   0.82061   0.09222   0.00000  Uiso   1.00
H439   H     0.38393   0.81307   0.41283   0.00000  Uiso   1.00
H440   H     0.41754   0.80341   0.05467   0.00000  Uiso   1.00
H441   H     0.36008   0.79868   0.00622   0.00000  Uiso   1.00
H442   H     0.56221   0.79842   0.36763   0.00000  Uiso   1.00
C443   C     0.53814   0.97860   0.26128   0.00000  Uiso   1.00
H444   H     0.56805   0.96245   0.26978   0.00000  Uiso   1.00
C445   C     0.53807   0.68788   0.26152   0.00000  Uiso   1.00
H446   H     0.56772   0.70387   0.27057   0.00000  Uiso   1.00
C447   C     0.49979   0.70942   0.25067   0.00000  Uiso   1.00
C448   C     0.46113   0.68806   0.24043   0.00000  Uiso   1.00
H449   H     0.43120   0.70420   0.23195   0.00000  Uiso   1.00
C450   C     0.46103   0.97878   0.24052   0.00000  Uiso   1.00
H451   H     0.43103   0.96277   0.23216   0.00000  Uiso   1.00
C452   C     0.49967   0.95724   0.25067   0.00000  Uiso   1.00
C453   C     0.63241   0.85780   0.28379   0.00000  Uiso   1.00
H454   H     0.60621   0.87743   0.31088   0.00000  Uiso   1.00
C455   C     0.34862   0.85772   0.28384   0.00000  Uiso   1.00
H456   H     0.35966   0.87729   0.31098   0.00000  Uiso   1.00
N457   N     0.38265   0.83332   0.24998   0.00000  Uiso   1.00
C458   C     0.36786   0.80894   0.21628   0.00000  Uiso   1.00
H459   H     0.39434   0.78935   0.18938   0.00000  Uiso   1.00
C460   C     0.65176   0.80872   0.21614   0.00000  Uiso   1.00
N461   N     0.61735   0.83335   0.24999   0.00000  Uiso   1.00
N462   N     0.63852   0.78226   0.18011   0.00000  Uiso   1.00
O463   O     0.65143   0.79243   0.13143   0.00000  Uiso   1.00
O464   O     0.63028   0.74367   0.19185   0.00000  Uiso   1.00
O465   O     0.79375   0.89345   0.25000   0.00000  Uiso   1.00
O466   O     0.87294   0.89346   0.25000   0.00000  Uiso   1.00
C467   C     0.83321   0.91262   0.25024   0.00000  Uiso   1.00
O468   O     0.77441   0.83332   0.32549   0.00000  Uiso   1.00
O469   O     0.85360   0.83333   0.32549   0.00000  Uiso   1.00
C470   C     0.80786   0.82852   0.34947   0.00000  Uiso   1.00
Cu471  Cu    0.78645   0.83333   0.25000   0.00000  Uiso   1.00
Cu472  Cu    0.88022   0.83334   0.25000   0.00000  Uiso   1.00
O473   O     0.79373   0.77321   0.24999   0.00000  Uiso   1.00
O474   O     0.87292   0.77322   0.24999   0.00000  Uiso   1.00
O475   O     0.81306   0.83334   0.17451   0.00000  Uiso   1.00
O476   O     0.89225   0.83335   0.17451   0.00000  Uiso   1.00
C477   C     0.83331   0.75405   0.25019   0.00000  Uiso   1.00
C478   C     0.85930   0.83367   0.15012   0.00000  Uiso   1.00
C479   C     0.93541   0.83586   0.01036   0.00000  Uiso   1.00
H480   H     0.94970   0.84811   0.08248   0.00000  Uiso   1.00
H481   H     0.95403   0.81598   0.41104   0.00000  Uiso   1.00
H482   H     0.97267   0.84202   0.48785   0.00000  Uiso   1.00
C483   C     0.87388   0.83250   0.09339   0.00000  Uiso   1.00
C484   C     0.74514   0.81239   0.43264   0.00000  Uiso   1.00
C485   C     0.73110   0.80522   0.48574   0.00000  Uiso   1.00
C486   C     0.76502   0.80762   0.01338   0.00000  Uiso   1.00
C487   C     0.81513   0.81392   0.48760   0.00000  Uiso   1.00
C488   C     0.83045   0.81380   0.43253   0.00000  Uiso   1.00
C489   C     0.85072   0.82035   0.01434   0.00000  Uiso   1.00
C490   C     0.90063   0.82472   0.48565   0.00000  Uiso   1.00
C491   C     0.91553   0.81680   0.43269   0.00000  Uiso   1.00
C492   C     0.88110   0.80919   0.40706   0.00000  Uiso   1.00
C493   C     0.83832   0.82408   0.06848   0.00000  Uiso   1.00
C494   C     0.92222   0.83961   0.06405   0.00000  Uiso   1.00
C495   C     0.79458   0.81790   0.40535   0.00000  Uiso   1.00
H496   H     0.80114   0.82061   0.09222   0.00000  Uiso   1.00
H497   H     0.71726   0.81307   0.41283   0.00000  Uiso   1.00
H498   H     0.75087   0.80341   0.05467   0.00000  Uiso   1.00
H499   H     0.69342   0.79868   0.00622   0.00000  Uiso   1.00
H500   H     0.89555   0.79842   0.36763   0.00000  Uiso   1.00
C501   C     0.87148   0.97860   0.26128   0.00000  Uiso   1.00
H502   H     0.90139   0.96245   0.26978   0.00000  Uiso   1.00
C503   C     0.87141   0.68788   0.26152   0.00000  Uiso   1.00
H504   H     0.90106   0.70387   0.27057   0.00000  Uiso   1.00
C505   C     0.83312   0.70942   0.25067   0.00000  Uiso   1.00
C506   C     0.79447   0.68806   0.24043   0.00000  Uiso   1.00
H507   H     0.76453   0.70420   0.23195   0.00000  Uiso   1.00
C508   C     0.79437   0.97878   0.24052   0.00000  Uiso   1.00
H509   H     0.76436   0.96277   0.23216   0.00000  Uiso   1.00
C510   C     0.83301   0.95724   0.25067   0.00000  Uiso   1.00
C511   C     0.96574   0.85780   0.28379   0.00000  Uiso   1.00
H512   H     0.93954   0.87743   0.31088   0.00000  Uiso   1.00
C513   C     0.68195   0.85772   0.28384   0.00000  Uiso   1.00
H514   H     0.69299   0.87729   0.31098   0.00000  Uiso   1.00
N515   N     0.71598   0.83332   0.24998   0.00000  Uiso   1.00
C516   C     0.70120   0.80894   0.21628   0.00000  Uiso   1.00
H517   H     0.72767   0.78935   0.18938   0.00000  Uiso   1.00
C518   C     0.98509   0.80872   0.21614   0.00000  Uiso   1.00
N519   N     0.95069   0.83335   0.24999   0.00000  Uiso   1.00
N520   N     0.97186   0.78226   0.18011   0.00000  Uiso   1.00
O521   O     0.98476   0.79243   0.13143   0.00000  Uiso   1.00
O522   O     0.96362   0.74367   0.19185   0.00000  Uiso   1.00
O523   O     0.12708   0.22678   0.75000   0.00000  Uiso   1.00
O524   O     0.20627   0.22679   0.75000   0.00000  Uiso   1.00
C525   C     0.16655   0.24595   0.75024   0.00000  Uiso   1.00
O526   O     0.10775   0.16665   0.82549   0.00000  Uiso   1.00
O527   O     0.18694   0.16666   0.82549   0.00000  Uiso   1.00
C528   C     0.14119   0.16185   0.84947   0.00000  Uiso   1.00
Cu529  Cu    0.11978   0.16666   0.75000   0.00000  Uiso   1.00
Cu530  Cu    0.21355   0.16667   0.75000   0.00000  Uiso   1.00
O531   O     0.12706   0.10654   0.74999   0.00000  Uiso   1.00
O532   O     0.20625   0.10655   0.74999   0.00000  Uiso   1.00
O533   O     0.14640   0.16667   0.67451   0.00000  Uiso   1.00
O534   O     0.22559   0.16668   0.67451   0.00000  Uiso   1.00
C535   C     0.16664   0.08738   0.75019   0.00000  Uiso   1.00
C536   C     0.19264   0.16700   0.65012   0.00000  Uiso   1.00
C537   C     0.26874   0.16919   0.51036   0.00000  Uiso   1.00
H538   H     0.28303   0.18145   0.58248   0.00000  Uiso   1.00
H539   H     0.28736   0.14932   0.91104   0.00000  Uiso   1.00
H540   H     0.30601   0.17535   0.98785   0.00000  Uiso   1.00
C541   C     0.20721   0.16584   0.59339   0.00000  Uiso   1.00
C542   C     0.07847   0.14572   0.93264   0.00000  Uiso   1.00
C543   C     0.06443   0.13856   0.98574   0.00000  Uiso   1.00
C544   C     0.09835   0.14095   0.51338   0.00000  Uiso   1.00
C545   C     0.14846   0.14725   0.98760   0.00000  Uiso   1.00
C546   C     0.16379   0.14714   0.93253   0.00000  Uiso   1.00
C547   C     0.18406   0.15368   0.51434   0.00000  Uiso   1.00
C548   C     0.23396   0.15805   0.98565   0.00000  Uiso   1.00
C549   C     0.24887   0.15013   0.93269   0.00000  Uiso   1.00
C550   C     0.21443   0.14252   0.90706   0.00000  Uiso   1.00
C551   C     0.17166   0.15741   0.56848   0.00000  Uiso   1.00
C552   C     0.25555   0.17295   0.56405   0.00000  Uiso   1.00
C553   C     0.12792   0.15123   0.90535   0.00000  Uiso   1.00
H554   H     0.13447   0.15395   0.59222   0.00000  Uiso   1.00
H555   H     0.05059   0.14640   0.91283   0.00000  Uiso   1.00
H556   H     0.08420   0.13675   0.55467   0.00000  Uiso   1.00
H557   H     0.02675   0.13201   0.50622   0.00000  Uiso   1.00
H558   H     0.22888   0.13175   0.86763   0.00000  Uiso   1.00
C559   C     0.20481   0.31193   0.76128   0.00000  Uiso   1.00
H560   H     0.23472   0.29578   0.76978   0.00000  Uiso   1.00
C561   C     0.20474   0.02121   0.76152   0.00000  Uiso   1.00
H562   H     0.23439   0.03720   0.77057   0.00000  Uiso   1.00
C563   C     0.16645   0.04276   0.75067   0.00000  Uiso   1.00
C564   C     0.12780   0.02139   0.74043   0.00000  Uiso   1.00
H565   H     0.09787   0.03753   0.73195   0.00000  Uiso   1.00
C566   C     0.12770   0.31211   0.74052   0.00000  Uiso   1.00
H567   H     0.09770   0.29610   0.73216   0.00000  Uiso   1.00
C568   C     0.16634   0.29057   0.75067   0.00000  Uiso   1.00
C569   C     0.29907   0.19114   0.78379   0.00000  Uiso   1.00
H570   H     0.27287   0.21077   0.81088   0.00000  Uiso   1.00
C571   C     0.01528   0.19106   0.78384   0.00000  Uiso   1.00
H572   H     0.02632   0.21063   0.81098   0.00000  Uiso   1.00
N573   N     0.04931   0.16666   0.74998   0.00000  Uiso   1.00
C574   C     0.03453   0.14227   0.71628   0.00000  Uiso   1.00
H575   H     0.06101   0.12268   0.68938   0.00000  Uiso   1.00
C576   C     0.31842   0.14205   0.71614   0.00000  Uiso   1.00
N577   N     0.28402   0.16669   0.74999   0.00000  Uiso   1.00
N578   N     0.30519   0.11559   0.68011   0.00000  Uiso   1.00
O579   O     0.31809   0.12576   0.63143   0.00000  Uiso   1.00
O580   O     0.29695   0.07700   0.69185   0.00000  Uiso   1.00
O581   O     0.46042   0.22678   0.75000   0.00000  Uiso   1.00
O582   O     0.53961   0.22679   0.75000   0.00000  Uiso   1.00
C583   C     0.49988   0.24595   0.75024   0.00000  Uiso   1.00
O584   O     0.44108   0.16665   0.82549   0.00000  Uiso   1.00
O585   O     0.52027   0.16666   0.82549   0.00000  Uiso   1.00
C586   C     0.47453   0.16185   0.84947   0.00000  Uiso   1.00
Cu587  Cu    0.45311   0.16666   0.75000   0.00000  Uiso   1.00
Cu588  Cu    0.54689   0.16667   0.75000   0.00000  Uiso   1.00
O589   O     0.46039   0.10654   0.74999   0.00000  Uiso   1.00
O590   O     0.53958   0.10655   0.74999   0.00000  Uiso   1.00
O591   O     0.47973   0.16667   0.67451   0.00000  Uiso   1.00
O592   O     0.55892   0.16668   0.67451   0.00000  Uiso   1.00
C593   C     0.49998   0.08738   0.75019   0.00000  Uiso   1.00
C594   C     0.52597   0.16700   0.65012   0.00000  Uiso   1.00
C595   C     0.60208   0.16919   0.51036   0.00000  Uiso   1.00
H596   H     0.61637   0.18145   0.58248   0.00000  Uiso   1.00
H597   H     0.62070   0.14932   0.91104   0.00000  Uiso   1.00
H598   H     0.63934   0.17535   0.98785   0.00000  Uiso   1.00
C599   C     0.54055   0.16584   0.59339   0.00000  Uiso   1.00
C600   C     0.41181   0.14572   0.93264   0.00000  Uiso   1.00
C601   C     0.39776   0.13856   0.98574   0.00000  Uiso   1.00
C602   C     0.43169   0.14095   0.51338   0.00000  Uiso   1.00
C603   C     0.48180   0.14725   0.98760   0.00000  Uiso   1.00
C604   C     0.49712   0.14714   0.93253   0.00000  Uiso   1.00
C605   C     0.51739   0.15368   0.51434   0.00000  Uiso   1.00
C606   C     0.56729   0.15805   0.98565   0.00000  Uiso   1.00
C607   C     0.58220   0.15013   0.93269   0.00000  Uiso   1.00
C608   C     0.54776   0.14252   0.90706   0.00000  Uiso   1.00
C609   C     0.50499   0.15741   0.56848   0.00000  Uiso   1.00
C610   C     0.58889   0.17295   0.56405   0.00000  Uiso   1.00
C611   C     0.46125   0.15123   0.90535   0.00000  Uiso   1.00
H612   H     0.46781   0.15395   0.59222   0.00000  Uiso   1.00
H613   H     0.38393   0.14640   0.91283   0.00000  Uiso   1.00
H614   H     0.41754   0.13675   0.55467   0.00000  Uiso   1.00
H615   H     0.36008   0.13201   0.50622   0.00000  Uiso   1.00
H616   H     0.56221   0.13175   0.86763   0.00000  Uiso   1.00
C617   C     0.53814   0.31193   0.76128   0.00000  Uiso   1.00
H618   H     0.56805   0.29578   0.76978   0.00000  Uiso   1.00
C619   C     0.53807   0.02121   0.76152   0.00000  Uiso   1.00
H620   H     0.56772   0.03720   0.77057   0.00000  Uiso   1.00
C621   C     0.49979   0.04276   0.75067   0.00000  Uiso   1.00
C622   C     0.46113   0.02139   0.74043   0.00000  Uiso   1.00
H623   H     0.43120   0.03753   0.73195   0.00000  Uiso   1.00
C624   C     0.46103   0.31211   0.74052   0.00000  Uiso   1.00
H625   H     0.43103   0.29610   0.73216   0.00000  Uiso   1.00
C626   C     0.49967   0.29057   0.75067   0.00000  Uiso   1.00
C627   C     0.63241   0.19114   0.78379   0.00000  Uiso   1.00
H628   H     0.60621   0.21077   0.81088   0.00000  Uiso   1.00
C629   C     0.34862   0.19106   0.78384   0.00000  Uiso   1.00
H630   H     0.35966   0.21063   0.81098   0.00000  Uiso   1.00
N631   N     0.38265   0.16666   0.74998   0.00000  Uiso   1.00
C632   C     0.36786   0.14227   0.71628   0.00000  Uiso   1.00
H633   H     0.39434   0.12268   0.68938   0.00000  Uiso   1.00
C634   C     0.65176   0.14205   0.71614   0.00000  Uiso   1.00
N635   N     0.61735   0.16669   0.74999   0.00000  Uiso   1.00
N636   N     0.63852   0.11559   0.68011   0.00000  Uiso   1.00
O637   O     0.65143   0.12576   0.63143   0.00000  Uiso   1.00
O638   O     0.63028   0.07700   0.69185   0.00000  Uiso   1.00
O639   O     0.79375   0.22678   0.75000   0.00000  Uiso   1.00
O640   O     0.87294   0.22679   0.75000   0.00000  Uiso   1.00
C641   C     0.83321   0.24595   0.75024   0.00000  Uiso   1.00
O642   O     0.77441   0.16665   0.82549   0.00000  Uiso   1.00
O643   O     0.85360   0.16666   0.82549   0.00000  Uiso   1.00
C644   C     0.80786   0.16185   0.84947   0.00000  Uiso   1.00
Cu645  Cu    0.78645   0.16666   0.75000   0.00000  Uiso   1.00
Cu646  Cu    0.88022   0.16667   0.75000   0.00000  Uiso   1.00
O647   O     0.79373   0.10654   0.74999   0.00000  Uiso   1.00
O648   O     0.87292   0.10655   0.74999   0.00000  Uiso   1.00
O649   O     0.81306   0.16667   0.67451   0.00000  Uiso   1.00
O650   O     0.89225   0.16668   0.67451   0.00000  Uiso   1.00
C651   C     0.83331   0.08738   0.75019   0.00000  Uiso   1.00
C652   C     0.85930   0.16700   0.65012   0.00000  Uiso   1.00
C653   C     0.93541   0.16919   0.51036   0.00000  Uiso   1.00
H654   H     0.94970   0.18145   0.58248   0.00000  Uiso   1.00
H655   H     0.95403   0.14932   0.91104   0.00000  Uiso   1.00
H656   H     0.97267   0.17535   0.98785   0.00000  Uiso   1.00
C657   C     0.87388   0.16584   0.59339   0.00000  Uiso   1.00
C658   C     0.74514   0.14572   0.93264   0.00000  Uiso   1.00
C659   C     0.73110   0.13856   0.98574   0.00000  Uiso   1.00
C660   C     0.76502   0.14095   0.51338   0.00000  Uiso   1.00
C661   C     0.81513   0.14725   0.98760   0.00000  Uiso   1.00
C662   C     0.83045   0.14714   0.93253   0.00000  Uiso   1.00
C663   C     0.85072   0.15368   0.51434   0.00000  Uiso   1.00
C664   C     0.90063   0.15805   0.98565   0.00000  Uiso   1.00
C665   C     0.91553   0.15013   0.93269   0.00000  Uiso   1.00
C666   C     0.88110   0.14252   0.90706   0.00000  Uiso   1.00
C667   C     0.83832   0.15741   0.56848   0.00000  Uiso   1.00
C668   C     0.92222   0.17295   0.56405   0.00000  Uiso   1.00
C669   C     0.79458   0.15123   0.90535   0.00000  Uiso   1.00
H670   H     0.80114   0.15395   0.59222   0.00000  Uiso   1.00
H671   H     0.71726   0.14640   0.91283   0.00000  Uiso   1.00
H672   H     0.75087   0.13675   0.55467   0.00000  Uiso   1.00
H673   H     0.69342   0.13201   0.50622   0.00000  Uiso   1.00
H674   H     0.89555   0.13175   0.86763   0.00000  Uiso   1.00
C675   C     0.87148   0.31193   0.76128   0.00000  Uiso   1.00
H676   H     0.90139   0.29578   0.76978   0.00000  Uiso   1.00
C677   C     0.87141   0.02121   0.76152   0.00000  Uiso   1.00
H678   H     0.90106   0.03720   0.77057   0.00000  Uiso   1.00
C679   C     0.83312   0.04276   0.75067   0.00000  Uiso   1.00
C680   C     0.79447   0.02139   0.74043   0.00000  Uiso   1.00
H681   H     0.76453   0.03753   0.73195   0.00000  Uiso   1.00
C682   C     0.79437   0.31211   0.74052   0.00000  Uiso   1.00
H683   H     0.76436   0.29610   0.73216   0.00000  Uiso   1.00
C684   C     0.83301   0.29057   0.75067   0.00000  Uiso   1.00
C685   C     0.96574   0.19114   0.78379   0.00000  Uiso   1.00
H686   H     0.93954   0.21077   0.81088   0.00000  Uiso   1.00
C687   C     0.68195   0.19106   0.78384   0.00000  Uiso   1.00
H688   H     0.69299   0.21063   0.81098   0.00000  Uiso   1.00
N689   N     0.71598   0.16666   0.74998   0.00000  Uiso   1.00
C690   C     0.70120   0.14227   0.71628   0.00000  Uiso   1.00
H691   H     0.72767   0.12268   0.68938   0.00000  Uiso   1.00
C692   C     0.98509   0.14205   0.71614   0.00000  Uiso   1.00
N693   N     0.95069   0.16669   0.74999   0.00000  Uiso   1.00
N694   N     0.97186   0.11559   0.68011   0.00000  Uiso   1.00
O695   O     0.98476   0.12576   0.63143   0.00000  Uiso   1.00
O696   O     0.96362   0.07700   0.69185   0.00000  Uiso   1.00
O697   O     0.12708   0.56011   0.75000   0.00000  Uiso   1.00
O698   O     0.20627   0.56012   0.75000   0.00000  Uiso   1.00
C699   C     0.16655   0.57928   0.75024   0.00000  Uiso   1.00
O700   O     0.10775   0.49998   0.82549   0.00000  Uiso   1.00
O701   O     0.18694   0.49999   0.82549   0.00000  Uiso   1.00
C702   C     0.14119   0.49519   0.84947   0.00000  Uiso   1.00
Cu703  Cu    0.11978   0.49999   0.75000   0.00000  Uiso   1.00
Cu704  Cu    0.21355   0.50001   0.75000   0.00000  Uiso   1.00
O705   O     0.12706   0.43988   0.74999   0.00000  Uiso   1.00
O706   O     0.20625   0.43989   0.74999   0.00000  Uiso   1.00
O707   O     0.14640   0.50001   0.67451   0.00000  Uiso   1.00
O708   O     0.22559   0.50002   0.67451   0.00000  Uiso   1.00
C709   C     0.16664   0.42071   0.75019   0.00000  Uiso   1.00
C710   C     0.19264   0.50033   0.65012   0.00000  Uiso   1.00
C711   C     0.26874   0.50252   0.51036   0.00000  Uiso   1.00
H712   H     0.28303   0.51478   0.58248   0.00000  Uiso   1.00
H713   H     0.28736   0.48265   0.91104   0.00000  Uiso   1.00
H714   H     0.30601   0.50868   0.98785   0.00000  Uiso   1.00
C715   C     0.20721   0.49917   0.59339   0.00000  Uiso   1.00
C716   C     0.07847   0.47906   0.93264   0.00000  Uiso   1.00
C717   C     0.06443   0.47189   0.98574   0.00000  Uiso   1.00
C718   C     0.09835   0.47428   0.51338   0.00000  Uiso   1.00
C719   C     0.14846   0.48058   0.98760   0.00000  Uiso   1.00
C720   C     0.16379   0.48047   0.93253   0.00000  Uiso   1.00
C721   C     0.18406   0.48702   0.51434   0.00000  Uiso   1.00
C722   C     0.23396   0.49138   0.98565   0.00000  Uiso   1.00
C723   C     0.24887   0.48347   0.93269   0.00000  Uiso   1.00
C724   C     0.21443   0.47585   0.90706   0.00000  Uiso   1.00
C725   C     0.17166   0.49075   0.56848   0.00000  Uiso   1.00
C726   C     0.25555   0.50628   0.56405   0.00000  Uiso   1.00
C727   C     0.12792   0.48457   0.90535   0.00000  Uiso   1.00
H728   H     0.13447   0.48728   0.59222   0.00000  Uiso   1.00
H729   H     0.05059   0.47974   0.91283   0.00000  Uiso   1.00
H730   H     0.08420   0.47008   0.55467   0.00000  Uiso   1.00
H731   H     0.02675   0.46535   0.50622   0.00000  Uiso   1.00
H732   H     0.22888   0.46508   0.86763   0.00000  Uiso   1.00
C733   C     0.20481   0.64527   0.76128   0.00000  Uiso   1.00
H734   H     0.23472   0.62912   0.76978   0.00000  Uiso   1.00
C735   C     0.20474   0.35454   0.76152   0.00000  Uiso   1.00
H736   H     0.23439   0.37053   0.77057   0.00000  Uiso   1.00
C737   C     0.16645   0.37609   0.75067   0.00000  Uiso   1.00
C738   C     0.12780   0.35472   0.74043   0.00000  Uiso   1.00
H739   H     0.09787   0.37086   0.73195   0.00000  Uiso   1.00
C740   C     0.12770   0.64544   0.74052   0.00000  Uiso   1.00
H741   H     0.09770   0.62944   0.73216   0.00000  Uiso   1.00
C742   C     0.16634   0.62391   0.75067   0.00000  Uiso   1.00
C743   C     0.29907   0.52447   0.78379   0.00000  Uiso   1.00
H744   H     0.27287   0.54410   0.81088   0.00000  Uiso   1.00
C745   C     0.01528   0.52439   0.78384   0.00000  Uiso   1.00
H746   H     0.02632   0.54396   0.81098   0.00000  Uiso   1.00
N747   N     0.04931   0.49999   0.74998   0.00000  Uiso   1.00
C748   C     0.03453   0.47560   0.71628   0.00000  Uiso   1.00
H749   H     0.06101   0.45601   0.68938   0.00000  Uiso   1.00
C750   C     0.31842   0.47539   0.71614   0.00000  Uiso   1.00
N751   N     0.28402   0.50002   0.74999   0.00000  Uiso   1.00
N752   N     0.30519   0.44892   0.68011   0.00000  Uiso   1.00
O753   O     0.31809   0.45909   0.63143   0.00000  Uiso   1.00
O754   O     0.29695   0.41033   0.69185   0.00000  Uiso   1.00
O755   O     0.46042   0.56011   0.75000   0.00000  Uiso   1.00
O756   O     0.53961   0.56012   0.75000   0.00000  Uiso   1.00
C757   C     0.49988   0.57928   0.75024   0.00000  Uiso   1.00
O758   O     0.44108   0.49998   0.82549   0.00000  Uiso   1.00
O759   O     0.52027   0.49999   0.82549   0.00000  Uiso   1.00
C760   C     0.47453   0.49519   0.84947   0.00000  Uiso   1.00
Cu761  Cu    0.45311   0.49999   0.75000   0.00000  Uiso   1.00
Cu762  Cu    0.54689   0.50001   0.75000   0.00000  Uiso   1.00
O763   O     0.46039   0.43988   0.74999   0.00000  Uiso   1.00
O764   O     0.53958   0.43989   0.74999   0.00000  Uiso   1.00
O765   O     0.47973   0.50001   0.67451   0.00000  Uiso   1.00
O766   O     0.55892   0.50002   0.67451   0.00000  Uiso   1.00
C767   C     0.49998   0.42071   0.75019   0.00000  Uiso   1.00
C768   C     0.52597   0.50033   0.65012   0.00000  Uiso   1.00
C769   C     0.60208   0.50252   0.51036   0.00000  Uiso   1.00
H770   H     0.61637   0.51478   0.58248   0.00000  Uiso   1.00
H771   H     0.62070   0.48265   0.91104   0.00000  Uiso   1.00
H772   H     0.63934   0.50868   0.98785   0.00000  Uiso   1.00
C773   C     0.54055   0.49917   0.59339   0.00000  Uiso   1.00
C774   C     0.41181   0.47906   0.93264   0.00000  Uiso   1.00
C775   C     0.39776   0.47189   0.98574   0.00000  Uiso   1.00
C776   C     0.43169   0.47428   0.51338   0.00000  Uiso   1.00
C777   C     0.48180   0.48058   0.98760   0.00000  Uiso   1.00
C778   C     0.49712   0.48047   0.93253   0.00000  Uiso   1.00
C779   C     0.51739   0.48702   0.51434   0.00000  Uiso   1.00
C780   C     0.56729   0.49138   0.98565   0.00000  Uiso   1.00
C781   C     0.58220   0.48347   0.93269   0.00000  Uiso   1.00
C782   C     0.54776   0.47585   0.90706   0.00000  Uiso   1.00
C783   C     0.50499   0.49075   0.56848   0.00000  Uiso   1.00
C784   C     0.58889   0.50628   0.56405   0.00000  Uiso   1.00
C785   C     0.46125   0.48457   0.90535   0.00000  Uiso   1.00
H786   H     0.46781   0.48728   0.59222   0.00000  Uiso   1.00
H787   H     0.38393   0.47974   0.91283   0.00000  Uiso   1.00
H788   H     0.41754   0.47008   0.55467   0.00000  Uiso   1.00
H789   H     0.36008   0.46535   0.50622   0.00000  Uiso   1.00
H790   H     0.56221   0.46508   0.86763   0.00000  Uiso   1.00
C791   C     0.53814   0.64527   0.76128   0.00000  Uiso   1.00
H792   H     0.56805   0.62912   0.76978   0.00000  Uiso   1.00
C793   C     0.53807   0.35454   0.76152   0.00000  Uiso   1.00
H794   H     0.56772   0.37053   0.77057   0.00000  Uiso   1.00
C795   C     0.49979   0.37609   0.75067   0.00000  Uiso   1.00
C796   C     0.46113   0.35472   0.74043   0.00000  Uiso   1.00
H797   H     0.43120   0.37086   0.73195   0.00000  Uiso   1.00
C798   C     0.46103   0.64544   0.74052   0.00000  Uiso   1.00
H799   H     0.43103   0.62944   0.73216   0.00000  Uiso   1.00
C800   C     0.49967   0.62391   0.75067   0.00000  Uiso   1.00
C801   C     0.63241   0.52447   0.78379   0.00000  Uiso   1.00
H802   H     0.60621   0.54410   0.81088   0.00000  Uiso   1.00
C803   C     0.34862   0.52439   0.78384   0.00000  Uiso   1.00
H804   H     0.35966   0.54396   0.81098   0.00000  Uiso   1.00
N805   N     0.38265   0.49999   0.74998   0.00000  Uiso   1.00
C806   C     0.36786   0.47560   0.71628   0.00000  Uiso   1.00
H807   H     0.39434   0.45601   0.68938   0.00000  Uiso   1.00
C808   C     0.65176   0.47539   0.71614   0.00000  Uiso   1.00
N809   N     0.61735   0.50002   0.74999   0.00000  Uiso   1.00
N810   N     0.63852   0.44892   0.68011   0.00000  Uiso   1.00
O811   O     0.65143   0.45909   0.63143   0.00000  Uiso   1.00
O812   O     0.63028   0.41033   0.69185   0.00000  Uiso   1.00
O813   O     0.79375   0.56011   0.75000   0.00000  Uiso   1.00
O814   O     0.87294   0.56012   0.75000   0.00000  Uiso   1.00
C815   C     0.83321   0.57928   0.75024   0.00000  Uiso   1.00
O816   O     0.77441   0.49998   0.82549   0.00000  Uiso   1.00
O817   O     0.85360   0.49999   0.82549   0.00000  Uiso   1.00
C818   C     0.80786   0.49519   0.84947   0.00000  Uiso   1.00
Cu819  Cu    0.78645   0.49999   0.75000   0.00000  Uiso   1.00
Cu820  Cu    0.88022   0.50001   0.75000   0.00000  Uiso   1.00
O821   O     0.79373   0.43988   0.74999   0.00000  Uiso   1.00
O822   O     0.87292   0.43989   0.74999   0.00000  Uiso   1.00
O823   O     0.81306   0.50001   0.67451   0.00000  Uiso   1.00
O824   O     0.89225   0.50002   0.67451   0.00000  Uiso   1.00
C825   C     0.83331   0.42071   0.75019   0.00000  Uiso   1.00
C826   C     0.85930   0.50033   0.65012   0.00000  Uiso   1.00
C827   C     0.93541   0.50252   0.51036   0.00000  Uiso   1.00
H828   H     0.94970   0.51478   0.58248   0.00000  Uiso   1.00
H829   H     0.95403   0.48265   0.91104   0.00000  Uiso   1.00
H830   H     0.97267   0.50868   0.98785   0.00000  Uiso   1.00
C831   C     0.87388   0.49917   0.59339   0.00000  Uiso   1.00
C832   C     0.74514   0.47906   0.93264   0.00000  Uiso   1.00
C833   C     0.73110   0.47189   0.98574   0.00000  Uiso   1.00
C834   C     0.76502   0.47428   0.51338   0.00000  Uiso   1.00
C835   C     0.81513   0.48058   0.98760   0.00000  Uiso   1.00
C836   C     0.83045   0.48047   0.93253   0.00000  Uiso   1.00
C837   C     0.85072   0.48702   0.51434   0.00000  Uiso   1.00
C838   C     0.90063   0.49138   0.98565   0.00000  Uiso   1.00
C839   C     0.91553   0.48347   0.93269   0.00000  Uiso   1.00
C840   C     0.88110   0.47585   0.90706   0.00000  Uiso   1.00
C841   C     0.83832   0.49075   0.56848   0.00000  Uiso   1.00
C842   C     0.92222   0.50628   0.56405   0.00000  Uiso   1.00
C843   C     0.79458   0.48457   0.90535   0.00000  Uiso   1.00
H844   H     0.80114   0.48728   0.59222   0.00000  Uiso   1.00
H845   H     0.71726   0.47974   0.91283   0.00000  Uiso   1.00
H846   H     0.75087   0.47008   0.55467   0.00000  Uiso   1.00
H847   H     0.69342   0.46535   0.50622   0.00000  Uiso   1.00
H848   H     0.89555   0.46508   0.86763   0.00000  Uiso   1.00
C849   C     0.87148   0.64527   0.76128   0.00000  Uiso   1.00
H850   H     0.90139   0.62912   0.76978   0.00000  Uiso   1.00
C851   C     0.87141   0.35454   0.76152   0.00000  Uiso   1.00
H852   H     0.90106   0.37053   0.77057   0.00000  Uiso   1.00
C853   C     0.83312   0.37609   0.75067   0.00000  Uiso   1.00
C854   C     0.79447   0.35472   0.74043   0.00000  Uiso   1.00
H855   H     0.76453   0.37086   0.73195   0.00000  Uiso   1.00
C856   C     0.79437   0.64544   0.74052   0.00000  Uiso   1.00
H857   H     0.76436   0.62944   0.73216   0.00000  Uiso   1.00
C858   C     0.83301   0.62391   0.75067   0.00000  Uiso   1.00
C859   C     0.96574   0.52447   0.78379   0.00000  Uiso   1.00
H860   H     0.93954   0.54410   0.81088   0.00000  Uiso   1.00
C861   C     0.68195   0.52439   0.78384   0.00000  Uiso   1.00
H862   H     0.69299   0.54396   0.81098   0.00000  Uiso   1.00
N863   N     0.71598   0.49999   0.74998   0.00000  Uiso   1.00
C864   C     0.70120   0.47560   0.71628   0.00000  Uiso   1.00
H865   H     0.72767   0.45601   0.68938   0.00000  Uiso   1.00
C866   C     0.98509   0.47539   0.71614   0.00000  Uiso   1.00
N867   N     0.95069   0.50002   0.74999   0.00000  Uiso   1.00
N868   N     0.97186   0.44892   0.68011   0.00000  Uiso   1.00
O869   O     0.98476   0.45909   0.63143   0.00000  Uiso   1.00
O870   O     0.96362   0.41033   0.69185   0.00000  Uiso   1.00
O871   O     0.12708   0.89345   0.75000   0.00000  Uiso   1.00
O872   O     0.20627   0.89346   0.75000   0.00000  Uiso   1.00
C873   C     0.16655   0.91262   0.75024   0.00000  Uiso   1.00
O874   O     0.10775   0.83332   0.82549   0.00000  Uiso   1.00
O875   O     0.18694   0.83333   0.82549   0.00000  Uiso   1.00
C876   C     0.14119   0.82852   0.84947   0.00000  Uiso   1.00
Cu877  Cu    0.11978   0.83333   0.75000   0.00000  Uiso   1.00
Cu878  Cu    0.21355   0.83334   0.75000   0.00000  Uiso   1.00
O879   O     0.12706   0.77321   0.74999   0.00000  Uiso   1.00
O880   O     0.20625   0.77322   0.74999   0.00000  Uiso   1.00
O881   O     0.14640   0.83334   0.67451   0.00000  Uiso   1.00
O882   O     0.22559   0.83335   0.67451   0.00000  Uiso   1.00
C883   C     0.16664   0.75405   0.75019   0.00000  Uiso   1.00
C884   C     0.19264   0.83367   0.65012   0.00000  Uiso   1.00
C885   C     0.26874   0.83586   0.51036   0.00000  Uiso   1.00
H886   H     0.28303   0.84811   0.58248   0.00000  Uiso   1.00
H887   H     0.28736   0.81598   0.91104   0.00000  Uiso   1.00
H888   H     0.30601   0.84202   0.98785   0.00000  Uiso   1.00
C889   C     0.20721   0.83250   0.59339   0.00000  Uiso   1.00
C890   C     0.07847   0.81239   0.93264   0.00000  Uiso   1.00
C891   C     0.06443   0.80522   0.98574   0.00000  Uiso   1.00
C892   C     0.09835   0.80762   0.51338   0.00000  Uiso   1.00
C893   C     0.14846   0.81392   0.98760   0.00000  Uiso   1.00
C894   C     0.16379   0.81380   0.93253   0.00000  Uiso   1.00
C895   C     0.18406   0.82035   0.51434   0.00000  Uiso   1.00
C896   C     0.23396   0.82472   0.98565   0.00000  Uiso   1.00
C897   C     0.24887   0.81680   0.93269   0.00000  Uiso   1.00
C898   C     0.21443   0.80919   0.90706   0.00000  Uiso   1.00
C899   C     0.17166   0.82408   0.56848   0.00000  Uiso   1.00
C900   C     0.25555   0.83961   0.56405   0.00000  Uiso   1.00
C901   C     0.12792   0.81790   0.90535   0.00000  Uiso   1.00
H902   H     0.13447   0.82061   0.59222   0.00000  Uiso   1.00
H903   H     0.05059   0.81307   0.91283   0.00000  Uiso   1.00
H904   H     0.08420   0.80341   0.55467   0.00000  Uiso   1.00
H905   H     0.02675   0.79868   0.50622   0.00000  Uiso   1.00
H906   H     0.22888   0.79842   0.86763   0.00000  Uiso   1.00
C907   C     0.20481   0.97860   0.76128   0.00000  Uiso   1.00
H908   H     0.23472   0.96245   0.76978   0.00000  Uiso   1.00
C909   C     0.20474   0.68788   0.76152   0.00000  Uiso   1.00
H910   H     0.23439   0.70387   0.77057   0.00000  Uiso   1.00
C911   C     0.16645   0.70942   0.75067   0.00000  Uiso   1.00
C912   C     0.12780   0.68806   0.74043   0.00000  Uiso   1.00
H913   H     0.09787   0.70420   0.73195   0.00000  Uiso   1.00
C914   C     0.12770   0.97878   0.74052   0.00000  Uiso   1.00
H915   H     0.09770   0.96277   0.73216   0.00000  Uiso   1.00
C916   C     0.16634   0.95724   0.75067   0.00000  Uiso   1.00
C917   C     0.29907   0.85780   0.78379   0.00000  Uiso   1.00
H918   H     0.27287   0.87743   0.81088   0.00000  Uiso   1.00
C919   C     0.01528   0.85772   0.78384   0.00000  Uiso   1.00
H920   H     0.02632   0.87729   0.81098   0.00000  Uiso   1.00
N921   N     0.04931   0.83332   0.74998   0.00000  Uiso   1.00
C922   C     0.03453   0.80894   0.71628   0.00000  Uiso   1.00
H923   H     0.06101   0.78935   0.68938   0.00000  Uiso   1.00
C924   C     0.31842   0.80872   0.71614   0.00000  Uiso   1.00
N925   N     0.28402   0.83335   0.74999   0.00000  Uiso   1.00
N926   N     0.30519   0.78226   0.68011   0.00000  Uiso   1.00
O927   O     0.31809   0.79243   0.63143   0.00000  Uiso   1.00
O928   O     0.29695   0.74367   0.69185   0.00000  Uiso   1.00
O929   O     0.46042   0.89345   0.75000   0.00000  Uiso   1.00
O930   O     0.53961   0.89346   0.75000   0.00000  Uiso   1.00
C931   C     0.49988   0.91262   0.75024   0.00000  Uiso   1.00
O932   O     0.44108   0.83332   0.82549   0.00000  Uiso   1.00
O933   O     0.52027   0.83333   0.82549   0.00000  Uiso   1.00
C934   C     0.47453   0.82852   0.84947   0.00000  Uiso   1.00
Cu935  Cu    0.45311   0.83333   0.75000   0.00000  Uiso   1.00
Cu936  Cu    0.54689   0.83334   0.75000   0.00000  Uiso   1.00
O937   O     0.46039   0.77321   0.74999   0.00000  Uiso   1.00
O938   O     0.53958   0.77322   0.74999   0.00000  Uiso   1.00
O939   O     0.47973   0.83334   0.67451   0.00000  Uiso   1.00
O940   O     0.55892   0.83335   0.67451   0.00000  Uiso   1.00
C941   C     0.49998   0.75405   0.75019   0.00000  Uiso   1.00
C942   C     0.52597   0.83367   0.65012   0.00000  Uiso   1.00
C943   C     0.60208   0.83586   0.51036   0.00000  Uiso   1.00
H944   H     0.61637   0.84811   0.58248   0.00000  Uiso   1.00
H945   H     0.62070   0.81598   0.91104   0.00000  Uiso   1.00
H946   H     0.63934   0.84202   0.98785   0.00000  Uiso   1.00
C947   C     0.54055   0.83250   0.59339   0.00000  Uiso   1.00
C948   C     0.41181   0.81239   0.93264   0.00000  Uiso   1.00
C949   C     0.39776   0.80522   0.98574   0.00000  Uiso   1.00
C950   C     0.43169   0.80762   0.51338   0.00000  Uiso   1.00
C951   C     0.48180   0.81392   0.98760   0.00000  Uiso   1.00
C952   C     0.49712   0.81380   0.93253   0.00000  Uiso   1.00
C953   C     0.51739   0.82035   0.51434   0.00000  Uiso   1.00
C954   C     0.56729   0.82472   0.98565   0.00000  Uiso   1.00
C955   C     0.58220   0.81680   0.93269   0.00000  Uiso   1.00
C956   C     0.54776   0.80919   0.90706   0.00000  Uiso   1.00
C957   C     0.50499   0.82408   0.56848   0.00000  Uiso   1.00
C958   C     0.58889   0.83961   0.56405   0.00000  Uiso   1.00
C959   C     0.46125   0.81790   0.90535   0.00000  Uiso   1.00
H960   H     0.46781   0.82061   0.59222   0.00000  Uiso   1.00
H961   H     0.38393   0.81307   0.91283   0.00000  Uiso   1.00
H962   H     0.41754   0.80341   0.55467   0.00000  Uiso   1.00
H963   H     0.36008   0.79868   0.50622   0.00000  Uiso   1.00
H964   H     0.56221   0.79842   0.86763   0.00000  Uiso   1.00
C965   C     0.53814   0.97860   0.76128   0.00000  Uiso   1.00
H966   H     0.56805   0.96245   0.76978   0.00000  Uiso   1.00
C967   C     0.53807   0.68788   0.76152   0.00000  Uiso   1.00
H968   H     0.56772   0.70387   0.77057   0.00000  Uiso   1.00
C969   C     0.49979   0.70942   0.75067   0.00000  Uiso   1.00
C970   C     0.46113   0.68806   0.74043   0.00000  Uiso   1.00
H971   H     0.43120   0.70420   0.73195   0.00000  Uiso   1.00
C972   C     0.46103   0.97878   0.74052   0.00000  Uiso   1.00
H973   H     0.43103   0.96277   0.73216   0.00000  Uiso   1.00
C974   C     0.49967   0.95724   0.75067   0.00000  Uiso   1.00
C975   C     0.63241   0.85780   0.78379   0.00000  Uiso   1.00
H976   H     0.60621   0.87743   0.81088   0.00000  Uiso   1.00
C977   C     0.34862   0.85772   0.78384   0.00000  Uiso   1.00
H978   H     0.35966   0.87729   0.81098   0.00000  Uiso   1.00
N979   N     0.38265   0.83332   0.74998   0.00000  Uiso   1.00
C980   C     0.36786   0.80894   0.71628   0.00000  Uiso   1.00
H981   H     0.39434   0.78935   0.68938   0.00000  Uiso   1.00
C982   C     0.65176   0.80872   0.71614   0.00000  Uiso   1.00
N983   N     0.61735   0.83335   0.74999   0.00000  Uiso   1.00
N984   N     0.63852   0.78226   0.68011   0.00000  Uiso   1.00
O985   O     0.65143   0.79243   0.63143   0.00000  Uiso   1.00
O986   O     0.63028   0.74367   0.69185   0.00000  Uiso   1.00
O987   O     0.79375   0.89345   0.75000   0.00000  Uiso   1.00
O988   O     0.87294   0.89346   0.75000   0.00000  Uiso   1.00
C989   C     0.83321   0.91262   0.75024   0.00000  Uiso   1.00
O990   O     0.77441   0.83332   0.82549   0.00000  Uiso   1.00
O991   O     0.85360   0.83333   0.82549   0.00000  Uiso   1.00
C992   C     0.80786   0.82852   0.84947   0.00000  Uiso   1.00
Cu993  Cu    0.78645   0.83333   0.75000   0.00000  Uiso   1.00
Cu994  Cu    0.88022   0.83334   0.75000   0.00000  Uiso   1.00
O995   O     0.79373   0.77321   0.74999   0.00000  Uiso   1.00
O996   O     0.87292   0.77322   0.74999   0.00000  Uiso   1.00
O997   O     0.81306   0.83334   0.67451   0.00000  Uiso   1.00
O998   O     0.89225   0.83335   0.67451   0.00000  Uiso   1.00
C999   C     0.83331   0.75405   0.75019   0.00000  Uiso   1.00
C1000  C     0.85930   0.83367   0.65012   0.00000  Uiso   1.00
C1001  C     0.93541   0.83586   0.51036   0.00000  Uiso   1.00
H1002  H     0.94970   0.84811   0.58248   0.00000  Uiso   1.00
H1003  H     0.95403   0.81598   0.91104   0.00000  Uiso   1.00
H1004  H     0.97267   0.84202   0.98785   0.00000  Uiso   1.00
C1005  C     0.87388   0.83250   0.59339   0.00000  Uiso   1.00
C1006  C     0.74514   0.81239   0.93264   0.00000  Uiso   1.00
C1007  C     0.73110   0.80522   0.98574   0.00000  Uiso   1.00
C1008  C     0.76502   0.80762   0.51338   0.00000  Uiso   1.00
C1009  C     0.81513   0.81392   0.98760   0.00000  Uiso   1.00
C1010  C     0.83045   0.81380   0.93253   0.00000  Uiso   1.00
C1011  C     0.85072   0.82035   0.51434   0.00000  Uiso   1.00
C1012  C     0.90063   0.82472   0.98565   0.00000  Uiso   1.00
C1013  C     0.91553   0.81680   0.93269   0.00000  Uiso   1.00
C1014  C     0.88110   0.80919   0.90706   0.00000  Uiso   1.00
C1015  C     0.83832   0.82408   0.56848   0.00000  Uiso   1.00
C1016  C     0.92222   0.83961   0.56405   0.00000  Uiso   1.00
C1017  C     0.79458   0.81790   0.90535   0.00000  Uiso   1.00
H1018  H     0.80114   0.82061   0.59222   0.00000  Uiso   1.00
H1019  H     0.71726   0.81307   0.91283   0.00000  Uiso   1.00
H1020  H     0.75087   0.80341   0.55467   0.00000  Uiso   1.00
H1021  H     0.69342   0.79868   0.50622   0.00000  Uiso   1.00
H1022  H     0.89555   0.79842   0.86763   0.00000  Uiso   1.00
C1023  C     0.87148   0.97860   0.76128   0.00000  Uiso   1.00
H1024  H     0.90139   0.96245   0.76978   0.00000  Uiso   1.00
C1025  C     0.87141   0.68788   0.76152   0.00000  Uiso   1.00
H1026  H     0.90106   0.70387   0.77057   0.00000  Uiso   1.00
C1027  C     0.83312   0.70942   0.75067   0.00000  Uiso   1.00
C1028  C     0.79447   0.68806   0.74043   0.00000  Uiso   1.00
H1029  H     0.76453   0.70420   0.73195   0.00000  Uiso   1.00
C1030  C     0.79437   0.97878   0.74052   0.00000  Uiso   1.00
H1031  H     0.76436   0.96277   0.73216   0.00000  Uiso   1.00
C1032  C     0.83301   0.95724   0.75067   0.00000  Uiso   1.00
C1033  C     0.96574   0.85780   0.78379   0.00000  Uiso   1.00
H1034  H     0.93954   0.87743   0.81088   0.00000  Uiso   1.00
C1035  C     0.68195   0.85772   0.78384   0.00000  Uiso   1.00
H1036  H     0.69299   0.87729   0.81098   0.00000  Uiso   1.00
N1037  N     0.71598   0.83332   0.74998   0.00000  Uiso   1.00
C1038  C     0.70120   0.80894   0.71628   0.00000  Uiso   1.00
H1039  H     0.72767   0.78935   0.68938   0.00000  Uiso   1.00
C1040  C     0.98509   0.80872   0.71614   0.00000  Uiso   1.00
N1041  N     0.95069   0.83335   0.74999   0.00000  Uiso   1.00
N1042  N     0.97186   0.78226   0.68011   0.00000  Uiso   1.00
O1043  O     0.98476   0.79243   0.63143   0.00000  Uiso   1.00
O1044  O     0.96362   0.74367   0.69185   0.00000  Uiso   1.00
loop_
_geom_bond_atom_site_label_1
_geom_bond_atom_site_label_2
_geom_bond_distance
_geom_bond_site_symmetry_2
_ccdc_geom_bond_type
O1     Cu7     1.964   .     S
O1     C3      1.293   .     A
O2     C3      1.292   .     A
O2     Cu8     1.963   .     S
C3     C46     1.449   .     S
O4     Cu7     1.962   .     S
O4     C6      1.312   .     A
O5     Cu8     1.952   .     S
O5     C6      1.289   .     A
C6     C31     1.485   .     S
Cu7    N51     2.016   .     S
Cu7    Cu8     2.683   .     S
Cu7    O11     1.952   .     S
Cu7    O9      1.963   .     S
Cu8    O12     1.962   .     S
Cu8    N55     2.016   .     S
Cu8    O10     1.964   .     S
O9     C13     1.292   .     A
O10    C13     1.294   .     A
O11    C14     1.293   .     A
O12    C14     1.299   .     A
C13    C41     1.449   .     S
C14    C19     1.462   .     S
C15    C30     1.389   .     A
C15    H540    1.081   1_554 S
C15    C548    1.398   1_554 S
H16    C30     1.082   .     S
H17    C27     1.085   .     S
H18    C537    1.081   .     S
C19    C30     1.398   .     A
C19    C29     1.401   .     A
C20    H33     1.083   .     S
C20    C21     1.390   .     A
C20    C31     1.402   .     A
C21    C544    1.389   .     S
C21    H557    1.080   .     S
C22    H34     1.077   .     S
C22    C543    1.389   1_554 S
C22    C545    1.414   1_554 S
C23    C24     1.419   .     A
C23    C544    1.414   .     S
C23    C547    1.426   .     S
C24    C31     1.432   .     A
C24    C28     1.416   .     A
C25    C29     1.402   .     A
C25    C545    1.426   1_554 S
C25    C548    1.418   1_554 S
C26    C27     1.387   .     A
C26    C537    1.398   .     S
C26    C547    1.418   .     S
C27    C28     1.382   .     A
C28    H36     1.076   .     S
C29    H32     1.075   .     S
H35    C543    1.080   1_554 S
C37    H38     1.083   .     S
C37    C46     1.401   .     A
C37    C213    1.384   .     S
C39    C41     1.400   .     A
C39    H40     1.083   .     S
C39    C385    1.384   1_545 S
C41    C42     1.401   .     A
C42    H43     1.083   .     S
C42    C392    1.384   1_545 S
C44    C46     1.400   .     A
C44    H45     1.083   .     S
C44    C216    1.384   .     S
C47    H48     1.082   .     S
C47    N55     1.367   .     A
C47    C107    1.418   .     S
C49    H50     1.082   .     S
C49    N51     1.368   .     A
C49    C163    1.418   1_455 S
N51    C52     1.360   .     A
C52    H53     1.082   .     S
C52    C170    1.416   1_455 S
C54    N56     1.426   .     S
C54    N55     1.378   .     A
C54    C110    1.416   .     S
N56    O58     1.300   .     A
N56    O57     1.300   .     A
O59    Cu65    1.964   .     S
O59    C61     1.293   .     A
O60    C61     1.292   .     A
O60    Cu66    1.963   .     S
C61    C104    1.449   .     S
O62    Cu65    1.962   .     S
O62    C64     1.312   .     A
O63    Cu66    1.952   .     S
O63    C64     1.289   .     A
C64    C89     1.485   .     S
Cu65   N109    2.016   .     S
Cu65   Cu66    2.683   .     S
Cu65   O69     1.952   .     S
Cu65   O67     1.963   .     S
Cu66   O70     1.962   .     S
Cu66   N113    2.016   .     S
Cu66   O68     1.964   .     S
O67    C71     1.292   .     A
O68    C71     1.294   .     A
O69    C72     1.293   .     A
O70    C72     1.299   .     A
C71    C99     1.449   .     S
C72    C77     1.462   .     S
C73    C88     1.389   .     A
C73    H598    1.081   1_554 S
C73    C606    1.398   1_554 S
H74    C88     1.082   .     S
H75    C85     1.085   .     S
H76    C595    1.081   .     S
C77    C88     1.398   .     A
C77    C87     1.401   .     A
C78    H91     1.083   .     S
C78    C79     1.390   .     A
C78    C89     1.402   .     A
C79    C602    1.389   .     S
C79    H615    1.080   .     S
C80    H92     1.077   .     S
C80    C601    1.389   1_554 S
C80    C603    1.414   1_554 S
C81    C82     1.419   .     A
C81    C602    1.414   .     S
C81    C605    1.426   .     S
C82    C89     1.432   .     A
C82    C86     1.416   .     A
C83    C87     1.402   .     A
C83    C603    1.426   1_554 S
C83    C606    1.418   1_554 S
C84    C85     1.387   .     A
C84    C595    1.398   .     S
C84    C605    1.418   .     S
C85    C86     1.382   .     A
C86    H94     1.076   .     S
C87    H90     1.075   .     S
H93    C601    1.080   1_554 S
C95    H96     1.083   .     S
C95    C104    1.401   .     A
C95    C271    1.384   .     S
C97    C99     1.400   .     A
C97    H98     1.083   .     S
C97    C443    1.384   1_545 S
C99    C100    1.401   .     A
C100   H101    1.083   .     S
C100   C450    1.384   1_545 S
C102   C104    1.400   .     A
C102   H103    1.083   .     S
C102   C274    1.384   .     S
C105   H106    1.082   .     S
C105   N113    1.367   .     A
C105   C165    1.418   .     S
C107   H108    1.082   .     S
C107   N109    1.368   .     A
N109   C110    1.360   .     A
C110   H111    1.082   .     S
C112   N114    1.426   .     S
C112   N113    1.378   .     A
C112   C168    1.416   .     S
N114   O116    1.300   .     A
N114   O115    1.300   .     A
O117   Cu123   1.964   .     S
O117   C119    1.293   .     A
O118   C119    1.292   .     A
O118   Cu124   1.963   .     S
C119   C162    1.449   .     S
O120   Cu123   1.962   .     S
O120   C122    1.312   .     A
O121   Cu124   1.952   .     S
O121   C122    1.289   .     A
C122   C147    1.485   .     S
Cu123  N167    2.016   .     S
Cu123  Cu124   2.683   .     S
Cu123  O127    1.952   .     S
Cu123  O125    1.963   .     S
Cu124  O128    1.962   .     S
Cu124  N171    2.016   .     S
Cu124  O126    1.964   .     S
O125   C129    1.292   .     A
O126   C129    1.294   .     A
O127   C130    1.293   .     A
O128   C130    1.299   .     A
C129   C157    1.449   .     S
C130   C135    1.462   .     S
C131   C146    1.389   .     A
C131   H656    1.081   1_554 S
C131   C664    1.398   1_554 S
H132   C146    1.082   .     S
H133   C143    1.085   .     S
H134   C653    1.081   .     S
C135   C146    1.398   .     A
C135   C145    1.401   .     A
C136   H149    1.083   .     S
C136   C137    1.390   .     A
C136   C147    1.402   .     A
C137   C660    1.389   .     S
C137   H673    1.080   .     S
C138   H150    1.077   .     S
C138   C659    1.389   1_554 S
C138   C661    1.414   1_554 S
C139   C140    1.419   .     A
C139   C660    1.414   .     S
C139   C663    1.426   .     S
C140   C147    1.432   .     A
C140   C144    1.416   .     A
C141   C145    1.402   .     A
C141   C661    1.426   1_554 S
C141   C664    1.418   1_554 S
C142   C143    1.387   .     A
C142   C653    1.398   .     S
C142   C663    1.418   .     S
C143   C144    1.382   .     A
C144   H152    1.076   .     S
C145   H148    1.075   .     S
H151   C659    1.080   1_554 S
C153   H154    1.083   .     S
C153   C162    1.401   .     A
C153   C329    1.384   .     S
C155   C157    1.400   .     A
C155   H156    1.083   .     S
C155   C501    1.384   1_545 S
C157   C158    1.401   .     A
C158   H159    1.083   .     S
C158   C508    1.384   1_545 S
C160   C162    1.400   .     A
C160   H161    1.083   .     S
C160   C332    1.384   .     S
C163   H164    1.082   .     S
C163   N171    1.367   .     A
C163   C49     1.418   1_655 S
C165   H166    1.082   .     S
C165   N167    1.368   .     A
N167   C168    1.360   .     A
C168   H169    1.082   .     S
C170   N172    1.426   .     S
C170   N171    1.378   .     A
C170   C52     1.416   1_655 S
N172   O174    1.300   .     A
N172   O173    1.300   .     A
O175   Cu181   1.964   .     S
O175   C177    1.293   .     A
O176   C177    1.292   .     A
O176   Cu182   1.963   .     S
C177   C220    1.449   .     S
O178   Cu181   1.962   .     S
O178   C180    1.312   .     A
O179   Cu182   1.952   .     S
O179   C180    1.289   .     A
C180   C205    1.485   .     S
Cu181  N225    2.016   .     S
Cu181  Cu182   2.683   .     S
Cu181  O185    1.952   .     S
Cu181  O183    1.963   .     S
Cu182  O186    1.962   .     S
Cu182  N229    2.016   .     S
Cu182  O184    1.964   .     S
O183   C187    1.292   .     A
O184   C187    1.294   .     A
O185   C188    1.293   .     A
O186   C188    1.299   .     A
C187   C215    1.449   .     S
C188   C193    1.462   .     S
C189   C204    1.389   .     A
C189   H714    1.081   1_554 S
C189   C722    1.398   1_554 S
H190   C204    1.082   .     S
H191   C201    1.085   .     S
H192   C711    1.081   .     S
C193   C204    1.398   .     A
C193   C203    1.401   .     A
C194   H207    1.083   .     S
C194   C195    1.390   .     A
C194   C205    1.402   .     A
C195   C718    1.389   .     S
C195   H731    1.080   .     S
C196   H208    1.077   .     S
C196   C717    1.389   1_554 S
C196   C719    1.414   1_554 S
C197   C198    1.419   .     A
C197   C718    1.414   .     S
C197   C721    1.426   .     S
C198   C205    1.432   .     A
C198   C202    1.416   .     A
C199   C203    1.402   .     A
C199   C719    1.426   1_554 S
C199   C722    1.418   1_554 S
C200   C201    1.387   .     A
C200   C711    1.398   .     S
C200   C721    1.418   .     S
C201   C202    1.382   .     A
C202   H210    1.076   .     S
C203   H206    1.075   .     S
H209   C717    1.080   1_554 S
C211   H212    1.083   .     S
C211   C220    1.401   .     A
C211   C387    1.384   .     S
C213   C215    1.400   .     A
C213   H214    1.083   .     S
C215   C216    1.401   .     A
C216   H217    1.083   .     S
C218   C220    1.400   .     A
C218   H219    1.083   .     S
C218   C390    1.384   .     S
C221   H222    1.082   .     S
C221   N229    1.367   .     A
C221   C281    1.418   .     S
C223   H224    1.082   .     S
C223   N225    1.368   .     A
C223   C337    1.418   1_455 S
N225   C226    1.360   .     A
C226   H227    1.082   .     S
C226   C344    1.416   1_455 S
C228   N230    1.426   .     S
C228   N229    1.378   .     A
C228   C284    1.416   .     S
N230   O232    1.300   .     A
N230   O231    1.300   .     A
O233   Cu239   1.964   .     S
O233   C235    1.293   .     A
O234   C235    1.292   .     A
O234   Cu240   1.963   .     S
C235   C278    1.449   .     S
O236   Cu239   1.962   .     S
O236   C238    1.312   .     A
O237   Cu240   1.952   .     S
O237   C238    1.289   .     A
C238   C263    1.485   .     S
Cu239  N283    2.016   .     S
Cu239  Cu240   2.683   .     S
Cu239  O243    1.952   .     S
Cu239  O241    1.963   .     S
Cu240  O244    1.962   .     S
Cu240  N287    2.016   .     S
Cu240  O242    1.964   .     S
O241   C245    1.292   .     A
O242   C245    1.294   .     A
O243   C246    1.293   .     A
O244   C246    1.299   .     A
C245   C273    1.449   .     S
C246   C251    1.462   .     S
C247   C262    1.389   .     A
C247   H772    1.081   1_554 S
C247   C780    1.398   1_554 S
H248   C262    1.082   .     S
H249   C259    1.085   .     S
H250   C769    1.081   .     S
C251   C262    1.398   .     A
C251   C261    1.401   .     A
C252   H265    1.083   .     S
C252   C253    1.390   .     A
C252   C263    1.402   .     A
C253   C776    1.389   .     S
C253   H789    1.080   .     S
C254   H266    1.077   .     S
C254   C775    1.389   1_554 S
C254   C777    1.414   1_554 S
C255   C256    1.419   .     A
C255   C776    1.414   .     S
C255   C779    1.426   .     S
C256   C263    1.432   .     A
C256   C260    1.416   .     A
C257   C261    1.402   .     A
C257   C777    1.426   1_554 S
C257   C780    1.418   1_554 S
C258   C259    1.387   .     A
C258   C769    1.398   .     S
C258   C779    1.418   .     S
C259   C260    1.382   .     A
C260   H268    1.076   .     S
C261   H264    1.075   .     S
H267   C775    1.080   1_554 S
C269   H270    1.083   .     S
C269   C278    1.401   .     A
C269   C445    1.384   .     S
C271   C273    1.400   .     A
C271   H272    1.083   .     S
C273   C274    1.401   .     A
C274   H275    1.083   .     S
C276   C278    1.400   .     A
C276   H277    1.083   .     S
C276   C448    1.384   .     S
C279   H280    1.082   .     S
C279   N287    1.367   .     A
C279   C339    1.418   .     S
C281   H282    1.082   .     S
C281   N283    1.368   .     A
N283   C284    1.360   .     A
C284   H285    1.082   .     S
C286   N288    1.426   .     S
C286   N287    1.378   .     A
C286   C342    1.416   .     S
N288   O290    1.300   .     A
N288   O289    1.300   .     A
O291   Cu297   1.964   .     S
O291   C293    1.293   .     A
O292   C293    1.292   .     A
O292   Cu298   1.963   .     S
C293   C336    1.449   .     S
O294   Cu297   1.962   .     S
O294   C296    1.312   .     A
O295   Cu298   1.952   .     S
O295   C296    1.289   .     A
C296   C321    1.485   .     S
Cu297  N341    2.016   .     S
Cu297  Cu298   2.683   .     S
Cu297  O301    1.952   .     S
Cu297  O299    1.963   .     S
Cu298  O302    1.962   .     S
Cu298  N345    2.016   .     S
Cu298  O300    1.964   .     S
O299   C303    1.292   .     A
O300   C303    1.294   .     A
O301   C304    1.293   .     A
O302   C304    1.299   .     A
C303   C331    1.449   .     S
C304   C309    1.462   .     S
C305   C320    1.389   .     A
C305   H830    1.081   1_554 S
C305   C838    1.398   1_554 S
H306   C320    1.082   .     S
H307   C317    1.085   .     S
H308   C827    1.081   .     S
C309   C320    1.398   .     A
C309   C319    1.401   .     A
C310   H323    1.083   .     S
C310   C311    1.390   .     A
C310   C321    1.402   .     A
C311   C834    1.389   .     S
C311   H847    1.080   .     S
C312   H324    1.077   .     S
C312   C833    1.389   1_554 S
C312   C835    1.414   1_554 S
C313   C314    1.419   .     A
C313   C834    1.414   .     S
C313   C837    1.426   .     S
C314   C321    1.432   .     A
C314   C318    1.416   .     A
C315   C319    1.402   .     A
C315   C835    1.426   1_554 S
C315   C838    1.418   1_554 S
C316   C317    1.387   .     A
C316   C827    1.398   .     S
C316   C837    1.418   .     S
C317   C318    1.382   .     A
C318   H326    1.076   .     S
C319   H322    1.075   .     S
H325   C833    1.080   1_554 S
C327   H328    1.083   .     S
C327   C336    1.401   .     A
C327   C503    1.384   .     S
C329   C331    1.400   .     A
C329   H330    1.083   .     S
C331   C332    1.401   .     A
C332   H333    1.083   .     S
C334   C336    1.400   .     A
C334   H335    1.083   .     S
C334   C506    1.384   .     S
C337   H338    1.082   .     S
C337   N345    1.367   .     A
C337   C223    1.418   1_655 S
C339   H340    1.082   .     S
C339   N341    1.368   .     A
N341   C342    1.360   .     A
C342   H343    1.082   .     S
C344   N346    1.426   .     S
C344   N345    1.378   .     A
C344   C226    1.416   1_655 S
N346   O348    1.300   .     A
N346   O347    1.300   .     A
O349   Cu355   1.964   .     S
O349   C351    1.293   .     A
O350   C351    1.292   .     A
O350   Cu356   1.963   .     S
C351   C394    1.449   .     S
O352   Cu355   1.962   .     S
O352   C354    1.312   .     A
O353   Cu356   1.952   .     S
O353   C354    1.289   .     A
C354   C379    1.485   .     S
Cu355  N399    2.016   .     S
Cu355  Cu356   2.683   .     S
Cu355  O359    1.952   .     S
Cu355  O357    1.963   .     S
Cu356  O360    1.962   .     S
Cu356  N403    2.016   .     S
Cu356  O358    1.964   .     S
O357   C361    1.292   .     A
O358   C361    1.294   .     A
O359   C362    1.293   .     A
O360   C362    1.299   .     A
C361   C389    1.449   .     S
C362   C367    1.462   .     S
C363   C378    1.389   .     A
C363   H888    1.081   1_554 S
C363   C896    1.398   1_554 S
H364   C378    1.082   .     S
H365   C375    1.085   .     S
H366   C885    1.081   .     S
C367   C378    1.398   .     A
C367   C377    1.401   .     A
C368   H381    1.083   .     S
C368   C369    1.390   .     A
C368   C379    1.402   .     A
C369   C892    1.389   .     S
C369   H905    1.080   .     S
C370   H382    1.077   .     S
C370   C891    1.389   1_554 S
C370   C893    1.414   1_554 S
C371   C372    1.419   .     A
C371   C892    1.414   .     S
C371   C895    1.426   .     S
C372   C379    1.432   .     A
C372   C376    1.416   .     A
C373   C377    1.402   .     A
C373   C893    1.426   1_554 S
C373   C896    1.418   1_554 S
C374   C375    1.387   .     A
C374   C885    1.398   .     S
C374   C895    1.418   .     S
C375   C376    1.382   .     A
C376   H384    1.076   .     S
C377   H380    1.075   .     S
H383   C891    1.080   1_554 S
C385   H386    1.083   .     S
C385   C394    1.401   .     A
C385   C39     1.384   1_565 S
C387   C389    1.400   .     A
C387   H388    1.083   .     S
C389   C390    1.401   .     A
C390   H391    1.083   .     S
C392   C394    1.400   .     A
C392   H393    1.083   .     S
C392   C42     1.384   1_565 S
C395   H396    1.082   .     S
C395   N403    1.367   .     A
C395   C455    1.418   .     S
C397   H398    1.082   .     S
C397   N399    1.368   .     A
C397   C511    1.418   1_455 S
N399   C400    1.360   .     A
C400   H401    1.082   .     S
C400   C518    1.416   1_455 S
C402   N404    1.426   .     S
C402   N403    1.378   .     A
C402   C458    1.416   .     S
N404   O406    1.300   .     A
N404   O405    1.300   .     A
O407   Cu413   1.964   .     S
O407   C409    1.293   .     A
O408   C409    1.292   .     A
O408   Cu414   1.963   .     S
C409   C452    1.449   .     S
O410   Cu413   1.962   .     S
O410   C412    1.312   .     A
O411   Cu414   1.952   .     S
O411   C412    1.289   .     A
C412   C437    1.485   .     S
Cu413  N457    2.016   .     S
Cu413  Cu414   2.683   .     S
Cu413  O417    1.952   .     S
Cu413  O415    1.963   .     S
Cu414  O418    1.962   .     S
Cu414  N461    2.016   .     S
Cu414  O416    1.964   .     S
O415   C419    1.292   .     A
O416   C419    1.294   .     A
O417   C420    1.293   .     A
O418   C420    1.299   .     A
C419   C447    1.449   .     S
C420   C425    1.462   .     S
C421   C436    1.389   .     A
C421   H946    1.081   1_554 S
C421   C954    1.398   1_554 S
H422   C436    1.082   .     S
H423   C433    1.085   .     S
H424   C943    1.081   .     S
C425   C436    1.398   .     A
C425   C435    1.401   .     A
C426   H439    1.083   .     S
C426   C427    1.390   .     A
C426   C437    1.402   .     A
C427   C950    1.389   .     S
C427   H963    1.080   .     S
C428   H440    1.077   .     S
C428   C949    1.389   1_554 S
C428   C951    1.414   1_554 S
C429   C430    1.419   .     A
C429   C950    1.414   .     S
C429   C953    1.426   .     S
C430   C437    1.432   .     A
C430   C434    1.416   .     A
C431   C435    1.402   .     A
C431   C951    1.426   1_554 S
C431   C954    1.418   1_554 S
C432   C433    1.387   .     A
C432   C943    1.398   .     S
C432   C953    1.418   .     S
C433   C434    1.382   .     A
C434   H442    1.076   .     S
C435   H438    1.075   .     S
H441   C949    1.080   1_554 S
C443   H444    1.083   .     S
C443   C452    1.401   .     A
C443   C97     1.384   1_565 S
C445   C447    1.400   .     A
C445   H446    1.083   .     S
C447   C448    1.401   .     A
C448   H449    1.083   .     S
C450   C452    1.400   .     A
C450   H451    1.083   .     S
C450   C100    1.384   1_565 S
C453   H454    1.082   .     S
C453   N461    1.367   .     A
C453   C513    1.418   .     S
C455   H456    1.082   .     S
C455   N457    1.368   .     A
N457   C458    1.360   .     A
C458   H459    1.082   .     S
C460   N462    1.426   .     S
C460   N461    1.378   .     A
C460   C516    1.416   .     S
N462   O464    1.300   .     A
N462   O463    1.300   .     A
O465   Cu471   1.964   .     S
O465   C467    1.293   .     A
O466   C467    1.292   .     A
O466   Cu472   1.963   .     S
C467   C510    1.449   .     S
O468   Cu471   1.962   .     S
O468   C470    1.312   .     A
O469   Cu472   1.952   .     S
O469   C470    1.289   .     A
C470   C495    1.485   .     S
Cu471  N515    2.016   .     S
Cu471  Cu472   2.683   .     S
Cu471  O475    1.952   .     S
Cu471  O473    1.963   .     S
Cu472  O476    1.962   .     S
Cu472  N519    2.016   .     S
Cu472  O474    1.964   .     S
O473   C477    1.292   .     A
O474   C477    1.294   .     A
O475   C478    1.293   .     A
O476   C478    1.299   .     A
C477   C505    1.449   .     S
C478   C483    1.462   .     S
C479   C494    1.389   .     A
C479   H1004   1.081   1_554 S
C479   C1012   1.398   1_554 S
H480   C494    1.082   .     S
H481   C491    1.085   .     S
H482   C1001   1.081   .     S
C483   C494    1.398   .     A
C483   C493    1.401   .     A
C484   H497    1.083   .     S
C484   C485    1.390   .     A
C484   C495    1.402   .     A
C485   C1008   1.389   .     S
C485   H1021   1.080   .     S
C486   H498    1.077   .     S
C486   C1007   1.389   1_554 S
C486   C1009   1.414   1_554 S
C487   C488    1.419   .     A
C487   C1008   1.414   .     S
C487   C1011   1.426   .     S
C488   C495    1.432   .     A
C488   C492    1.416   .     A
C489   C493    1.402   .     A
C489   C1009   1.426   1_554 S
C489   C1012   1.418   1_554 S
C490   C491    1.387   .     A
C490   C1001   1.398   .     S
C490   C1011   1.418   .     S
C491   C492    1.382   .     A
C492   H500    1.076   .     S
C493   H496    1.075   .     S
H499   C1007   1.080   1_554 S
C501   H502    1.083   .     S
C501   C510    1.401   .     A
C501   C155    1.384   1_565 S
C503   C505    1.400   .     A
C503   H504    1.083   .     S
C505   C506    1.401   .     A
C506   H507    1.083   .     S
C508   C510    1.400   .     A
C508   H509    1.083   .     S
C508   C158    1.384   1_565 S
C511   H512    1.082   .     S
C511   N519    1.367   .     A
C511   C397    1.418   1_655 S
C513   H514    1.082   .     S
C513   N515    1.368   .     A
N515   C516    1.360   .     A
C516   H517    1.082   .     S
C518   N520    1.426   .     S
C518   N519    1.378   .     A
C518   C400    1.416   1_655 S
N520   O522    1.300   .     A
N520   O521    1.300   .     A
O523   Cu529   1.964   .     S
O523   C525    1.293   .     A
O524   C525    1.292   .     A
O524   Cu530   1.963   .     S
C525   C568    1.449   .     S
O526   Cu529   1.962   .     S
O526   C528    1.312   .     A
O527   Cu530   1.952   .     S
O527   C528    1.289   .     A
C528   C553    1.485   .     S
Cu529  N573    2.016   .     S
Cu529  Cu530   2.683   .     S
Cu529  O533    1.952   .     S
Cu529  O531    1.963   .     S
Cu530  O534    1.962   .     S
Cu530  N577    2.016   .     S
Cu530  O532    1.964   .     S
O531   C535    1.292   .     A
O532   C535    1.294   .     A
O533   C536    1.293   .     A
O534   C536    1.299   .     A
C535   C563    1.449   .     S
C536   C541    1.462   .     S
C537   C552    1.389   .     A
H538   C552    1.082   .     S
H539   C549    1.085   .     S
H540   C15     1.081   1_556 S
C541   C552    1.398   .     A
C541   C551    1.401   .     A
C542   H555    1.083   .     S
C542   C543    1.390   .     A
C542   C553    1.402   .     A
C543   C22     1.389   1_556 S
C543   H35     1.080   1_556 S
C544   H556    1.077   .     S
C545   C546    1.419   .     A
C545   C22     1.414   1_556 S
C545   C25     1.426   1_556 S
C546   C553    1.432   .     A
C546   C550    1.416   .     A
C547   C551    1.402   .     A
C548   C549    1.387   .     A
C548   C15     1.398   1_556 S
C548   C25     1.418   1_556 S
C549   C550    1.382   .     A
C550   H558    1.076   .     S
C551   H554    1.075   .     S
C559   H560    1.083   .     S
C559   C568    1.401   .     A
C559   C735    1.384   .     S
C561   C563    1.400   .     A
C561   H562    1.083   .     S
C561   C907    1.384   1_545 S
C563   C564    1.401   .     A
C564   H565    1.083   .     S
C564   C914    1.384   1_545 S
C566   C568    1.400   .     A
C566   H567    1.083   .     S
C566   C738    1.384   .     S
C569   H570    1.082   .     S
C569   N577    1.367   .     A
C569   C629    1.418   .     S
C571   H572    1.082   .     S
C571   N573    1.368   .     A
C571   C685    1.418   1_455 S
N573   C574    1.360   .     A
C574   H575    1.082   .     S
C574   C692    1.416   1_455 S
C576   N578    1.426   .     S
C576   N577    1.378   .     A
C576   C632    1.416   .     S
N578   O580    1.300   .     A
N578   O579    1.300   .     A
O581   Cu587   1.964   .     S
O581   C583    1.293   .     A
O582   C583    1.292   .     A
O582   Cu588   1.963   .     S
C583   C626    1.449   .     S
O584   Cu587   1.962   .     S
O584   C586    1.312   .     A
O585   Cu588   1.952   .     S
O585   C586    1.289   .     A
C586   C611    1.485   .     S
Cu587  N631    2.016   .     S
Cu587  Cu588   2.683   .     S
Cu587  O591    1.952   .     S
Cu587  O589    1.963   .     S
Cu588  O592    1.962   .     S
Cu588  N635    2.016   .     S
Cu588  O590    1.964   .     S
O589   C593    1.292   .     A
O590   C593    1.294   .     A
O591   C594    1.293   .     A
O592   C594    1.299   .     A
C593   C621    1.449   .     S
C594   C599    1.462   .     S
C595   C610    1.389   .     A
H596   C610    1.082   .     S
H597   C607    1.085   .     S
H598   C73     1.081   1_556 S
C599   C610    1.398   .     A
C599   C609    1.401   .     A
C600   H613    1.083   .     S
C600   C601    1.390   .     A
C600   C611    1.402   .     A
C601   C80     1.389   1_556 S
C601   H93     1.080   1_556 S
C602   H614    1.077   .     S
C603   C604    1.419   .     A
C603   C80     1.414   1_556 S
C603   C83     1.426   1_556 S
C604   C611    1.432   .     A
C604   C608    1.416   .     A
C605   C609    1.402   .     A
C606   C607    1.387   .     A
C606   C73     1.398   1_556 S
C606   C83     1.418   1_556 S
C607   C608    1.382   .     A
C608   H616    1.076   .     S
C609   H612    1.075   .     S
C617   H618    1.083   .     S
C617   C626    1.401   .     A
C617   C793    1.384   .     S
C619   C621    1.400   .     A
C619   H620    1.083   .     S
C619   C965    1.384   1_545 S
C621   C622    1.401   .     A
C622   H623    1.083   .     S
C622   C972    1.384   1_545 S
C624   C626    1.400   .     A
C624   H625    1.083   .     S
C624   C796    1.384   .     S
C627   H628    1.082   .     S
C627   N635    1.367   .     A
C627   C687    1.418   .     S
C629   H630    1.082   .     S
C629   N631    1.368   .     A
N631   C632    1.360   .     A
C632   H633    1.082   .     S
C634   N636    1.426   .     S
C634   N635    1.378   .     A
C634   C690    1.416   .     S
N636   O638    1.300   .     A
N636   O637    1.300   .     A
O639   Cu645   1.964   .     S
O639   C641    1.293   .     A
O640   C641    1.292   .     A
O640   Cu646   1.963   .     S
C641   C684    1.449   .     S
O642   Cu645   1.962   .     S
O642   C644    1.312   .     A
O643   Cu646   1.952   .     S
O643   C644    1.289   .     A
C644   C669    1.485   .     S
Cu645  N689    2.016   .     S
Cu645  Cu646   2.683   .     S
Cu645  O649    1.952   .     S
Cu645  O647    1.963   .     S
Cu646  O650    1.962   .     S
Cu646  N693    2.016   .     S
Cu646  O648    1.964   .     S
O647   C651    1.292   .     A
O648   C651    1.294   .     A
O649   C652    1.293   .     A
O650   C652    1.299   .     A
C651   C679    1.449   .     S
C652   C657    1.462   .     S
C653   C668    1.389   .     A
H654   C668    1.082   .     S
H655   C665    1.085   .     S
H656   C131    1.081   1_556 S
C657   C668    1.398   .     A
C657   C667    1.401   .     A
C658   H671    1.083   .     S
C658   C659    1.390   .     A
C658   C669    1.402   .     A
C659   C138    1.389   1_556 S
C659   H151    1.080   1_556 S
C660   H672    1.077   .     S
C661   C662    1.419   .     A
C661   C138    1.414   1_556 S
C661   C141    1.426   1_556 S
C662   C669    1.432   .     A
C662   C666    1.416   .     A
C663   C667    1.402   .     A
C664   C665    1.387   .     A
C664   C131    1.398   1_556 S
C664   C141    1.418   1_556 S
C665   C666    1.382   .     A
C666   H674    1.076   .     S
C667   H670    1.075   .     S
C675   H676    1.083   .     S
C675   C684    1.401   .     A
C675   C851    1.384   .     S
C677   C679    1.400   .     A
C677   H678    1.083   .     S
C677   C1023   1.384   1_545 S
C679   C680    1.401   .     A
C680   H681    1.083   .     S
C680   C1030   1.384   1_545 S
C682   C684    1.400   .     A
C682   H683    1.083   .     S
C682   C854    1.384   .     S
C685   H686    1.082   .     S
C685   N693    1.367   .     A
C685   C571    1.418   1_655 S
C687   H688    1.082   .     S
C687   N689    1.368   .     A
N689   C690    1.360   .     A
C690   H691    1.082   .     S
C692   N694    1.426   .     S
C692   N693    1.378   .     A
C692   C574    1.416   1_655 S
N694   O696    1.300   .     A
N694   O695    1.300   .     A
O697   Cu703   1.964   .     S
O697   C699    1.293   .     A
O698   C699    1.292   .     A
O698   Cu704   1.963   .     S
C699   C742    1.449   .     S
O700   Cu703   1.962   .     S
O700   C702    1.312   .     A
O701   Cu704   1.952   .     S
O701   C702    1.289   .     A
C702   C727    1.485   .     S
Cu703  N747    2.016   .     S
Cu703  Cu704   2.683   .     S
Cu703  O707    1.952   .     S
Cu703  O705    1.963   .     S
Cu704  O708    1.962   .     S
Cu704  N751    2.016   .     S
Cu704  O706    1.964   .     S
O705   C709    1.292   .     A
O706   C709    1.294   .     A
O707   C710    1.293   .     A
O708   C710    1.299   .     A
C709   C737    1.449   .     S
C710   C715    1.462   .     S
C711   C726    1.389   .     A
H712   C726    1.082   .     S
H713   C723    1.085   .     S
H714   C189    1.081   1_556 S
C715   C726    1.398   .     A
C715   C725    1.401   .     A
C716   H729    1.083   .     S
C716   C717    1.390   .     A
C716   C727    1.402   .     A
C717   C196    1.389   1_556 S
C717   H209    1.080   1_556 S
C718   H730    1.077   .     S
C719   C720    1.419   .     A
C719   C196    1.414   1_556 S
C719   C199    1.426   1_556 S
C720   C727    1.432   .     A
C720   C724    1.416   .     A
C721   C725    1.402   .     A
C722   C723    1.387   .     A
C722   C189    1.398   1_556 S
C722   C199    1.418   1_556 S
C723   C724    1.382   .     A
C724   H732    1.076   .     S
C725   H728    1.075   .     S
C733   H734    1.083   .     S
C733   C742    1.401   .     A
C733   C909    1.384   .     S
C735   C737    1.400   .     A
C735   H736    1.083   .     S
C737   C738    1.401   .     A
C738   H739    1.083   .     S
C740   C742    1.400   .     A
C740   H741    1.083   .     S
C740   C912    1.384   .     S
C743   H744    1.082   .     S
C743   N751    1.367   .     A
C743   C803    1.418   .     S
C745   H746    1.082   .     S
C745   N747    1.368   .     A
C745   C859    1.418   1_455 S
N747   C748    1.360   .     A
C748   H749    1.082   .     S
C748   C866    1.416   1_455 S
C750   N752    1.426   .     S
C750   N751    1.378   .     A
C750   C806    1.416   .     S
N752   O754    1.300   .     A
N752   O753    1.300   .     A
O755   Cu761   1.964   .     S
O755   C757    1.293   .     A
O756   C757    1.292   .     A
O756   Cu762   1.963   .     S
C757   C800    1.449   .     S
O758   Cu761   1.962   .     S
O758   C760    1.312   .     A
O759   Cu762   1.952   .     S
O759   C760    1.289   .     A
C760   C785    1.485   .     S
Cu761  N805    2.016   .     S
Cu761  Cu762   2.683   .     S
Cu761  O765    1.952   .     S
Cu761  O763    1.963   .     S
Cu762  O766    1.962   .     S
Cu762  N809    2.016   .     S
Cu762  O764    1.964   .     S
O763   C767    1.292   .     A
O764   C767    1.294   .     A
O765   C768    1.293   .     A
O766   C768    1.299   .     A
C767   C795    1.449   .     S
C768   C773    1.462   .     S
C769   C784    1.389   .     A
H770   C784    1.082   .     S
H771   C781    1.085   .     S
H772   C247    1.081   1_556 S
C773   C784    1.398   .     A
C773   C783    1.401   .     A
C774   H787    1.083   .     S
C774   C775    1.390   .     A
C774   C785    1.402   .     A
C775   C254    1.389   1_556 S
C775   H267    1.080   1_556 S
C776   H788    1.077   .     S
C777   C778    1.419   .     A
C777   C254    1.414   1_556 S
C777   C257    1.426   1_556 S
C778   C785    1.432   .     A
C778   C782    1.416   .     A
C779   C783    1.402   .     A
C780   C781    1.387   .     A
C780   C247    1.398   1_556 S
C780   C257    1.418   1_556 S
C781   C782    1.382   .     A
C782   H790    1.076   .     S
C783   H786    1.075   .     S
C791   H792    1.083   .     S
C791   C800    1.401   .     A
C791   C967    1.384   .     S
C793   C795    1.400   .     A
C793   H794    1.083   .     S
C795   C796    1.401   .     A
C796   H797    1.083   .     S
C798   C800    1.400   .     A
C798   H799    1.083   .     S
C798   C970    1.384   .     S
C801   H802    1.082   .     S
C801   N809    1.367   .     A
C801   C861    1.418   .     S
C803   H804    1.082   .     S
C803   N805    1.368   .     A
N805   C806    1.360   .     A
C806   H807    1.082   .     S
C808   N810    1.426   .     S
C808   N809    1.378   .     A
C808   C864    1.416   .     S
N810   O812    1.300   .     A
N810   O811    1.300   .     A
O813   Cu819   1.964   .     S
O813   C815    1.293   .     A
O814   C815    1.292   .     A
O814   Cu820   1.963   .     S
C815   C858    1.449   .     S
O816   Cu819   1.962   .     S
O816   C818    1.312   .     A
O817   Cu820   1.952   .     S
O817   C818    1.289   .     A
C818   C843    1.485   .     S
Cu819  N863    2.016   .     S
Cu819  Cu820   2.683   .     S
Cu819  O823    1.952   .     S
Cu819  O821    1.963   .     S
Cu820  O824    1.962   .     S
Cu820  N867    2.016   .     S
Cu820  O822    1.964   .     S
O821   C825    1.292   .     A
O822   C825    1.294   .     A
O823   C826    1.293   .     A
O824   C826    1.299   .     A
C825   C853    1.449   .     S
C826   C831    1.462   .     S
C827   C842    1.389   .     A
H828   C842    1.082   .     S
H829   C839    1.085   .     S
H830   C305    1.081   1_556 S
C831   C842    1.398   .     A
C831   C841    1.401   .     A
C832   H845    1.083   .     S
C832   C833    1.390   .     A
C832   C843    1.402   .     A
C833   C312    1.389   1_556 S
C833   H325    1.080   1_556 S
C834   H846    1.077   .     S
C835   C836    1.419   .     A
C835   C312    1.414   1_556 S
C835   C315    1.426   1_556 S
C836   C843    1.432   .     A
C836   C840    1.416   .     A
C837   C841    1.402   .     A
C838   C839    1.387   .     A
C838   C305    1.398   1_556 S
C838   C315    1.418   1_556 S
C839   C840    1.382   .     A
C840   H848    1.076   .     S
C841   H844    1.075   .     S
C849   H850    1.083   .     S
C849   C858    1.401   .     A
C849   C1025   1.384   .     S
C851   C853    1.400   .     A
C851   H852    1.083   .     S
C853   C854    1.401   .     A
C854   H855    1.083   .     S
C856   C858    1.400   .     A
C856   H857    1.083   .     S
C856   C1028   1.384   .     S
C859   H860    1.082   .     S
C859   N867    1.367   .     A
C859   C745    1.418   1_655 S
C861   H862    1.082   .     S
C861   N863    1.368   .     A
N863   C864    1.360   .     A
C864   H865    1.082   .     S
C866   N868    1.426   .     S
C866   N867    1.378   .     A
C866   C748    1.416   1_655 S
N868   O870    1.300   .     A
N868   O869    1.300   .     A
O871   Cu877   1.964   .     S
O871   C873    1.293   .     A
O872   C873    1.292   .     A
O872   Cu878   1.963   .     S
C873   C916    1.449   .     S
O874   Cu877   1.962   .     S
O874   C876    1.312   .     A
O875   Cu878   1.952   .     S
O875   C876    1.289   .     A
C876   C901    1.485   .     S
Cu877  N921    2.016   .     S
Cu877  Cu878   2.683   .     S
Cu877  O881    1.952   .     S
Cu877  O879    1.963   .     S
Cu878  O882    1.962   .     S
Cu878  N925    2.016   .     S
Cu878  O880    1.964   .     S
O879   C883    1.292   .     A
O880   C883    1.294   .     A
O881   C884    1.293   .     A
O882   C884    1.299   .     A
C883   C911    1.449   .     S
C884   C889    1.462   .     S
C885   C900    1.389   .     A
H886   C900    1.082   .     S
H887   C897    1.085   .     S
H888   C363    1.081   1_556 S
C889   C900    1.398   .     A
C889   C899    1.401   .     A
C890   H903    1.083   .     S
C890   C891    1.390   .     A
C890   C901    1.402   .     A
C891   C370    1.389   1_556 S
C891   H383    1.080   1_556 S
C892   H904    1.077   .     S
C893   C894    1.419   .     A
C893   C370    1.414   1_556 S
C893   C373    1.426   1_556 S
C894   C901    1.432   .     A
C894   C898    1.416   .     A
C895   C899    1.402   .     A
C896   C897    1.387   .     A
C896   C363    1.398   1_556 S
C896   C373    1.418   1_556 S
C897   C898    1.382   .     A
C898   H906    1.076   .     S
C899   H902    1.075   .     S
C907   H908    1.083   .     S
C907   C916    1.401   .     A
C907   C561    1.384   1_565 S
C909   C911    1.400   .     A
C909   H910    1.083   .     S
C911   C912    1.401   .     A
C912   H913    1.083   .     S
C914   C916    1.400   .     A
C914   H915    1.083   .     S
C914   C564    1.384   1_565 S
C917   H918    1.082   .     S
C917   N925    1.367   .     A
C917   C977    1.418   .     S
C919   H920    1.082   .     S
C919   N921    1.368   .     A
C919   C1033   1.418   1_455 S
N921   C922    1.360   .     A
C922   H923    1.082   .     S
C922   C1040   1.416   1_455 S
C924   N926    1.426   .     S
C924   N925    1.378   .     A
C924   C980    1.416   .     S
N926   O928    1.300   .     A
N926   O927    1.300   .     A
O929   Cu935   1.964   .     S
O929   C931    1.293   .     A
O930   C931    1.292   .     A
O930   Cu936   1.963   .     S
C931   C974    1.449   .     S
O932   Cu935   1.962   .     S
O932   C934    1.312   .     A
O933   Cu936   1.952   .     S
O933   C934    1.289   .     A
C934   C959    1.485   .     S
Cu935  N979    2.016   .     S
Cu935  Cu936   2.683   .     S
Cu935  O939    1.952   .     S
Cu935  O937    1.963   .     S
Cu936  O940    1.962   .     S
Cu936  N983    2.016   .     S
Cu936  O938    1.964   .     S
O937   C941    1.292   .     A
O938   C941    1.294   .     A
O939   C942    1.293   .     A
O940   C942    1.299   .     A
C941   C969    1.449   .     S
C942   C947    1.462   .     S
C943   C958    1.389   .     A
H944   C958    1.082   .     S
H945   C955    1.085   .     S
H946   C421    1.081   1_556 S
C947   C958    1.398   .     A
C947   C957    1.401   .     A
C948   H961    1.083   .     S
C948   C949    1.390   .     A
C948   C959    1.402   .     A
C949   C428    1.389   1_556 S
C949   H441    1.080   1_556 S
C950   H962    1.077   .     S
C951   C952    1.419   .     A
C951   C428    1.414   1_556 S
C951   C431    1.426   1_556 S
C952   C959    1.432   .     A
C952   C956    1.416   .     A
C953   C957    1.402   .     A
C954   C955    1.387   .     A
C954   C421    1.398   1_556 S
C954   C431    1.418   1_556 S
C955   C956    1.382   .     A
C956   H964    1.076   .     S
C957   H960    1.075   .     S
C965   H966    1.083   .     S
C965   C974    1.401   .     A
C965   C619    1.384   1_565 S
C967   C969    1.400   .     A
C967   H968    1.083   .     S
C969   C970    1.401   .     A
C970   H971    1.083   .     S
C972   C974    1.400   .     A
C972   H973    1.083   .     S
C972   C622    1.384   1_565 S
C975   H976    1.082   .     S
C975   N983    1.367   .     A
C975   C1035   1.418   .     S
C977   H978    1.082   .     S
C977   N979    1.368   .     A
N979   C980    1.360   .     A
C980   H981    1.082   .     S
C982   N984    1.426   .     S
C982   N983    1.378   .     A
C982   C1038   1.416   .     S
N984   O986    1.300   .     A
N984   O985    1.300   .     A
O987   Cu993   1.964   .     S
O987   C989    1.293   .     A
O988   C989    1.292   .     A
O988   Cu994   1.963   .     S
C989   C1032   1.449   .     S
O990   Cu993   1.962   .     S
O990   C992    1.312   .     A
O991   Cu994   1.952   .     S
O991   C992    1.289   .     A
C992   C1017   1.485   .     S
Cu993  N1037   2.016   .     S
Cu993  Cu994   2.683   .     S
Cu993  O997    1.952   .     S
Cu993  O995    1.963   .     S
Cu994  O998    1.962   .     S
Cu994  N1041   2.016   .     S
Cu994  O996    1.964   .     S
O995   C999    1.292   .     A
O996   C999    1.294   .     A
O997   C1000   1.293   .     A
O998   C1000   1.299   .     A
C999   C1027   1.449   .     S
C1000  C1005   1.462   .     S
C1001  C1016   1.389   .     A
H1002  C1016   1.082   .     S
H1003  C1013   1.085   .     S
H1004  C479    1.081   1_556 S
C1005  C1016   1.398   .     A
C1005  C1015   1.401   .     A
C1006  H1019   1.083   .     S
C1006  C1007   1.390   .     A
C1006  C1017   1.402   .     A
C1007  C486    1.389   1_556 S
C1007  H499    1.080   1_556 S
C1008  H1020   1.077   .     S
C1009  C1010   1.419   .     A
C1009  C486    1.414   1_556 S
C1009  C489    1.426   1_556 S
C1010  C1017   1.432   .     A
C1010  C1014   1.416   .     A
C1011  C1015   1.402   .     A
C1012  C1013   1.387   .     A
C1012  C479    1.398   1_556 S
C1012  C489    1.418   1_556 S
C1013  C1014   1.382   .     A
C1014  H1022   1.076   .     S
C1015  H1018   1.075   .     S
C1023  H1024   1.083   .     S
C1023  C1032   1.401   .     A
C1023  C677    1.384   1_565 S
C1025  C1027   1.400   .     A
C1025  H1026   1.083   .     S
C1027  C1028   1.401   .     A
C1028  H1029   1.083   .     S
C1030  C1032   1.400   .     A
C1030  H1031   1.083   .     S
C1030  C680    1.384   1_565 S
C1033  H1034   1.082   .     S
C1033  N1041   1.367   .     A
C1033  C919    1.418   1_655 S
C1035  H1036   1.082   .     S
C1035  N1037   1.368   .     A
N1037  C1038   1.360   .     A
C1038  H1039   1.082   .     S
C1040  N1042   1.426   .     S
C1040  N1041   1.378   .     A
C1040  C922    1.416   1_655 S
N1042  O1044   1.300   .     A
N1042  O1043   1.300   .     A
