data_str_m2_o1_o18_pcu_sym.39
_audit_creation_date              2020-01-03
_audit_creation_method            'Materials Studio'
_symmetry_space_group_name_H-M    'P1'
_symmetry_Int_Tables_number       1
_symmetry_cell_setting            triclinic
loop_
_symmetry_equiv_pos_as_xyz
  x,y,z
_cell_length_a                    28.6270
_cell_length_b                    32.2249
_cell_length_c                    31.1140
_cell_angle_alpha                 89.1064
_cell_angle_beta                  73.6080
_cell_angle_gamma                 91.1551
loop_
_atom_site_label
_atom_site_type_symbol
_atom_site_fract_x
_atom_site_fract_y
_atom_site_fract_z
_atom_site_U_iso_or_equiv
_atom_site_adp_type
_atom_site_occupancy
C1     C     0.33306   0.08749   0.24954   0.00000  Uiso   1.00
C2     C     0.01111   0.02185   0.28436   0.00000  Uiso   1.00
C3     C     0.00119   0.29045   0.25010   0.00000  Uiso   1.00
C4     C     0.33234   0.04289   0.24953   0.00000  Uiso   1.00
C5     C     0.18383   0.13513   0.27141   0.00000  Uiso   1.00
C6     C     0.14980   0.19722   0.22748   0.00000  Uiso   1.00
C7     C     0.13396   0.13609   0.27189   0.00000  Uiso   1.00
C8     C     0.19911   0.19737   0.22830   0.00000  Uiso   1.00
C9     C     0.30560   0.16676   0.33626   0.00000  Uiso   1.00
C10    C     0.02758   0.16665   0.16398   0.00000  Uiso   1.00
C11    C     0.29013   0.16784   0.38582   0.00000  Uiso   1.00
C12    C     0.00035   0.24585   0.25024   0.00000  Uiso   1.00
C13    C     0.04357   0.17414   0.11544   0.00000  Uiso   1.00
C14    C     0.31139   0.15994   0.45602   0.00000  Uiso   1.00
C15    C     0.03725   0.21860   0.05371   0.00000  Uiso   1.00
C16    C     0.32505   0.16280   0.40921   0.00000  Uiso   1.00
C17    C     0.01711   0.20143   0.09656   0.00000  Uiso   1.00
C18    C     0.24085   0.17328   0.41003   0.00000  Uiso   1.00
C19    C     0.08941   0.16086   0.08980   0.00000  Uiso   1.00
C20    C     0.22844   0.17781   0.45709   0.00000  Uiso   1.00
C21    C     0.11335   0.18277   0.04954   0.00000  Uiso   1.00
C22    C     0.26250   0.16631   0.48024   0.00000  Uiso   1.00
C23    C     0.19740   0.16440   0.04983   0.00000  Uiso   1.00
C24    C     0.08579   0.20990   0.03020   0.00000  Uiso   1.00
C25    C     0.18191   0.19088   0.48217   0.00000  Uiso   1.00
C26    C     0.16374   0.17820   0.02750   0.00000  Uiso   1.00
C27    C     0.10610   0.08862   0.07313   0.00000  Uiso   1.00
C28    C     0.16868   0.13434   0.40205   0.00000  Uiso   1.00
C29    C     0.01894   0.10771   0.48703   0.00000  Uiso   1.00
C30    C     0.01513   0.28940   0.04591   0.00000  Uiso   1.00
C31    C     0.26180   0.04557   0.17936   0.00000  Uiso   1.00
C32    C     0.07245   0.28877   0.32011   0.00000  Uiso   1.00
C33    C     0.17330   0.06261   0.30264   0.00000  Uiso   1.00
C34    C     0.15434   0.21801   0.46387   0.00000  Uiso   1.00
C35    C     0.15202   0.22745   0.15561   0.00000  Uiso   1.00
C36    C     0.24655   0.16102   0.02698   0.00000  Uiso   1.00
C37    C     0.10734   0.22786   0.48774   0.00000  Uiso   1.00
C38    C     0.32137   0.02129   0.21459   0.00000  Uiso   1.00
C39    C     0.01241   0.31207   0.28490   0.00000  Uiso   1.00
C40    C     0.32256   0.31149   0.21519   0.00000  Uiso   1.00
Cu41   Cu    0.04689   0.16667   0.25000   0.00000  Uiso   1.00
Cu42   Cu    0.28645   0.16666   0.25000   0.00000  Uiso   1.00
H43    H     0.18709   0.15859   0.08551   0.00000  Uiso   1.00
H44    H     0.06744   0.07970   0.07682   0.00000  Uiso   1.00
H45    H     0.19319   0.19439   0.37360   0.00000  Uiso   1.00
H46    H     0.14655   0.13145   0.37811   0.00000  Uiso   1.00
H47    H     0.14337   0.13962   0.43558   0.00000  Uiso   1.00
H48    H     0.18779   0.10480   0.40286   0.00000  Uiso   1.00
H49    H     0.31482   0.21122   0.11598   0.00000  Uiso   1.00
H50    H     0.02957   0.15850   0.39111   0.00000  Uiso   1.00
H51    H     0.04728   0.16553   0.46305   0.00000  Uiso   1.00
H52    H     0.04570   0.10400   0.00650   0.00000  Uiso   1.00
H53    H     0.03221   0.09116   0.45494   0.00000  Uiso   1.00
H54    H     0.16978   0.23347   0.43182   0.00000  Uiso   1.00
H55    H     0.31690   0.09356   0.00683   0.00000  Uiso   1.00
H56    H     0.30636   0.23734   0.04280   0.00000  Uiso   1.00
H57    H     0.32778   0.30913   0.02853   0.00000  Uiso   1.00
H58    H     0.05411   0.29944   0.03435   0.00000  Uiso   1.00
H59    H     0.00101   0.29397   0.08262   0.00000  Uiso   1.00
H60    H     0.33303   0.03199   0.14704   0.00000  Uiso   1.00
H61    H     0.24577   0.01413   0.17773   0.00000  Uiso   1.00
H62    H     0.25823   0.06473   0.15053   0.00000  Uiso   1.00
H63    H     0.24131   0.06054   0.21065   0.00000  Uiso   1.00
H64    H     0.00076   0.30086   0.35235   0.00000  Uiso   1.00
H65    H     0.31454   0.29438   0.18826   0.00000  Uiso   1.00
H66    H     0.08757   0.32046   0.32229   0.00000  Uiso   1.00
H67    H     0.09351   0.27444   0.28863   0.00000  Uiso   1.00
H68    H     0.07642   0.26948   0.34871   0.00000  Uiso   1.00
H69    H     0.21823   0.10962   0.31629   0.00000  Uiso   1.00
H70    H     0.16212   0.05237   0.27298   0.00000  Uiso   1.00
H71    H     0.14077   0.06586   0.33185   0.00000  Uiso   1.00
H72    H     0.19650   0.03833   0.31100   0.00000  Uiso   1.00
H73    H     0.14044   0.25855   0.21473   0.00000  Uiso   1.00
H74    H     0.13330   0.25059   0.13994   0.00000  Uiso   1.00
H75    H     0.14451   0.19623   0.14445   0.00000  Uiso   1.00
H76    H     0.01921   0.03896   0.31125   0.00000  Uiso   1.00
H77    H     0.19188   0.23426   0.14422   0.00000  Uiso   1.00
H78    H     0.10817   0.11251   0.28982   0.00000  Uiso   1.00
H79    H     0.22396   0.22190   0.21089   0.00000  Uiso   1.00
H80    H     0.27147   0.15260   0.04597   0.00000  Uiso   1.00
H81    H     0.08765   0.24894   0.47219   0.00000  Uiso   1.00
H82    H     0.09745   0.11409   0.13496   0.00000  Uiso   1.00
H83    H     0.12450   0.06156   0.08297   0.00000  Uiso   1.00
H84    H     0.12469   0.09669   0.03747   0.00000  Uiso   1.00
N85    N     0.11736   0.16668   0.24999   0.00000  Uiso   1.00
N86    N     0.13400   0.22952   0.20382   0.00000  Uiso   1.00
N87    N     0.21597   0.16666   0.25001   0.00000  Uiso   1.00
N88    N     0.10868   0.12310   0.10170   0.00000  Uiso   1.00
N89    N     0.20379   0.16841   0.38774   0.00000  Uiso   1.00
N90    N     0.01398   0.15137   0.47836   0.00000  Uiso   1.00
N91    N     0.00926   0.24632   0.03557   0.00000  Uiso   1.00
N92    N     0.31269   0.04286   0.17745   0.00000  Uiso   1.00
N93    N     0.02152   0.29051   0.32185   0.00000  Uiso   1.00
N94    N     0.20084   0.10151   0.29287   0.00000  Uiso   1.00
O95    O     0.03958   0.10655   0.25000   0.00000  Uiso   1.00
O96    O     0.29375   0.22678   0.25000   0.00000  Uiso   1.00
O97    O     0.29372   0.10654   0.25000   0.00000  Uiso   1.00
O98    O     0.03961   0.22679   0.24999   0.00000  Uiso   1.00
O99    O     0.01852   0.16668   0.31491   0.00000  Uiso   1.00
O100   O     0.31481   0.16666   0.18508   0.00000  Uiso   1.00
O101   O     0.27267   0.16667   0.31492   0.00000  Uiso   1.00
O102   O     0.06067   0.16667   0.18508   0.00000  Uiso   1.00
C103   C     0.66639   0.08749   0.24954   0.00000  Uiso   1.00
C104   C     0.34445   0.02185   0.28436   0.00000  Uiso   1.00
C105   C     0.33452   0.29045   0.25010   0.00000  Uiso   1.00
C106   C     0.66567   0.04289   0.24953   0.00000  Uiso   1.00
C107   C     0.51716   0.13513   0.27141   0.00000  Uiso   1.00
C108   C     0.48314   0.19722   0.22748   0.00000  Uiso   1.00
C109   C     0.46729   0.13609   0.27189   0.00000  Uiso   1.00
C110   C     0.53244   0.19737   0.22830   0.00000  Uiso   1.00
C111   C     0.63894   0.16676   0.33626   0.00000  Uiso   1.00
C112   C     0.36091   0.16665   0.16398   0.00000  Uiso   1.00
C113   C     0.62346   0.16784   0.38582   0.00000  Uiso   1.00
C114   C     0.33368   0.24585   0.25024   0.00000  Uiso   1.00
C115   C     0.37691   0.17414   0.11544   0.00000  Uiso   1.00
C116   C     0.64472   0.15994   0.45602   0.00000  Uiso   1.00
C117   C     0.37058   0.21860   0.05371   0.00000  Uiso   1.00
C118   C     0.65838   0.16280   0.40921   0.00000  Uiso   1.00
C119   C     0.35044   0.20143   0.09656   0.00000  Uiso   1.00
C120   C     0.57418   0.17328   0.41003   0.00000  Uiso   1.00
C121   C     0.42274   0.16086   0.08980   0.00000  Uiso   1.00
C122   C     0.56177   0.17781   0.45709   0.00000  Uiso   1.00
C123   C     0.44668   0.18277   0.04954   0.00000  Uiso   1.00
C124   C     0.59583   0.16631   0.48024   0.00000  Uiso   1.00
C125   C     0.53073   0.16440   0.04983   0.00000  Uiso   1.00
C126   C     0.41912   0.20990   0.03020   0.00000  Uiso   1.00
C127   C     0.51525   0.19088   0.48217   0.00000  Uiso   1.00
C128   C     0.49708   0.17820   0.02750   0.00000  Uiso   1.00
C129   C     0.43944   0.08862   0.07313   0.00000  Uiso   1.00
C130   C     0.50201   0.13434   0.40205   0.00000  Uiso   1.00
C131   C     0.35228   0.10771   0.48703   0.00000  Uiso   1.00
C132   C     0.34846   0.28940   0.04591   0.00000  Uiso   1.00
C133   C     0.59514   0.04557   0.17936   0.00000  Uiso   1.00
C134   C     0.40579   0.28877   0.32011   0.00000  Uiso   1.00
C135   C     0.50663   0.06261   0.30264   0.00000  Uiso   1.00
C136   C     0.48768   0.21801   0.46387   0.00000  Uiso   1.00
C137   C     0.48535   0.22745   0.15561   0.00000  Uiso   1.00
C138   C     0.57988   0.16102   0.02698   0.00000  Uiso   1.00
C139   C     0.44067   0.22786   0.48774   0.00000  Uiso   1.00
C140   C     0.65471   0.02129   0.21459   0.00000  Uiso   1.00
C141   C     0.34574   0.31207   0.28490   0.00000  Uiso   1.00
C142   C     0.65589   0.31149   0.21519   0.00000  Uiso   1.00
Cu143  Cu    0.38022   0.16667   0.25000   0.00000  Uiso   1.00
Cu144  Cu    0.61978   0.16666   0.25000   0.00000  Uiso   1.00
H145   H     0.52042   0.15859   0.08551   0.00000  Uiso   1.00
H146   H     0.40077   0.07970   0.07682   0.00000  Uiso   1.00
H147   H     0.52652   0.19439   0.37360   0.00000  Uiso   1.00
H148   H     0.47988   0.13145   0.37811   0.00000  Uiso   1.00
H149   H     0.47670   0.13962   0.43558   0.00000  Uiso   1.00
H150   H     0.52112   0.10480   0.40286   0.00000  Uiso   1.00
H151   H     0.64815   0.21122   0.11598   0.00000  Uiso   1.00
H152   H     0.36290   0.15850   0.39111   0.00000  Uiso   1.00
H153   H     0.38061   0.16553   0.46305   0.00000  Uiso   1.00
H154   H     0.37903   0.10400   0.00650   0.00000  Uiso   1.00
H155   H     0.36554   0.09116   0.45494   0.00000  Uiso   1.00
H156   H     0.50312   0.23347   0.43182   0.00000  Uiso   1.00
H157   H     0.65023   0.09356   0.00683   0.00000  Uiso   1.00
H158   H     0.63969   0.23734   0.04280   0.00000  Uiso   1.00
H159   H     0.66111   0.30913   0.02853   0.00000  Uiso   1.00
H160   H     0.38744   0.29944   0.03435   0.00000  Uiso   1.00
H161   H     0.33434   0.29397   0.08262   0.00000  Uiso   1.00
H162   H     0.66636   0.03199   0.14704   0.00000  Uiso   1.00
H163   H     0.57911   0.01413   0.17773   0.00000  Uiso   1.00
H164   H     0.59156   0.06473   0.15053   0.00000  Uiso   1.00
H165   H     0.57465   0.06054   0.21065   0.00000  Uiso   1.00
H166   H     0.33409   0.30086   0.35235   0.00000  Uiso   1.00
H167   H     0.64787   0.29438   0.18826   0.00000  Uiso   1.00
H168   H     0.42090   0.32046   0.32229   0.00000  Uiso   1.00
H169   H     0.42684   0.27444   0.28863   0.00000  Uiso   1.00
H170   H     0.40975   0.26948   0.34871   0.00000  Uiso   1.00
H171   H     0.55156   0.10962   0.31629   0.00000  Uiso   1.00
H172   H     0.49546   0.05237   0.27298   0.00000  Uiso   1.00
H173   H     0.47410   0.06586   0.33185   0.00000  Uiso   1.00
H174   H     0.52983   0.03833   0.31100   0.00000  Uiso   1.00
H175   H     0.47377   0.25855   0.21473   0.00000  Uiso   1.00
H176   H     0.46664   0.25059   0.13994   0.00000  Uiso   1.00
H177   H     0.47784   0.19623   0.14445   0.00000  Uiso   1.00
H178   H     0.35255   0.03896   0.31125   0.00000  Uiso   1.00
H179   H     0.52521   0.23426   0.14422   0.00000  Uiso   1.00
H180   H     0.44151   0.11251   0.28982   0.00000  Uiso   1.00
H181   H     0.55729   0.22190   0.21089   0.00000  Uiso   1.00
H182   H     0.60481   0.15260   0.04597   0.00000  Uiso   1.00
H183   H     0.42099   0.24894   0.47219   0.00000  Uiso   1.00
H184   H     0.43078   0.11409   0.13496   0.00000  Uiso   1.00
H185   H     0.45783   0.06156   0.08297   0.00000  Uiso   1.00
H186   H     0.45802   0.09669   0.03747   0.00000  Uiso   1.00
N187   N     0.45069   0.16668   0.24999   0.00000  Uiso   1.00
N188   N     0.46733   0.22952   0.20382   0.00000  Uiso   1.00
N189   N     0.54931   0.16666   0.25001   0.00000  Uiso   1.00
N190   N     0.44202   0.12310   0.10170   0.00000  Uiso   1.00
N191   N     0.53713   0.16841   0.38774   0.00000  Uiso   1.00
N192   N     0.34731   0.15137   0.47836   0.00000  Uiso   1.00
N193   N     0.34260   0.24632   0.03557   0.00000  Uiso   1.00
N194   N     0.64603   0.04286   0.17745   0.00000  Uiso   1.00
N195   N     0.35485   0.29051   0.32185   0.00000  Uiso   1.00
N196   N     0.53418   0.10151   0.29287   0.00000  Uiso   1.00
O197   O     0.37291   0.10655   0.25000   0.00000  Uiso   1.00
O198   O     0.62709   0.22678   0.25000   0.00000  Uiso   1.00
O199   O     0.62706   0.10654   0.25000   0.00000  Uiso   1.00
O200   O     0.37294   0.22679   0.24999   0.00000  Uiso   1.00
O201   O     0.35186   0.16668   0.31491   0.00000  Uiso   1.00
O202   O     0.64814   0.16666   0.18508   0.00000  Uiso   1.00
O203   O     0.60600   0.16667   0.31492   0.00000  Uiso   1.00
O204   O     0.39400   0.16667   0.18508   0.00000  Uiso   1.00
C205   C     0.99973   0.08749   0.24954   0.00000  Uiso   1.00
C206   C     0.67778   0.02185   0.28436   0.00000  Uiso   1.00
C207   C     0.66786   0.29045   0.25010   0.00000  Uiso   1.00
C208   C     0.99901   0.04289   0.24953   0.00000  Uiso   1.00
C209   C     0.85050   0.13513   0.27141   0.00000  Uiso   1.00
C210   C     0.81647   0.19722   0.22748   0.00000  Uiso   1.00
C211   C     0.80063   0.13609   0.27189   0.00000  Uiso   1.00
C212   C     0.86578   0.19737   0.22830   0.00000  Uiso   1.00
C213   C     0.97227   0.16676   0.33626   0.00000  Uiso   1.00
C214   C     0.69424   0.16665   0.16398   0.00000  Uiso   1.00
C215   C     0.95680   0.16784   0.38582   0.00000  Uiso   1.00
C216   C     0.66702   0.24585   0.25024   0.00000  Uiso   1.00
C217   C     0.71024   0.17414   0.11544   0.00000  Uiso   1.00
C218   C     0.97806   0.15994   0.45602   0.00000  Uiso   1.00
C219   C     0.70392   0.21860   0.05371   0.00000  Uiso   1.00
C220   C     0.99171   0.16280   0.40921   0.00000  Uiso   1.00
C221   C     0.68377   0.20143   0.09656   0.00000  Uiso   1.00
C222   C     0.90752   0.17328   0.41003   0.00000  Uiso   1.00
C223   C     0.75608   0.16086   0.08980   0.00000  Uiso   1.00
C224   C     0.89510   0.17781   0.45709   0.00000  Uiso   1.00
C225   C     0.78001   0.18277   0.04954   0.00000  Uiso   1.00
C226   C     0.92917   0.16631   0.48024   0.00000  Uiso   1.00
C227   C     0.86407   0.16440   0.04983   0.00000  Uiso   1.00
C228   C     0.75245   0.20990   0.03020   0.00000  Uiso   1.00
C229   C     0.84858   0.19088   0.48217   0.00000  Uiso   1.00
C230   C     0.83041   0.17820   0.02750   0.00000  Uiso   1.00
C231   C     0.77277   0.08862   0.07313   0.00000  Uiso   1.00
C232   C     0.83535   0.13434   0.40205   0.00000  Uiso   1.00
C233   C     0.68561   0.10771   0.48703   0.00000  Uiso   1.00
C234   C     0.68180   0.28940   0.04591   0.00000  Uiso   1.00
C235   C     0.92847   0.04557   0.17936   0.00000  Uiso   1.00
C236   C     0.73912   0.28877   0.32011   0.00000  Uiso   1.00
C237   C     0.83996   0.06261   0.30264   0.00000  Uiso   1.00
C238   C     0.82101   0.21801   0.46387   0.00000  Uiso   1.00
C239   C     0.81868   0.22745   0.15561   0.00000  Uiso   1.00
C240   C     0.91322   0.16102   0.02698   0.00000  Uiso   1.00
C241   C     0.77401   0.22786   0.48774   0.00000  Uiso   1.00
C242   C     0.98804   0.02129   0.21459   0.00000  Uiso   1.00
C243   C     0.67907   0.31207   0.28490   0.00000  Uiso   1.00
C244   C     0.98922   0.31149   0.21519   0.00000  Uiso   1.00
Cu245  Cu    0.71355   0.16667   0.25000   0.00000  Uiso   1.00
Cu246  Cu    0.95311   0.16666   0.25000   0.00000  Uiso   1.00
H247   H     0.85376   0.15859   0.08551   0.00000  Uiso   1.00
H248   H     0.73410   0.07970   0.07682   0.00000  Uiso   1.00
H249   H     0.85985   0.19439   0.37360   0.00000  Uiso   1.00
H250   H     0.81321   0.13145   0.37811   0.00000  Uiso   1.00
H251   H     0.81003   0.13962   0.43558   0.00000  Uiso   1.00
H252   H     0.85446   0.10480   0.40286   0.00000  Uiso   1.00
H253   H     0.98149   0.21122   0.11598   0.00000  Uiso   1.00
H254   H     0.69623   0.15850   0.39111   0.00000  Uiso   1.00
H255   H     0.71395   0.16553   0.46305   0.00000  Uiso   1.00
H256   H     0.71237   0.10400   0.00650   0.00000  Uiso   1.00
H257   H     0.69887   0.09116   0.45494   0.00000  Uiso   1.00
H258   H     0.83645   0.23347   0.43182   0.00000  Uiso   1.00
H259   H     0.98357   0.09356   0.00683   0.00000  Uiso   1.00
H260   H     0.97302   0.23734   0.04280   0.00000  Uiso   1.00
H261   H     0.99445   0.30913   0.02853   0.00000  Uiso   1.00
H262   H     0.72078   0.29944   0.03435   0.00000  Uiso   1.00
H263   H     0.66768   0.29397   0.08262   0.00000  Uiso   1.00
H264   H     0.99970   0.03199   0.14704   0.00000  Uiso   1.00
H265   H     0.91244   0.01413   0.17773   0.00000  Uiso   1.00
H266   H     0.92490   0.06473   0.15053   0.00000  Uiso   1.00
H267   H     0.90798   0.06054   0.21065   0.00000  Uiso   1.00
H268   H     0.66742   0.30086   0.35235   0.00000  Uiso   1.00
H269   H     0.98121   0.29438   0.18826   0.00000  Uiso   1.00
H270   H     0.75424   0.32046   0.32229   0.00000  Uiso   1.00
H271   H     0.76018   0.27444   0.28863   0.00000  Uiso   1.00
H272   H     0.74308   0.26948   0.34871   0.00000  Uiso   1.00
H273   H     0.88490   0.10962   0.31629   0.00000  Uiso   1.00
H274   H     0.82879   0.05237   0.27298   0.00000  Uiso   1.00
H275   H     0.80744   0.06586   0.33185   0.00000  Uiso   1.00
H276   H     0.86316   0.03833   0.31100   0.00000  Uiso   1.00
H277   H     0.80711   0.25855   0.21473   0.00000  Uiso   1.00
H278   H     0.79997   0.25059   0.13994   0.00000  Uiso   1.00
H279   H     0.81118   0.19623   0.14445   0.00000  Uiso   1.00
H280   H     0.68588   0.03896   0.31125   0.00000  Uiso   1.00
H281   H     0.85855   0.23426   0.14422   0.00000  Uiso   1.00
H282   H     0.77484   0.11251   0.28982   0.00000  Uiso   1.00
H283   H     0.89062   0.22190   0.21089   0.00000  Uiso   1.00
H284   H     0.93814   0.15260   0.04597   0.00000  Uiso   1.00
H285   H     0.75432   0.24894   0.47219   0.00000  Uiso   1.00
H286   H     0.76411   0.11409   0.13496   0.00000  Uiso   1.00
H287   H     0.79117   0.06156   0.08297   0.00000  Uiso   1.00
H288   H     0.79135   0.09669   0.03747   0.00000  Uiso   1.00
N289   N     0.78403   0.16668   0.24999   0.00000  Uiso   1.00
N290   N     0.80066   0.22952   0.20382   0.00000  Uiso   1.00
N291   N     0.88264   0.16666   0.25001   0.00000  Uiso   1.00
N292   N     0.77535   0.12310   0.10170   0.00000  Uiso   1.00
N293   N     0.87046   0.16841   0.38774   0.00000  Uiso   1.00
N294   N     0.68064   0.15137   0.47836   0.00000  Uiso   1.00
N295   N     0.67593   0.24632   0.03557   0.00000  Uiso   1.00
N296   N     0.97936   0.04286   0.17745   0.00000  Uiso   1.00
N297   N     0.68819   0.29051   0.32185   0.00000  Uiso   1.00
N298   N     0.86751   0.10151   0.29287   0.00000  Uiso   1.00
O299   O     0.70625   0.10655   0.25000   0.00000  Uiso   1.00
O300   O     0.96042   0.22678   0.25000   0.00000  Uiso   1.00
O301   O     0.96039   0.10654   0.25000   0.00000  Uiso   1.00
O302   O     0.70628   0.22679   0.24999   0.00000  Uiso   1.00
O303   O     0.68519   0.16668   0.31491   0.00000  Uiso   1.00
O304   O     0.98148   0.16666   0.18508   0.00000  Uiso   1.00
O305   O     0.93933   0.16667   0.31492   0.00000  Uiso   1.00
O306   O     0.72733   0.16667   0.18508   0.00000  Uiso   1.00
C307   C     0.33306   0.42082   0.24954   0.00000  Uiso   1.00
C308   C     0.01111   0.35519   0.28436   0.00000  Uiso   1.00
C309   C     0.00119   0.62378   0.25010   0.00000  Uiso   1.00
C310   C     0.33234   0.37623   0.24953   0.00000  Uiso   1.00
C311   C     0.18383   0.46846   0.27141   0.00000  Uiso   1.00
C312   C     0.14980   0.53055   0.22748   0.00000  Uiso   1.00
C313   C     0.13396   0.46943   0.27189   0.00000  Uiso   1.00
C314   C     0.19911   0.53070   0.22830   0.00000  Uiso   1.00
C315   C     0.30560   0.50009   0.33626   0.00000  Uiso   1.00
C316   C     0.02758   0.49998   0.16398   0.00000  Uiso   1.00
C317   C     0.29013   0.50118   0.38582   0.00000  Uiso   1.00
C318   C     0.00035   0.57918   0.25024   0.00000  Uiso   1.00
C319   C     0.04357   0.50747   0.11544   0.00000  Uiso   1.00
C320   C     0.31139   0.49327   0.45602   0.00000  Uiso   1.00
C321   C     0.03725   0.55193   0.05371   0.00000  Uiso   1.00
C322   C     0.32505   0.49613   0.40921   0.00000  Uiso   1.00
C323   C     0.01711   0.53477   0.09656   0.00000  Uiso   1.00
C324   C     0.24085   0.50662   0.41003   0.00000  Uiso   1.00
C325   C     0.08941   0.49420   0.08980   0.00000  Uiso   1.00
C326   C     0.22844   0.51114   0.45709   0.00000  Uiso   1.00
C327   C     0.11335   0.51611   0.04954   0.00000  Uiso   1.00
C328   C     0.26250   0.49964   0.48024   0.00000  Uiso   1.00
C329   C     0.19740   0.49773   0.04983   0.00000  Uiso   1.00
C330   C     0.08579   0.54323   0.03020   0.00000  Uiso   1.00
C331   C     0.18191   0.52421   0.48217   0.00000  Uiso   1.00
C332   C     0.16374   0.51153   0.02750   0.00000  Uiso   1.00
C333   C     0.10610   0.42196   0.07313   0.00000  Uiso   1.00
C334   C     0.16868   0.46767   0.40205   0.00000  Uiso   1.00
C335   C     0.01894   0.44104   0.48703   0.00000  Uiso   1.00
C336   C     0.01513   0.62273   0.04591   0.00000  Uiso   1.00
C337   C     0.26180   0.37891   0.17936   0.00000  Uiso   1.00
C338   C     0.07245   0.62210   0.32011   0.00000  Uiso   1.00
C339   C     0.17330   0.39594   0.30264   0.00000  Uiso   1.00
C340   C     0.15434   0.55135   0.46387   0.00000  Uiso   1.00
C341   C     0.15202   0.56078   0.15561   0.00000  Uiso   1.00
C342   C     0.24655   0.49435   0.02698   0.00000  Uiso   1.00
C343   C     0.10734   0.56120   0.48774   0.00000  Uiso   1.00
C344   C     0.32137   0.35462   0.21459   0.00000  Uiso   1.00
C345   C     0.01241   0.64540   0.28490   0.00000  Uiso   1.00
C346   C     0.32256   0.64482   0.21519   0.00000  Uiso   1.00
Cu347  Cu    0.04689   0.50001   0.25000   0.00000  Uiso   1.00
Cu348  Cu    0.28645   0.49999   0.25000   0.00000  Uiso   1.00
H349   H     0.18709   0.49192   0.08551   0.00000  Uiso   1.00
H350   H     0.06744   0.41304   0.07682   0.00000  Uiso   1.00
H351   H     0.19319   0.52772   0.37360   0.00000  Uiso   1.00
H352   H     0.14655   0.46478   0.37811   0.00000  Uiso   1.00
H353   H     0.14337   0.47295   0.43558   0.00000  Uiso   1.00
H354   H     0.18779   0.43813   0.40286   0.00000  Uiso   1.00
H355   H     0.31482   0.54455   0.11598   0.00000  Uiso   1.00
H356   H     0.02957   0.49184   0.39111   0.00000  Uiso   1.00
H357   H     0.04728   0.49887   0.46305   0.00000  Uiso   1.00
H358   H     0.04570   0.43734   0.00650   0.00000  Uiso   1.00
H359   H     0.03221   0.42450   0.45494   0.00000  Uiso   1.00
H360   H     0.16978   0.56680   0.43182   0.00000  Uiso   1.00
H361   H     0.31690   0.42689   0.00683   0.00000  Uiso   1.00
H362   H     0.30636   0.57067   0.04280   0.00000  Uiso   1.00
H363   H     0.32778   0.64247   0.02853   0.00000  Uiso   1.00
H364   H     0.05411   0.63277   0.03435   0.00000  Uiso   1.00
H365   H     0.00101   0.62730   0.08262   0.00000  Uiso   1.00
H366   H     0.33303   0.36532   0.14704   0.00000  Uiso   1.00
H367   H     0.24577   0.34746   0.17773   0.00000  Uiso   1.00
H368   H     0.25823   0.39806   0.15053   0.00000  Uiso   1.00
H369   H     0.24131   0.39387   0.21065   0.00000  Uiso   1.00
H370   H     0.00076   0.63420   0.35235   0.00000  Uiso   1.00
H371   H     0.31454   0.62771   0.18826   0.00000  Uiso   1.00
H372   H     0.08757   0.65380   0.32229   0.00000  Uiso   1.00
H373   H     0.09351   0.60777   0.28863   0.00000  Uiso   1.00
H374   H     0.07642   0.60281   0.34871   0.00000  Uiso   1.00
H375   H     0.21823   0.44296   0.31629   0.00000  Uiso   1.00
H376   H     0.16212   0.38570   0.27298   0.00000  Uiso   1.00
H377   H     0.14077   0.39919   0.33185   0.00000  Uiso   1.00
H378   H     0.19650   0.37166   0.31100   0.00000  Uiso   1.00
H379   H     0.14044   0.59189   0.21473   0.00000  Uiso   1.00
H380   H     0.13330   0.58393   0.13994   0.00000  Uiso   1.00
H381   H     0.14451   0.52957   0.14445   0.00000  Uiso   1.00
H382   H     0.01921   0.37229   0.31125   0.00000  Uiso   1.00
H383   H     0.19188   0.56759   0.14422   0.00000  Uiso   1.00
H384   H     0.10817   0.44584   0.28982   0.00000  Uiso   1.00
H385   H     0.22396   0.55523   0.21089   0.00000  Uiso   1.00
H386   H     0.27147   0.48593   0.04597   0.00000  Uiso   1.00
H387   H     0.08765   0.58228   0.47219   0.00000  Uiso   1.00
H388   H     0.09745   0.44743   0.13496   0.00000  Uiso   1.00
H389   H     0.12450   0.39489   0.08297   0.00000  Uiso   1.00
H390   H     0.12469   0.43002   0.03747   0.00000  Uiso   1.00
N391   N     0.11736   0.50001   0.24999   0.00000  Uiso   1.00
N392   N     0.13400   0.56285   0.20382   0.00000  Uiso   1.00
N393   N     0.21597   0.49999   0.25001   0.00000  Uiso   1.00
N394   N     0.10868   0.45644   0.10170   0.00000  Uiso   1.00
N395   N     0.20379   0.50174   0.38774   0.00000  Uiso   1.00
N396   N     0.01398   0.48470   0.47836   0.00000  Uiso   1.00
N397   N     0.00926   0.57965   0.03557   0.00000  Uiso   1.00
N398   N     0.31269   0.37619   0.17745   0.00000  Uiso   1.00
N399   N     0.02152   0.62384   0.32185   0.00000  Uiso   1.00
N400   N     0.20084   0.43484   0.29287   0.00000  Uiso   1.00
O401   O     0.03958   0.43989   0.25000   0.00000  Uiso   1.00
O402   O     0.29375   0.56011   0.25000   0.00000  Uiso   1.00
O403   O     0.29372   0.43988   0.25000   0.00000  Uiso   1.00
O404   O     0.03961   0.56012   0.24999   0.00000  Uiso   1.00
O405   O     0.01852   0.50001   0.31491   0.00000  Uiso   1.00
O406   O     0.31481   0.49999   0.18508   0.00000  Uiso   1.00
O407   O     0.27267   0.50000   0.31492   0.00000  Uiso   1.00
O408   O     0.06067   0.50000   0.18508   0.00000  Uiso   1.00
C409   C     0.66639   0.42082   0.24954   0.00000  Uiso   1.00
C410   C     0.34445   0.35519   0.28436   0.00000  Uiso   1.00
C411   C     0.33452   0.62378   0.25010   0.00000  Uiso   1.00
C412   C     0.66567   0.37623   0.24953   0.00000  Uiso   1.00
C413   C     0.51716   0.46846   0.27141   0.00000  Uiso   1.00
C414   C     0.48314   0.53055   0.22748   0.00000  Uiso   1.00
C415   C     0.46729   0.46943   0.27189   0.00000  Uiso   1.00
C416   C     0.53244   0.53070   0.22830   0.00000  Uiso   1.00
C417   C     0.63894   0.50009   0.33626   0.00000  Uiso   1.00
C418   C     0.36091   0.49998   0.16398   0.00000  Uiso   1.00
C419   C     0.62346   0.50118   0.38582   0.00000  Uiso   1.00
C420   C     0.33368   0.57918   0.25024   0.00000  Uiso   1.00
C421   C     0.37691   0.50747   0.11544   0.00000  Uiso   1.00
C422   C     0.64472   0.49327   0.45602   0.00000  Uiso   1.00
C423   C     0.37058   0.55193   0.05371   0.00000  Uiso   1.00
C424   C     0.65838   0.49613   0.40921   0.00000  Uiso   1.00
C425   C     0.35044   0.53477   0.09656   0.00000  Uiso   1.00
C426   C     0.57418   0.50662   0.41003   0.00000  Uiso   1.00
C427   C     0.42274   0.49420   0.08980   0.00000  Uiso   1.00
C428   C     0.56177   0.51114   0.45709   0.00000  Uiso   1.00
C429   C     0.44668   0.51611   0.04954   0.00000  Uiso   1.00
C430   C     0.59583   0.49964   0.48024   0.00000  Uiso   1.00
C431   C     0.53073   0.49773   0.04983   0.00000  Uiso   1.00
C432   C     0.41912   0.54323   0.03020   0.00000  Uiso   1.00
C433   C     0.51525   0.52421   0.48217   0.00000  Uiso   1.00
C434   C     0.49708   0.51153   0.02750   0.00000  Uiso   1.00
C435   C     0.43944   0.42196   0.07313   0.00000  Uiso   1.00
C436   C     0.50201   0.46767   0.40205   0.00000  Uiso   1.00
C437   C     0.35228   0.44104   0.48703   0.00000  Uiso   1.00
C438   C     0.34846   0.62273   0.04591   0.00000  Uiso   1.00
C439   C     0.59514   0.37891   0.17936   0.00000  Uiso   1.00
C440   C     0.40579   0.62210   0.32011   0.00000  Uiso   1.00
C441   C     0.50663   0.39594   0.30264   0.00000  Uiso   1.00
C442   C     0.48768   0.55135   0.46387   0.00000  Uiso   1.00
C443   C     0.48535   0.56078   0.15561   0.00000  Uiso   1.00
C444   C     0.57988   0.49435   0.02698   0.00000  Uiso   1.00
C445   C     0.44067   0.56120   0.48774   0.00000  Uiso   1.00
C446   C     0.65471   0.35462   0.21459   0.00000  Uiso   1.00
C447   C     0.34574   0.64540   0.28490   0.00000  Uiso   1.00
C448   C     0.65589   0.64482   0.21519   0.00000  Uiso   1.00
Cu449  Cu    0.38022   0.50001   0.25000   0.00000  Uiso   1.00
Cu450  Cu    0.61978   0.49999   0.25000   0.00000  Uiso   1.00
H451   H     0.52042   0.49192   0.08551   0.00000  Uiso   1.00
H452   H     0.40077   0.41304   0.07682   0.00000  Uiso   1.00
H453   H     0.52652   0.52772   0.37360   0.00000  Uiso   1.00
H454   H     0.47988   0.46478   0.37811   0.00000  Uiso   1.00
H455   H     0.47670   0.47295   0.43558   0.00000  Uiso   1.00
H456   H     0.52112   0.43813   0.40286   0.00000  Uiso   1.00
H457   H     0.64815   0.54455   0.11598   0.00000  Uiso   1.00
H458   H     0.36290   0.49184   0.39111   0.00000  Uiso   1.00
H459   H     0.38061   0.49887   0.46305   0.00000  Uiso   1.00
H460   H     0.37903   0.43734   0.00650   0.00000  Uiso   1.00
H461   H     0.36554   0.42450   0.45494   0.00000  Uiso   1.00
H462   H     0.50312   0.56680   0.43182   0.00000  Uiso   1.00
H463   H     0.65023   0.42689   0.00683   0.00000  Uiso   1.00
H464   H     0.63969   0.57067   0.04280   0.00000  Uiso   1.00
H465   H     0.66111   0.64247   0.02853   0.00000  Uiso   1.00
H466   H     0.38744   0.63277   0.03435   0.00000  Uiso   1.00
H467   H     0.33434   0.62730   0.08262   0.00000  Uiso   1.00
H468   H     0.66636   0.36532   0.14704   0.00000  Uiso   1.00
H469   H     0.57911   0.34746   0.17773   0.00000  Uiso   1.00
H470   H     0.59156   0.39806   0.15053   0.00000  Uiso   1.00
H471   H     0.57465   0.39387   0.21065   0.00000  Uiso   1.00
H472   H     0.33409   0.63420   0.35235   0.00000  Uiso   1.00
H473   H     0.64787   0.62771   0.18826   0.00000  Uiso   1.00
H474   H     0.42090   0.65380   0.32229   0.00000  Uiso   1.00
H475   H     0.42684   0.60777   0.28863   0.00000  Uiso   1.00
H476   H     0.40975   0.60281   0.34871   0.00000  Uiso   1.00
H477   H     0.55156   0.44296   0.31629   0.00000  Uiso   1.00
H478   H     0.49546   0.38570   0.27298   0.00000  Uiso   1.00
H479   H     0.47410   0.39919   0.33185   0.00000  Uiso   1.00
H480   H     0.52983   0.37166   0.31100   0.00000  Uiso   1.00
H481   H     0.47377   0.59189   0.21473   0.00000  Uiso   1.00
H482   H     0.46664   0.58393   0.13994   0.00000  Uiso   1.00
H483   H     0.47784   0.52957   0.14445   0.00000  Uiso   1.00
H484   H     0.35255   0.37229   0.31125   0.00000  Uiso   1.00
H485   H     0.52521   0.56759   0.14422   0.00000  Uiso   1.00
H486   H     0.44151   0.44584   0.28982   0.00000  Uiso   1.00
H487   H     0.55729   0.55523   0.21089   0.00000  Uiso   1.00
H488   H     0.60481   0.48593   0.04597   0.00000  Uiso   1.00
H489   H     0.42099   0.58228   0.47219   0.00000  Uiso   1.00
H490   H     0.43078   0.44743   0.13496   0.00000  Uiso   1.00
H491   H     0.45783   0.39489   0.08297   0.00000  Uiso   1.00
H492   H     0.45802   0.43002   0.03747   0.00000  Uiso   1.00
N493   N     0.45069   0.50001   0.24999   0.00000  Uiso   1.00
N494   N     0.46733   0.56285   0.20382   0.00000  Uiso   1.00
N495   N     0.54931   0.49999   0.25001   0.00000  Uiso   1.00
N496   N     0.44202   0.45644   0.10170   0.00000  Uiso   1.00
N497   N     0.53713   0.50174   0.38774   0.00000  Uiso   1.00
N498   N     0.34731   0.48470   0.47836   0.00000  Uiso   1.00
N499   N     0.34260   0.57965   0.03557   0.00000  Uiso   1.00
N500   N     0.64603   0.37619   0.17745   0.00000  Uiso   1.00
N501   N     0.35485   0.62384   0.32185   0.00000  Uiso   1.00
N502   N     0.53418   0.43484   0.29287   0.00000  Uiso   1.00
O503   O     0.37291   0.43989   0.25000   0.00000  Uiso   1.00
O504   O     0.62709   0.56011   0.25000   0.00000  Uiso   1.00
O505   O     0.62706   0.43988   0.25000   0.00000  Uiso   1.00
O506   O     0.37294   0.56012   0.24999   0.00000  Uiso   1.00
O507   O     0.35186   0.50001   0.31491   0.00000  Uiso   1.00
O508   O     0.64814   0.49999   0.18508   0.00000  Uiso   1.00
O509   O     0.60600   0.50000   0.31492   0.00000  Uiso   1.00
O510   O     0.39400   0.50000   0.18508   0.00000  Uiso   1.00
C511   C     0.99973   0.42082   0.24954   0.00000  Uiso   1.00
C512   C     0.67778   0.35519   0.28436   0.00000  Uiso   1.00
C513   C     0.66786   0.62378   0.25010   0.00000  Uiso   1.00
C514   C     0.99901   0.37623   0.24953   0.00000  Uiso   1.00
C515   C     0.85050   0.46846   0.27141   0.00000  Uiso   1.00
C516   C     0.81647   0.53055   0.22748   0.00000  Uiso   1.00
C517   C     0.80063   0.46943   0.27189   0.00000  Uiso   1.00
C518   C     0.86578   0.53070   0.22830   0.00000  Uiso   1.00
C519   C     0.97227   0.50009   0.33626   0.00000  Uiso   1.00
C520   C     0.69424   0.49998   0.16398   0.00000  Uiso   1.00
C521   C     0.95680   0.50118   0.38582   0.00000  Uiso   1.00
C522   C     0.66702   0.57918   0.25024   0.00000  Uiso   1.00
C523   C     0.71024   0.50747   0.11544   0.00000  Uiso   1.00
C524   C     0.97806   0.49327   0.45602   0.00000  Uiso   1.00
C525   C     0.70392   0.55193   0.05371   0.00000  Uiso   1.00
C526   C     0.99171   0.49613   0.40921   0.00000  Uiso   1.00
C527   C     0.68377   0.53477   0.09656   0.00000  Uiso   1.00
C528   C     0.90752   0.50662   0.41003   0.00000  Uiso   1.00
C529   C     0.75608   0.49420   0.08980   0.00000  Uiso   1.00
C530   C     0.89510   0.51114   0.45709   0.00000  Uiso   1.00
C531   C     0.78001   0.51611   0.04954   0.00000  Uiso   1.00
C532   C     0.92917   0.49964   0.48024   0.00000  Uiso   1.00
C533   C     0.86407   0.49773   0.04983   0.00000  Uiso   1.00
C534   C     0.75245   0.54323   0.03020   0.00000  Uiso   1.00
C535   C     0.84858   0.52421   0.48217   0.00000  Uiso   1.00
C536   C     0.83041   0.51153   0.02750   0.00000  Uiso   1.00
C537   C     0.77277   0.42196   0.07313   0.00000  Uiso   1.00
C538   C     0.83535   0.46767   0.40205   0.00000  Uiso   1.00
C539   C     0.68561   0.44104   0.48703   0.00000  Uiso   1.00
C540   C     0.68180   0.62273   0.04591   0.00000  Uiso   1.00
C541   C     0.92847   0.37891   0.17936   0.00000  Uiso   1.00
C542   C     0.73912   0.62210   0.32011   0.00000  Uiso   1.00
C543   C     0.83996   0.39594   0.30264   0.00000  Uiso   1.00
C544   C     0.82101   0.55135   0.46387   0.00000  Uiso   1.00
C545   C     0.81868   0.56078   0.15561   0.00000  Uiso   1.00
C546   C     0.91322   0.49435   0.02698   0.00000  Uiso   1.00
C547   C     0.77401   0.56120   0.48774   0.00000  Uiso   1.00
C548   C     0.98804   0.35462   0.21459   0.00000  Uiso   1.00
C549   C     0.67907   0.64540   0.28490   0.00000  Uiso   1.00
C550   C     0.98922   0.64482   0.21519   0.00000  Uiso   1.00
Cu551  Cu    0.71355   0.50001   0.25000   0.00000  Uiso   1.00
Cu552  Cu    0.95311   0.49999   0.25000   0.00000  Uiso   1.00
H553   H     0.85376   0.49192   0.08551   0.00000  Uiso   1.00
H554   H     0.73410   0.41304   0.07682   0.00000  Uiso   1.00
H555   H     0.85985   0.52772   0.37360   0.00000  Uiso   1.00
H556   H     0.81321   0.46478   0.37811   0.00000  Uiso   1.00
H557   H     0.81003   0.47295   0.43558   0.00000  Uiso   1.00
H558   H     0.85446   0.43813   0.40286   0.00000  Uiso   1.00
H559   H     0.98149   0.54455   0.11598   0.00000  Uiso   1.00
H560   H     0.69623   0.49184   0.39111   0.00000  Uiso   1.00
H561   H     0.71395   0.49887   0.46305   0.00000  Uiso   1.00
H562   H     0.71237   0.43734   0.00650   0.00000  Uiso   1.00
H563   H     0.69887   0.42450   0.45494   0.00000  Uiso   1.00
H564   H     0.83645   0.56680   0.43182   0.00000  Uiso   1.00
H565   H     0.98357   0.42689   0.00683   0.00000  Uiso   1.00
H566   H     0.97302   0.57067   0.04280   0.00000  Uiso   1.00
H567   H     0.99445   0.64247   0.02853   0.00000  Uiso   1.00
H568   H     0.72078   0.63277   0.03435   0.00000  Uiso   1.00
H569   H     0.66768   0.62730   0.08262   0.00000  Uiso   1.00
H570   H     0.99970   0.36532   0.14704   0.00000  Uiso   1.00
H571   H     0.91244   0.34746   0.17773   0.00000  Uiso   1.00
H572   H     0.92490   0.39806   0.15053   0.00000  Uiso   1.00
H573   H     0.90798   0.39387   0.21065   0.00000  Uiso   1.00
H574   H     0.66742   0.63420   0.35235   0.00000  Uiso   1.00
H575   H     0.98121   0.62771   0.18826   0.00000  Uiso   1.00
H576   H     0.75424   0.65380   0.32229   0.00000  Uiso   1.00
H577   H     0.76018   0.60777   0.28863   0.00000  Uiso   1.00
H578   H     0.74308   0.60281   0.34871   0.00000  Uiso   1.00
H579   H     0.88490   0.44296   0.31629   0.00000  Uiso   1.00
H580   H     0.82879   0.38570   0.27298   0.00000  Uiso   1.00
H581   H     0.80744   0.39919   0.33185   0.00000  Uiso   1.00
H582   H     0.86316   0.37166   0.31100   0.00000  Uiso   1.00
H583   H     0.80711   0.59189   0.21473   0.00000  Uiso   1.00
H584   H     0.79997   0.58393   0.13994   0.00000  Uiso   1.00
H585   H     0.81118   0.52957   0.14445   0.00000  Uiso   1.00
H586   H     0.68588   0.37229   0.31125   0.00000  Uiso   1.00
H587   H     0.85855   0.56759   0.14422   0.00000  Uiso   1.00
H588   H     0.77484   0.44584   0.28982   0.00000  Uiso   1.00
H589   H     0.89062   0.55523   0.21089   0.00000  Uiso   1.00
H590   H     0.93814   0.48593   0.04597   0.00000  Uiso   1.00
H591   H     0.75432   0.58228   0.47219   0.00000  Uiso   1.00
H592   H     0.76411   0.44743   0.13496   0.00000  Uiso   1.00
H593   H     0.79117   0.39489   0.08297   0.00000  Uiso   1.00
H594   H     0.79135   0.43002   0.03747   0.00000  Uiso   1.00
N595   N     0.78403   0.50001   0.24999   0.00000  Uiso   1.00
N596   N     0.80066   0.56285   0.20382   0.00000  Uiso   1.00
N597   N     0.88264   0.49999   0.25001   0.00000  Uiso   1.00
N598   N     0.77535   0.45644   0.10170   0.00000  Uiso   1.00
N599   N     0.87046   0.50174   0.38774   0.00000  Uiso   1.00
N600   N     0.68064   0.48470   0.47836   0.00000  Uiso   1.00
N601   N     0.67593   0.57965   0.03557   0.00000  Uiso   1.00
N602   N     0.97936   0.37619   0.17745   0.00000  Uiso   1.00
N603   N     0.68819   0.62384   0.32185   0.00000  Uiso   1.00
N604   N     0.86751   0.43484   0.29287   0.00000  Uiso   1.00
O605   O     0.70625   0.43989   0.25000   0.00000  Uiso   1.00
O606   O     0.96042   0.56011   0.25000   0.00000  Uiso   1.00
O607   O     0.96039   0.43988   0.25000   0.00000  Uiso   1.00
O608   O     0.70628   0.56012   0.24999   0.00000  Uiso   1.00
O609   O     0.68519   0.50001   0.31491   0.00000  Uiso   1.00
O610   O     0.98148   0.49999   0.18508   0.00000  Uiso   1.00
O611   O     0.93933   0.50000   0.31492   0.00000  Uiso   1.00
O612   O     0.72733   0.50000   0.18508   0.00000  Uiso   1.00
C613   C     0.33306   0.75416   0.24954   0.00000  Uiso   1.00
C614   C     0.01111   0.68852   0.28436   0.00000  Uiso   1.00
C615   C     0.00119   0.95712   0.25010   0.00000  Uiso   1.00
C616   C     0.33234   0.70956   0.24953   0.00000  Uiso   1.00
C617   C     0.18383   0.80180   0.27141   0.00000  Uiso   1.00
C618   C     0.14980   0.86388   0.22748   0.00000  Uiso   1.00
C619   C     0.13396   0.80276   0.27189   0.00000  Uiso   1.00
C620   C     0.19911   0.86404   0.22830   0.00000  Uiso   1.00
C621   C     0.30560   0.83343   0.33626   0.00000  Uiso   1.00
C622   C     0.02758   0.83332   0.16398   0.00000  Uiso   1.00
C623   C     0.29013   0.83451   0.38582   0.00000  Uiso   1.00
C624   C     0.00035   0.91252   0.25024   0.00000  Uiso   1.00
C625   C     0.04357   0.84081   0.11544   0.00000  Uiso   1.00
C626   C     0.31139   0.82660   0.45602   0.00000  Uiso   1.00
C627   C     0.03725   0.88526   0.05371   0.00000  Uiso   1.00
C628   C     0.32505   0.82946   0.40921   0.00000  Uiso   1.00
C629   C     0.01711   0.86810   0.09656   0.00000  Uiso   1.00
C630   C     0.24085   0.83995   0.41003   0.00000  Uiso   1.00
C631   C     0.08941   0.82753   0.08980   0.00000  Uiso   1.00
C632   C     0.22844   0.84447   0.45709   0.00000  Uiso   1.00
C633   C     0.11335   0.84944   0.04954   0.00000  Uiso   1.00
C634   C     0.26250   0.83298   0.48024   0.00000  Uiso   1.00
C635   C     0.19740   0.83106   0.04983   0.00000  Uiso   1.00
C636   C     0.08579   0.87657   0.03020   0.00000  Uiso   1.00
C637   C     0.18191   0.85755   0.48217   0.00000  Uiso   1.00
C638   C     0.16374   0.84486   0.02750   0.00000  Uiso   1.00
C639   C     0.10610   0.75529   0.07313   0.00000  Uiso   1.00
C640   C     0.16868   0.80100   0.40205   0.00000  Uiso   1.00
C641   C     0.01894   0.77437   0.48703   0.00000  Uiso   1.00
C642   C     0.01513   0.95606   0.04591   0.00000  Uiso   1.00
C643   C     0.26180   0.71224   0.17936   0.00000  Uiso   1.00
C644   C     0.07245   0.95543   0.32011   0.00000  Uiso   1.00
C645   C     0.17330   0.72928   0.30264   0.00000  Uiso   1.00
C646   C     0.15434   0.88468   0.46387   0.00000  Uiso   1.00
C647   C     0.15202   0.89411   0.15561   0.00000  Uiso   1.00
C648   C     0.24655   0.82769   0.02698   0.00000  Uiso   1.00
C649   C     0.10734   0.89453   0.48774   0.00000  Uiso   1.00
C650   C     0.32137   0.68796   0.21459   0.00000  Uiso   1.00
C651   C     0.01241   0.97874   0.28490   0.00000  Uiso   1.00
C652   C     0.32256   0.97816   0.21519   0.00000  Uiso   1.00
Cu653  Cu    0.04689   0.83334   0.25000   0.00000  Uiso   1.00
Cu654  Cu    0.28645   0.83333   0.25000   0.00000  Uiso   1.00
H655   H     0.18709   0.82525   0.08551   0.00000  Uiso   1.00
H656   H     0.06744   0.74637   0.07682   0.00000  Uiso   1.00
H657   H     0.19319   0.86106   0.37360   0.00000  Uiso   1.00
H658   H     0.14655   0.79811   0.37811   0.00000  Uiso   1.00
H659   H     0.14337   0.80628   0.43558   0.00000  Uiso   1.00
H660   H     0.18779   0.77147   0.40286   0.00000  Uiso   1.00
H661   H     0.31482   0.87788   0.11598   0.00000  Uiso   1.00
H662   H     0.02957   0.82517   0.39111   0.00000  Uiso   1.00
H663   H     0.04728   0.83220   0.46305   0.00000  Uiso   1.00
H664   H     0.04570   0.77067   0.00650   0.00000  Uiso   1.00
H665   H     0.03221   0.75783   0.45494   0.00000  Uiso   1.00
H666   H     0.16978   0.90014   0.43182   0.00000  Uiso   1.00
H667   H     0.31690   0.76023   0.00683   0.00000  Uiso   1.00
H668   H     0.30636   0.90401   0.04280   0.00000  Uiso   1.00
H669   H     0.32778   0.97580   0.02853   0.00000  Uiso   1.00
H670   H     0.05411   0.96610   0.03435   0.00000  Uiso   1.00
H671   H     0.00101   0.96064   0.08262   0.00000  Uiso   1.00
H672   H     0.33303   0.69865   0.14704   0.00000  Uiso   1.00
H673   H     0.24577   0.68079   0.17773   0.00000  Uiso   1.00
H674   H     0.25823   0.73139   0.15053   0.00000  Uiso   1.00
H675   H     0.24131   0.72721   0.21065   0.00000  Uiso   1.00
H676   H     0.00076   0.96753   0.35235   0.00000  Uiso   1.00
H677   H     0.31454   0.96104   0.18826   0.00000  Uiso   1.00
H678   H     0.08757   0.98713   0.32229   0.00000  Uiso   1.00
H679   H     0.09351   0.94111   0.28863   0.00000  Uiso   1.00
H680   H     0.07642   0.93615   0.34871   0.00000  Uiso   1.00
H681   H     0.21823   0.77629   0.31629   0.00000  Uiso   1.00
H682   H     0.16212   0.71903   0.27298   0.00000  Uiso   1.00
H683   H     0.14077   0.73253   0.33185   0.00000  Uiso   1.00
H684   H     0.19650   0.70500   0.31100   0.00000  Uiso   1.00
H685   H     0.14044   0.92522   0.21473   0.00000  Uiso   1.00
H686   H     0.13330   0.91726   0.13994   0.00000  Uiso   1.00
H687   H     0.14451   0.86290   0.14445   0.00000  Uiso   1.00
H688   H     0.01921   0.70563   0.31125   0.00000  Uiso   1.00
H689   H     0.19188   0.90093   0.14422   0.00000  Uiso   1.00
H690   H     0.10817   0.77917   0.28982   0.00000  Uiso   1.00
H691   H     0.22396   0.88856   0.21089   0.00000  Uiso   1.00
H692   H     0.27147   0.81927   0.04597   0.00000  Uiso   1.00
H693   H     0.08765   0.91561   0.47219   0.00000  Uiso   1.00
H694   H     0.09745   0.78076   0.13496   0.00000  Uiso   1.00
H695   H     0.12450   0.72822   0.08297   0.00000  Uiso   1.00
H696   H     0.12469   0.76335   0.03747   0.00000  Uiso   1.00
N697   N     0.11736   0.83334   0.24999   0.00000  Uiso   1.00
N698   N     0.13400   0.89618   0.20382   0.00000  Uiso   1.00
N699   N     0.21597   0.83332   0.25001   0.00000  Uiso   1.00
N700   N     0.10868   0.78977   0.10170   0.00000  Uiso   1.00
N701   N     0.20379   0.83507   0.38774   0.00000  Uiso   1.00
N702   N     0.01398   0.81804   0.47836   0.00000  Uiso   1.00
N703   N     0.00926   0.91298   0.03557   0.00000  Uiso   1.00
N704   N     0.31269   0.70953   0.17745   0.00000  Uiso   1.00
N705   N     0.02152   0.95717   0.32185   0.00000  Uiso   1.00
N706   N     0.20084   0.76818   0.29287   0.00000  Uiso   1.00
O707   O     0.03958   0.77322   0.25000   0.00000  Uiso   1.00
O708   O     0.29375   0.89345   0.25000   0.00000  Uiso   1.00
O709   O     0.29372   0.77321   0.25000   0.00000  Uiso   1.00
O710   O     0.03961   0.89346   0.24999   0.00000  Uiso   1.00
O711   O     0.01852   0.83334   0.31491   0.00000  Uiso   1.00
O712   O     0.31481   0.83332   0.18508   0.00000  Uiso   1.00
O713   O     0.27267   0.83333   0.31492   0.00000  Uiso   1.00
O714   O     0.06067   0.83333   0.18508   0.00000  Uiso   1.00
C715   C     0.66639   0.75416   0.24954   0.00000  Uiso   1.00
C716   C     0.34445   0.68852   0.28436   0.00000  Uiso   1.00
C717   C     0.33452   0.95712   0.25010   0.00000  Uiso   1.00
C718   C     0.66567   0.70956   0.24953   0.00000  Uiso   1.00
C719   C     0.51716   0.80180   0.27141   0.00000  Uiso   1.00
C720   C     0.48314   0.86388   0.22748   0.00000  Uiso   1.00
C721   C     0.46729   0.80276   0.27189   0.00000  Uiso   1.00
C722   C     0.53244   0.86404   0.22830   0.00000  Uiso   1.00
C723   C     0.63894   0.83343   0.33626   0.00000  Uiso   1.00
C724   C     0.36091   0.83332   0.16398   0.00000  Uiso   1.00
C725   C     0.62346   0.83451   0.38582   0.00000  Uiso   1.00
C726   C     0.33368   0.91252   0.25024   0.00000  Uiso   1.00
C727   C     0.37691   0.84081   0.11544   0.00000  Uiso   1.00
C728   C     0.64472   0.82660   0.45602   0.00000  Uiso   1.00
C729   C     0.37058   0.88526   0.05371   0.00000  Uiso   1.00
C730   C     0.65838   0.82946   0.40921   0.00000  Uiso   1.00
C731   C     0.35044   0.86810   0.09656   0.00000  Uiso   1.00
C732   C     0.57418   0.83995   0.41003   0.00000  Uiso   1.00
C733   C     0.42274   0.82753   0.08980   0.00000  Uiso   1.00
C734   C     0.56177   0.84447   0.45709   0.00000  Uiso   1.00
C735   C     0.44668   0.84944   0.04954   0.00000  Uiso   1.00
C736   C     0.59583   0.83298   0.48024   0.00000  Uiso   1.00
C737   C     0.53073   0.83106   0.04983   0.00000  Uiso   1.00
C738   C     0.41912   0.87657   0.03020   0.00000  Uiso   1.00
C739   C     0.51525   0.85755   0.48217   0.00000  Uiso   1.00
C740   C     0.49708   0.84486   0.02750   0.00000  Uiso   1.00
C741   C     0.43944   0.75529   0.07313   0.00000  Uiso   1.00
C742   C     0.50201   0.80100   0.40205   0.00000  Uiso   1.00
C743   C     0.35228   0.77437   0.48703   0.00000  Uiso   1.00
C744   C     0.34846   0.95606   0.04591   0.00000  Uiso   1.00
C745   C     0.59514   0.71224   0.17936   0.00000  Uiso   1.00
C746   C     0.40579   0.95543   0.32011   0.00000  Uiso   1.00
C747   C     0.50663   0.72928   0.30264   0.00000  Uiso   1.00
C748   C     0.48768   0.88468   0.46387   0.00000  Uiso   1.00
C749   C     0.48535   0.89411   0.15561   0.00000  Uiso   1.00
C750   C     0.57988   0.82769   0.02698   0.00000  Uiso   1.00
C751   C     0.44067   0.89453   0.48774   0.00000  Uiso   1.00
C752   C     0.65471   0.68796   0.21459   0.00000  Uiso   1.00
C753   C     0.34574   0.97874   0.28490   0.00000  Uiso   1.00
C754   C     0.65589   0.97816   0.21519   0.00000  Uiso   1.00
Cu755  Cu    0.38022   0.83334   0.25000   0.00000  Uiso   1.00
Cu756  Cu    0.61978   0.83333   0.25000   0.00000  Uiso   1.00
H757   H     0.52042   0.82525   0.08551   0.00000  Uiso   1.00
H758   H     0.40077   0.74637   0.07682   0.00000  Uiso   1.00
H759   H     0.52652   0.86106   0.37360   0.00000  Uiso   1.00
H760   H     0.47988   0.79811   0.37811   0.00000  Uiso   1.00
H761   H     0.47670   0.80628   0.43558   0.00000  Uiso   1.00
H762   H     0.52112   0.77147   0.40286   0.00000  Uiso   1.00
H763   H     0.64815   0.87788   0.11598   0.00000  Uiso   1.00
H764   H     0.36290   0.82517   0.39111   0.00000  Uiso   1.00
H765   H     0.38061   0.83220   0.46305   0.00000  Uiso   1.00
H766   H     0.37903   0.77067   0.00650   0.00000  Uiso   1.00
H767   H     0.36554   0.75783   0.45494   0.00000  Uiso   1.00
H768   H     0.50312   0.90014   0.43182   0.00000  Uiso   1.00
H769   H     0.65023   0.76023   0.00683   0.00000  Uiso   1.00
H770   H     0.63969   0.90401   0.04280   0.00000  Uiso   1.00
H771   H     0.66111   0.97580   0.02853   0.00000  Uiso   1.00
H772   H     0.38744   0.96610   0.03435   0.00000  Uiso   1.00
H773   H     0.33434   0.96064   0.08262   0.00000  Uiso   1.00
H774   H     0.66636   0.69865   0.14704   0.00000  Uiso   1.00
H775   H     0.57911   0.68079   0.17773   0.00000  Uiso   1.00
H776   H     0.59156   0.73139   0.15053   0.00000  Uiso   1.00
H777   H     0.57465   0.72721   0.21065   0.00000  Uiso   1.00
H778   H     0.33409   0.96753   0.35235   0.00000  Uiso   1.00
H779   H     0.64787   0.96104   0.18826   0.00000  Uiso   1.00
H780   H     0.42090   0.98713   0.32229   0.00000  Uiso   1.00
H781   H     0.42684   0.94111   0.28863   0.00000  Uiso   1.00
H782   H     0.40975   0.93615   0.34871   0.00000  Uiso   1.00
H783   H     0.55156   0.77629   0.31629   0.00000  Uiso   1.00
H784   H     0.49546   0.71903   0.27298   0.00000  Uiso   1.00
H785   H     0.47410   0.73253   0.33185   0.00000  Uiso   1.00
H786   H     0.52983   0.70500   0.31100   0.00000  Uiso   1.00
H787   H     0.47377   0.92522   0.21473   0.00000  Uiso   1.00
H788   H     0.46664   0.91726   0.13994   0.00000  Uiso   1.00
H789   H     0.47784   0.86290   0.14445   0.00000  Uiso   1.00
H790   H     0.35255   0.70563   0.31125   0.00000  Uiso   1.00
H791   H     0.52521   0.90093   0.14422   0.00000  Uiso   1.00
H792   H     0.44151   0.77917   0.28982   0.00000  Uiso   1.00
H793   H     0.55729   0.88856   0.21089   0.00000  Uiso   1.00
H794   H     0.60481   0.81927   0.04597   0.00000  Uiso   1.00
H795   H     0.42099   0.91561   0.47219   0.00000  Uiso   1.00
H796   H     0.43078   0.78076   0.13496   0.00000  Uiso   1.00
H797   H     0.45783   0.72822   0.08297   0.00000  Uiso   1.00
H798   H     0.45802   0.76335   0.03747   0.00000  Uiso   1.00
N799   N     0.45069   0.83334   0.24999   0.00000  Uiso   1.00
N800   N     0.46733   0.89618   0.20382   0.00000  Uiso   1.00
N801   N     0.54931   0.83332   0.25001   0.00000  Uiso   1.00
N802   N     0.44202   0.78977   0.10170   0.00000  Uiso   1.00
N803   N     0.53713   0.83507   0.38774   0.00000  Uiso   1.00
N804   N     0.34731   0.81804   0.47836   0.00000  Uiso   1.00
N805   N     0.34260   0.91298   0.03557   0.00000  Uiso   1.00
N806   N     0.64603   0.70953   0.17745   0.00000  Uiso   1.00
N807   N     0.35485   0.95717   0.32185   0.00000  Uiso   1.00
N808   N     0.53418   0.76818   0.29287   0.00000  Uiso   1.00
O809   O     0.37291   0.77322   0.25000   0.00000  Uiso   1.00
O810   O     0.62709   0.89345   0.25000   0.00000  Uiso   1.00
O811   O     0.62706   0.77321   0.25000   0.00000  Uiso   1.00
O812   O     0.37294   0.89346   0.24999   0.00000  Uiso   1.00
O813   O     0.35186   0.83334   0.31491   0.00000  Uiso   1.00
O814   O     0.64814   0.83332   0.18508   0.00000  Uiso   1.00
O815   O     0.60600   0.83333   0.31492   0.00000  Uiso   1.00
O816   O     0.39400   0.83333   0.18508   0.00000  Uiso   1.00
C817   C     0.99973   0.75416   0.24954   0.00000  Uiso   1.00
C818   C     0.67778   0.68852   0.28436   0.00000  Uiso   1.00
C819   C     0.66786   0.95712   0.25010   0.00000  Uiso   1.00
C820   C     0.99901   0.70956   0.24953   0.00000  Uiso   1.00
C821   C     0.85050   0.80180   0.27141   0.00000  Uiso   1.00
C822   C     0.81647   0.86388   0.22748   0.00000  Uiso   1.00
C823   C     0.80063   0.80276   0.27189   0.00000  Uiso   1.00
C824   C     0.86578   0.86404   0.22830   0.00000  Uiso   1.00
C825   C     0.97227   0.83343   0.33626   0.00000  Uiso   1.00
C826   C     0.69424   0.83332   0.16398   0.00000  Uiso   1.00
C827   C     0.95680   0.83451   0.38582   0.00000  Uiso   1.00
C828   C     0.66702   0.91252   0.25024   0.00000  Uiso   1.00
C829   C     0.71024   0.84081   0.11544   0.00000  Uiso   1.00
C830   C     0.97806   0.82660   0.45602   0.00000  Uiso   1.00
C831   C     0.70392   0.88526   0.05371   0.00000  Uiso   1.00
C832   C     0.99171   0.82946   0.40921   0.00000  Uiso   1.00
C833   C     0.68377   0.86810   0.09656   0.00000  Uiso   1.00
C834   C     0.90752   0.83995   0.41003   0.00000  Uiso   1.00
C835   C     0.75608   0.82753   0.08980   0.00000  Uiso   1.00
C836   C     0.89510   0.84447   0.45709   0.00000  Uiso   1.00
C837   C     0.78001   0.84944   0.04954   0.00000  Uiso   1.00
C838   C     0.92917   0.83298   0.48024   0.00000  Uiso   1.00
C839   C     0.86407   0.83106   0.04983   0.00000  Uiso   1.00
C840   C     0.75245   0.87657   0.03020   0.00000  Uiso   1.00
C841   C     0.84858   0.85755   0.48217   0.00000  Uiso   1.00
C842   C     0.83041   0.84486   0.02750   0.00000  Uiso   1.00
C843   C     0.77277   0.75529   0.07313   0.00000  Uiso   1.00
C844   C     0.83535   0.80100   0.40205   0.00000  Uiso   1.00
C845   C     0.68561   0.77437   0.48703   0.00000  Uiso   1.00
C846   C     0.68180   0.95606   0.04591   0.00000  Uiso   1.00
C847   C     0.92847   0.71224   0.17936   0.00000  Uiso   1.00
C848   C     0.73912   0.95543   0.32011   0.00000  Uiso   1.00
C849   C     0.83996   0.72928   0.30264   0.00000  Uiso   1.00
C850   C     0.82101   0.88468   0.46387   0.00000  Uiso   1.00
C851   C     0.81868   0.89411   0.15561   0.00000  Uiso   1.00
C852   C     0.91322   0.82769   0.02698   0.00000  Uiso   1.00
C853   C     0.77401   0.89453   0.48774   0.00000  Uiso   1.00
C854   C     0.98804   0.68796   0.21459   0.00000  Uiso   1.00
C855   C     0.67907   0.97874   0.28490   0.00000  Uiso   1.00
C856   C     0.98922   0.97816   0.21519   0.00000  Uiso   1.00
Cu857  Cu    0.71355   0.83334   0.25000   0.00000  Uiso   1.00
Cu858  Cu    0.95311   0.83333   0.25000   0.00000  Uiso   1.00
H859   H     0.85376   0.82525   0.08551   0.00000  Uiso   1.00
H860   H     0.73410   0.74637   0.07682   0.00000  Uiso   1.00
H861   H     0.85985   0.86106   0.37360   0.00000  Uiso   1.00
H862   H     0.81321   0.79811   0.37811   0.00000  Uiso   1.00
H863   H     0.81003   0.80628   0.43558   0.00000  Uiso   1.00
H864   H     0.85446   0.77147   0.40286   0.00000  Uiso   1.00
H865   H     0.98149   0.87788   0.11598   0.00000  Uiso   1.00
H866   H     0.69623   0.82517   0.39111   0.00000  Uiso   1.00
H867   H     0.71395   0.83220   0.46305   0.00000  Uiso   1.00
H868   H     0.71237   0.77067   0.00650   0.00000  Uiso   1.00
H869   H     0.69887   0.75783   0.45494   0.00000  Uiso   1.00
H870   H     0.83645   0.90014   0.43182   0.00000  Uiso   1.00
H871   H     0.98357   0.76023   0.00683   0.00000  Uiso   1.00
H872   H     0.97302   0.90401   0.04280   0.00000  Uiso   1.00
H873   H     0.99445   0.97580   0.02853   0.00000  Uiso   1.00
H874   H     0.72078   0.96610   0.03435   0.00000  Uiso   1.00
H875   H     0.66768   0.96064   0.08262   0.00000  Uiso   1.00
H876   H     0.99970   0.69865   0.14704   0.00000  Uiso   1.00
H877   H     0.91244   0.68079   0.17773   0.00000  Uiso   1.00
H878   H     0.92490   0.73139   0.15053   0.00000  Uiso   1.00
H879   H     0.90798   0.72721   0.21065   0.00000  Uiso   1.00
H880   H     0.66742   0.96753   0.35235   0.00000  Uiso   1.00
H881   H     0.98121   0.96104   0.18826   0.00000  Uiso   1.00
H882   H     0.75424   0.98713   0.32229   0.00000  Uiso   1.00
H883   H     0.76018   0.94111   0.28863   0.00000  Uiso   1.00
H884   H     0.74308   0.93615   0.34871   0.00000  Uiso   1.00
H885   H     0.88490   0.77629   0.31629   0.00000  Uiso   1.00
H886   H     0.82879   0.71903   0.27298   0.00000  Uiso   1.00
H887   H     0.80744   0.73253   0.33185   0.00000  Uiso   1.00
H888   H     0.86316   0.70500   0.31100   0.00000  Uiso   1.00
H889   H     0.80711   0.92522   0.21473   0.00000  Uiso   1.00
H890   H     0.79997   0.91726   0.13994   0.00000  Uiso   1.00
H891   H     0.81118   0.86290   0.14445   0.00000  Uiso   1.00
H892   H     0.68588   0.70563   0.31125   0.00000  Uiso   1.00
H893   H     0.85855   0.90093   0.14422   0.00000  Uiso   1.00
H894   H     0.77484   0.77917   0.28982   0.00000  Uiso   1.00
H895   H     0.89062   0.88856   0.21089   0.00000  Uiso   1.00
H896   H     0.93814   0.81927   0.04597   0.00000  Uiso   1.00
H897   H     0.75432   0.91561   0.47219   0.00000  Uiso   1.00
H898   H     0.76411   0.78076   0.13496   0.00000  Uiso   1.00
H899   H     0.79117   0.72822   0.08297   0.00000  Uiso   1.00
H900   H     0.79135   0.76335   0.03747   0.00000  Uiso   1.00
N901   N     0.78403   0.83334   0.24999   0.00000  Uiso   1.00
N902   N     0.80066   0.89618   0.20382   0.00000  Uiso   1.00
N903   N     0.88264   0.83332   0.25001   0.00000  Uiso   1.00
N904   N     0.77535   0.78977   0.10170   0.00000  Uiso   1.00
N905   N     0.87046   0.83507   0.38774   0.00000  Uiso   1.00
N906   N     0.68064   0.81804   0.47836   0.00000  Uiso   1.00
N907   N     0.67593   0.91298   0.03557   0.00000  Uiso   1.00
N908   N     0.97936   0.70953   0.17745   0.00000  Uiso   1.00
N909   N     0.68819   0.95717   0.32185   0.00000  Uiso   1.00
N910   N     0.86751   0.76818   0.29287   0.00000  Uiso   1.00
O911   O     0.70625   0.77322   0.25000   0.00000  Uiso   1.00
O912   O     0.96042   0.89345   0.25000   0.00000  Uiso   1.00
O913   O     0.96039   0.77321   0.25000   0.00000  Uiso   1.00
O914   O     0.70628   0.89346   0.24999   0.00000  Uiso   1.00
O915   O     0.68519   0.83334   0.31491   0.00000  Uiso   1.00
O916   O     0.98148   0.83332   0.18508   0.00000  Uiso   1.00
O917   O     0.93933   0.83333   0.31492   0.00000  Uiso   1.00
O918   O     0.72733   0.83333   0.18508   0.00000  Uiso   1.00
C919   C     0.33306   0.08749   0.74954   0.00000  Uiso   1.00
C920   C     0.01111   0.02185   0.78436   0.00000  Uiso   1.00
C921   C     0.00119   0.29045   0.75010   0.00000  Uiso   1.00
C922   C     0.33234   0.04289   0.74953   0.00000  Uiso   1.00
C923   C     0.18383   0.13513   0.77141   0.00000  Uiso   1.00
C924   C     0.14980   0.19722   0.72748   0.00000  Uiso   1.00
C925   C     0.13396   0.13609   0.77189   0.00000  Uiso   1.00
C926   C     0.19911   0.19737   0.72830   0.00000  Uiso   1.00
C927   C     0.30560   0.16676   0.83626   0.00000  Uiso   1.00
C928   C     0.02758   0.16665   0.66398   0.00000  Uiso   1.00
C929   C     0.29013   0.16784   0.88582   0.00000  Uiso   1.00
C930   C     0.00035   0.24585   0.75024   0.00000  Uiso   1.00
C931   C     0.04357   0.17414   0.61544   0.00000  Uiso   1.00
C932   C     0.31139   0.15994   0.95602   0.00000  Uiso   1.00
C933   C     0.03725   0.21860   0.55371   0.00000  Uiso   1.00
C934   C     0.32505   0.16280   0.90921   0.00000  Uiso   1.00
C935   C     0.01711   0.20143   0.59656   0.00000  Uiso   1.00
C936   C     0.24085   0.17328   0.91003   0.00000  Uiso   1.00
C937   C     0.08941   0.16086   0.58980   0.00000  Uiso   1.00
C938   C     0.22844   0.17781   0.95709   0.00000  Uiso   1.00
C939   C     0.11335   0.18277   0.54954   0.00000  Uiso   1.00
C940   C     0.26250   0.16631   0.98024   0.00000  Uiso   1.00
C941   C     0.19740   0.16440   0.54983   0.00000  Uiso   1.00
C942   C     0.08579   0.20990   0.53020   0.00000  Uiso   1.00
C943   C     0.18191   0.19088   0.98217   0.00000  Uiso   1.00
C944   C     0.16374   0.17820   0.52750   0.00000  Uiso   1.00
C945   C     0.10610   0.08862   0.57313   0.00000  Uiso   1.00
C946   C     0.16868   0.13434   0.90205   0.00000  Uiso   1.00
C947   C     0.01894   0.10771   0.98703   0.00000  Uiso   1.00
C948   C     0.01513   0.28940   0.54591   0.00000  Uiso   1.00
C949   C     0.26180   0.04557   0.67936   0.00000  Uiso   1.00
C950   C     0.07245   0.28877   0.82011   0.00000  Uiso   1.00
C951   C     0.17330   0.06261   0.80264   0.00000  Uiso   1.00
C952   C     0.15434   0.21801   0.96387   0.00000  Uiso   1.00
C953   C     0.15202   0.22745   0.65561   0.00000  Uiso   1.00
C954   C     0.24655   0.16102   0.52698   0.00000  Uiso   1.00
C955   C     0.10734   0.22786   0.98774   0.00000  Uiso   1.00
C956   C     0.32137   0.02129   0.71459   0.00000  Uiso   1.00
C957   C     0.01241   0.31207   0.78490   0.00000  Uiso   1.00
C958   C     0.32256   0.31149   0.71519   0.00000  Uiso   1.00
Cu959  Cu    0.04689   0.16667   0.75000   0.00000  Uiso   1.00
Cu960  Cu    0.28645   0.16666   0.75000   0.00000  Uiso   1.00
H961   H     0.18709   0.15859   0.58551   0.00000  Uiso   1.00
H962   H     0.06744   0.07970   0.57682   0.00000  Uiso   1.00
H963   H     0.19319   0.19439   0.87360   0.00000  Uiso   1.00
H964   H     0.14655   0.13145   0.87811   0.00000  Uiso   1.00
H965   H     0.14337   0.13962   0.93558   0.00000  Uiso   1.00
H966   H     0.18779   0.10480   0.90286   0.00000  Uiso   1.00
H967   H     0.31482   0.21122   0.61598   0.00000  Uiso   1.00
H968   H     0.02957   0.15850   0.89111   0.00000  Uiso   1.00
H969   H     0.04728   0.16553   0.96305   0.00000  Uiso   1.00
H970   H     0.04570   0.10400   0.50650   0.00000  Uiso   1.00
H971   H     0.03221   0.09116   0.95494   0.00000  Uiso   1.00
H972   H     0.16978   0.23347   0.93182   0.00000  Uiso   1.00
H973   H     0.31690   0.09356   0.50683   0.00000  Uiso   1.00
H974   H     0.30636   0.23734   0.54280   0.00000  Uiso   1.00
H975   H     0.32778   0.30913   0.52853   0.00000  Uiso   1.00
H976   H     0.05411   0.29944   0.53435   0.00000  Uiso   1.00
H977   H     0.00101   0.29397   0.58262   0.00000  Uiso   1.00
H978   H     0.33303   0.03199   0.64704   0.00000  Uiso   1.00
H979   H     0.24577   0.01413   0.67773   0.00000  Uiso   1.00
H980   H     0.25823   0.06473   0.65053   0.00000  Uiso   1.00
H981   H     0.24131   0.06054   0.71065   0.00000  Uiso   1.00
H982   H     0.00076   0.30086   0.85235   0.00000  Uiso   1.00
H983   H     0.31454   0.29438   0.68826   0.00000  Uiso   1.00
H984   H     0.08757   0.32046   0.82229   0.00000  Uiso   1.00
H985   H     0.09351   0.27444   0.78863   0.00000  Uiso   1.00
H986   H     0.07642   0.26948   0.84871   0.00000  Uiso   1.00
H987   H     0.21823   0.10962   0.81629   0.00000  Uiso   1.00
H988   H     0.16212   0.05237   0.77298   0.00000  Uiso   1.00
H989   H     0.14077   0.06586   0.83185   0.00000  Uiso   1.00
H990   H     0.19650   0.03833   0.81100   0.00000  Uiso   1.00
H991   H     0.14044   0.25855   0.71473   0.00000  Uiso   1.00
H992   H     0.13330   0.25059   0.63994   0.00000  Uiso   1.00
H993   H     0.14451   0.19623   0.64445   0.00000  Uiso   1.00
H994   H     0.01921   0.03896   0.81125   0.00000  Uiso   1.00
H995   H     0.19188   0.23426   0.64422   0.00000  Uiso   1.00
H996   H     0.10817   0.11251   0.78982   0.00000  Uiso   1.00
H997   H     0.22396   0.22190   0.71089   0.00000  Uiso   1.00
H998   H     0.27147   0.15260   0.54597   0.00000  Uiso   1.00
H999   H     0.08765   0.24894   0.97219   0.00000  Uiso   1.00
H1000  H     0.09745   0.11409   0.63496   0.00000  Uiso   1.00
H1001  H     0.12450   0.06156   0.58297   0.00000  Uiso   1.00
H1002  H     0.12469   0.09669   0.53747   0.00000  Uiso   1.00
N1003  N     0.11736   0.16668   0.74999   0.00000  Uiso   1.00
N1004  N     0.13400   0.22952   0.70382   0.00000  Uiso   1.00
N1005  N     0.21597   0.16666   0.75001   0.00000  Uiso   1.00
N1006  N     0.10868   0.12310   0.60170   0.00000  Uiso   1.00
N1007  N     0.20379   0.16841   0.88774   0.00000  Uiso   1.00
N1008  N     0.01398   0.15137   0.97836   0.00000  Uiso   1.00
N1009  N     0.00926   0.24632   0.53557   0.00000  Uiso   1.00
N1010  N     0.31269   0.04286   0.67745   0.00000  Uiso   1.00
N1011  N     0.02152   0.29051   0.82185   0.00000  Uiso   1.00
N1012  N     0.20084   0.10151   0.79287   0.00000  Uiso   1.00
O1013  O     0.03958   0.10655   0.75000   0.00000  Uiso   1.00
O1014  O     0.29375   0.22678   0.75000   0.00000  Uiso   1.00
O1015  O     0.29372   0.10654   0.75000   0.00000  Uiso   1.00
O1016  O     0.03961   0.22679   0.74999   0.00000  Uiso   1.00
O1017  O     0.01852   0.16668   0.81491   0.00000  Uiso   1.00
O1018  O     0.31481   0.16666   0.68508   0.00000  Uiso   1.00
O1019  O     0.27267   0.16667   0.81492   0.00000  Uiso   1.00
O1020  O     0.06067   0.16667   0.68508   0.00000  Uiso   1.00
C1021  C     0.66639   0.08749   0.74954   0.00000  Uiso   1.00
C1022  C     0.34445   0.02185   0.78436   0.00000  Uiso   1.00
C1023  C     0.33452   0.29045   0.75010   0.00000  Uiso   1.00
C1024  C     0.66567   0.04289   0.74953   0.00000  Uiso   1.00
C1025  C     0.51716   0.13513   0.77141   0.00000  Uiso   1.00
C1026  C     0.48314   0.19722   0.72748   0.00000  Uiso   1.00
C1027  C     0.46729   0.13609   0.77189   0.00000  Uiso   1.00
C1028  C     0.53244   0.19737   0.72830   0.00000  Uiso   1.00
C1029  C     0.63894   0.16676   0.83626   0.00000  Uiso   1.00
C1030  C     0.36091   0.16665   0.66398   0.00000  Uiso   1.00
C1031  C     0.62346   0.16784   0.88582   0.00000  Uiso   1.00
C1032  C     0.33368   0.24585   0.75024   0.00000  Uiso   1.00
C1033  C     0.37691   0.17414   0.61544   0.00000  Uiso   1.00
C1034  C     0.64472   0.15994   0.95602   0.00000  Uiso   1.00
C1035  C     0.37058   0.21860   0.55371   0.00000  Uiso   1.00
C1036  C     0.65838   0.16280   0.90921   0.00000  Uiso   1.00
C1037  C     0.35044   0.20143   0.59656   0.00000  Uiso   1.00
C1038  C     0.57418   0.17328   0.91003   0.00000  Uiso   1.00
C1039  C     0.42274   0.16086   0.58980   0.00000  Uiso   1.00
C1040  C     0.56177   0.17781   0.95709   0.00000  Uiso   1.00
C1041  C     0.44668   0.18277   0.54954   0.00000  Uiso   1.00
C1042  C     0.59583   0.16631   0.98024   0.00000  Uiso   1.00
C1043  C     0.53073   0.16440   0.54983   0.00000  Uiso   1.00
C1044  C     0.41912   0.20990   0.53020   0.00000  Uiso   1.00
C1045  C     0.51525   0.19088   0.98217   0.00000  Uiso   1.00
C1046  C     0.49708   0.17820   0.52750   0.00000  Uiso   1.00
C1047  C     0.43944   0.08862   0.57313   0.00000  Uiso   1.00
C1048  C     0.50201   0.13434   0.90205   0.00000  Uiso   1.00
C1049  C     0.35228   0.10771   0.98703   0.00000  Uiso   1.00
C1050  C     0.34846   0.28940   0.54591   0.00000  Uiso   1.00
C1051  C     0.59514   0.04557   0.67936   0.00000  Uiso   1.00
C1052  C     0.40579   0.28877   0.82011   0.00000  Uiso   1.00
C1053  C     0.50663   0.06261   0.80264   0.00000  Uiso   1.00
C1054  C     0.48768   0.21801   0.96387   0.00000  Uiso   1.00
C1055  C     0.48535   0.22745   0.65561   0.00000  Uiso   1.00
C1056  C     0.57988   0.16102   0.52698   0.00000  Uiso   1.00
C1057  C     0.44067   0.22786   0.98774   0.00000  Uiso   1.00
C1058  C     0.65471   0.02129   0.71459   0.00000  Uiso   1.00
C1059  C     0.34574   0.31207   0.78490   0.00000  Uiso   1.00
C1060  C     0.65589   0.31149   0.71519   0.00000  Uiso   1.00
Cu1061 Cu    0.38022   0.16667   0.75000   0.00000  Uiso   1.00
Cu1062 Cu    0.61978   0.16666   0.75000   0.00000  Uiso   1.00
H1063  H     0.52042   0.15859   0.58551   0.00000  Uiso   1.00
H1064  H     0.40077   0.07970   0.57682   0.00000  Uiso   1.00
H1065  H     0.52652   0.19439   0.87360   0.00000  Uiso   1.00
H1066  H     0.47988   0.13145   0.87811   0.00000  Uiso   1.00
H1067  H     0.47670   0.13962   0.93558   0.00000  Uiso   1.00
H1068  H     0.52112   0.10480   0.90286   0.00000  Uiso   1.00
H1069  H     0.64815   0.21122   0.61598   0.00000  Uiso   1.00
H1070  H     0.36290   0.15850   0.89111   0.00000  Uiso   1.00
H1071  H     0.38061   0.16553   0.96305   0.00000  Uiso   1.00
H1072  H     0.37903   0.10400   0.50650   0.00000  Uiso   1.00
H1073  H     0.36554   0.09116   0.95494   0.00000  Uiso   1.00
H1074  H     0.50312   0.23347   0.93182   0.00000  Uiso   1.00
H1075  H     0.65023   0.09356   0.50683   0.00000  Uiso   1.00
H1076  H     0.63969   0.23734   0.54280   0.00000  Uiso   1.00
H1077  H     0.66111   0.30913   0.52853   0.00000  Uiso   1.00
H1078  H     0.38744   0.29944   0.53435   0.00000  Uiso   1.00
H1079  H     0.33434   0.29397   0.58262   0.00000  Uiso   1.00
H1080  H     0.66636   0.03199   0.64704   0.00000  Uiso   1.00
H1081  H     0.57911   0.01413   0.67773   0.00000  Uiso   1.00
H1082  H     0.59156   0.06473   0.65053   0.00000  Uiso   1.00
H1083  H     0.57465   0.06054   0.71065   0.00000  Uiso   1.00
H1084  H     0.33409   0.30086   0.85235   0.00000  Uiso   1.00
H1085  H     0.64787   0.29438   0.68826   0.00000  Uiso   1.00
H1086  H     0.42090   0.32046   0.82229   0.00000  Uiso   1.00
H1087  H     0.42684   0.27444   0.78863   0.00000  Uiso   1.00
H1088  H     0.40975   0.26948   0.84871   0.00000  Uiso   1.00
H1089  H     0.55156   0.10962   0.81629   0.00000  Uiso   1.00
H1090  H     0.49546   0.05237   0.77298   0.00000  Uiso   1.00
H1091  H     0.47410   0.06586   0.83185   0.00000  Uiso   1.00
H1092  H     0.52983   0.03833   0.81100   0.00000  Uiso   1.00
H1093  H     0.47377   0.25855   0.71473   0.00000  Uiso   1.00
H1094  H     0.46664   0.25059   0.63994   0.00000  Uiso   1.00
H1095  H     0.47784   0.19623   0.64445   0.00000  Uiso   1.00
H1096  H     0.35255   0.03896   0.81125   0.00000  Uiso   1.00
H1097  H     0.52521   0.23426   0.64422   0.00000  Uiso   1.00
H1098  H     0.44151   0.11251   0.78982   0.00000  Uiso   1.00
H1099  H     0.55729   0.22190   0.71089   0.00000  Uiso   1.00
H1100  H     0.60481   0.15260   0.54597   0.00000  Uiso   1.00
H1101  H     0.42099   0.24894   0.97219   0.00000  Uiso   1.00
H1102  H     0.43078   0.11409   0.63496   0.00000  Uiso   1.00
H1103  H     0.45783   0.06156   0.58297   0.00000  Uiso   1.00
H1104  H     0.45802   0.09669   0.53747   0.00000  Uiso   1.00
N1105  N     0.45069   0.16668   0.74999   0.00000  Uiso   1.00
N1106  N     0.46733   0.22952   0.70382   0.00000  Uiso   1.00
N1107  N     0.54931   0.16666   0.75001   0.00000  Uiso   1.00
N1108  N     0.44202   0.12310   0.60170   0.00000  Uiso   1.00
N1109  N     0.53713   0.16841   0.88774   0.00000  Uiso   1.00
N1110  N     0.34731   0.15137   0.97836   0.00000  Uiso   1.00
N1111  N     0.34260   0.24632   0.53557   0.00000  Uiso   1.00
N1112  N     0.64603   0.04286   0.67745   0.00000  Uiso   1.00
N1113  N     0.35485   0.29051   0.82185   0.00000  Uiso   1.00
N1114  N     0.53418   0.10151   0.79287   0.00000  Uiso   1.00
O1115  O     0.37291   0.10655   0.75000   0.00000  Uiso   1.00
O1116  O     0.62709   0.22678   0.75000   0.00000  Uiso   1.00
O1117  O     0.62706   0.10654   0.75000   0.00000  Uiso   1.00
O1118  O     0.37294   0.22679   0.74999   0.00000  Uiso   1.00
O1119  O     0.35186   0.16668   0.81491   0.00000  Uiso   1.00
O1120  O     0.64814   0.16666   0.68508   0.00000  Uiso   1.00
O1121  O     0.60600   0.16667   0.81492   0.00000  Uiso   1.00
O1122  O     0.39400   0.16667   0.68508   0.00000  Uiso   1.00
C1123  C     0.99973   0.08749   0.74954   0.00000  Uiso   1.00
C1124  C     0.67778   0.02185   0.78436   0.00000  Uiso   1.00
C1125  C     0.66786   0.29045   0.75010   0.00000  Uiso   1.00
C1126  C     0.99901   0.04289   0.74953   0.00000  Uiso   1.00
C1127  C     0.85050   0.13513   0.77141   0.00000  Uiso   1.00
C1128  C     0.81647   0.19722   0.72748   0.00000  Uiso   1.00
C1129  C     0.80063   0.13609   0.77189   0.00000  Uiso   1.00
C1130  C     0.86578   0.19737   0.72830   0.00000  Uiso   1.00
C1131  C     0.97227   0.16676   0.83626   0.00000  Uiso   1.00
C1132  C     0.69424   0.16665   0.66398   0.00000  Uiso   1.00
C1133  C     0.95680   0.16784   0.88582   0.00000  Uiso   1.00
C1134  C     0.66702   0.24585   0.75024   0.00000  Uiso   1.00
C1135  C     0.71024   0.17414   0.61544   0.00000  Uiso   1.00
C1136  C     0.97806   0.15994   0.95602   0.00000  Uiso   1.00
C1137  C     0.70392   0.21860   0.55371   0.00000  Uiso   1.00
C1138  C     0.99171   0.16280   0.90921   0.00000  Uiso   1.00
C1139  C     0.68377   0.20143   0.59656   0.00000  Uiso   1.00
C1140  C     0.90752   0.17328   0.91003   0.00000  Uiso   1.00
C1141  C     0.75608   0.16086   0.58980   0.00000  Uiso   1.00
C1142  C     0.89510   0.17781   0.95709   0.00000  Uiso   1.00
C1143  C     0.78001   0.18277   0.54954   0.00000  Uiso   1.00
C1144  C     0.92917   0.16631   0.98024   0.00000  Uiso   1.00
C1145  C     0.86407   0.16440   0.54983   0.00000  Uiso   1.00
C1146  C     0.75245   0.20990   0.53020   0.00000  Uiso   1.00
C1147  C     0.84858   0.19088   0.98217   0.00000  Uiso   1.00
C1148  C     0.83041   0.17820   0.52750   0.00000  Uiso   1.00
C1149  C     0.77277   0.08862   0.57313   0.00000  Uiso   1.00
C1150  C     0.83535   0.13434   0.90205   0.00000  Uiso   1.00
C1151  C     0.68561   0.10771   0.98703   0.00000  Uiso   1.00
C1152  C     0.68180   0.28940   0.54591   0.00000  Uiso   1.00
C1153  C     0.92847   0.04557   0.67936   0.00000  Uiso   1.00
C1154  C     0.73912   0.28877   0.82011   0.00000  Uiso   1.00
C1155  C     0.83996   0.06261   0.80264   0.00000  Uiso   1.00
C1156  C     0.82101   0.21801   0.96387   0.00000  Uiso   1.00
C1157  C     0.81868   0.22745   0.65561   0.00000  Uiso   1.00
C1158  C     0.91322   0.16102   0.52698   0.00000  Uiso   1.00
C1159  C     0.77401   0.22786   0.98774   0.00000  Uiso   1.00
C1160  C     0.98804   0.02129   0.71459   0.00000  Uiso   1.00
C1161  C     0.67907   0.31207   0.78490   0.00000  Uiso   1.00
C1162  C     0.98922   0.31149   0.71519   0.00000  Uiso   1.00
Cu1163 Cu    0.71355   0.16667   0.75000   0.00000  Uiso   1.00
Cu1164 Cu    0.95311   0.16666   0.75000   0.00000  Uiso   1.00
H1165  H     0.85376   0.15859   0.58551   0.00000  Uiso   1.00
H1166  H     0.73410   0.07970   0.57682   0.00000  Uiso   1.00
H1167  H     0.85985   0.19439   0.87360   0.00000  Uiso   1.00
H1168  H     0.81321   0.13145   0.87811   0.00000  Uiso   1.00
H1169  H     0.81003   0.13962   0.93558   0.00000  Uiso   1.00
H1170  H     0.85446   0.10480   0.90286   0.00000  Uiso   1.00
H1171  H     0.98149   0.21122   0.61598   0.00000  Uiso   1.00
H1172  H     0.69623   0.15850   0.89111   0.00000  Uiso   1.00
H1173  H     0.71395   0.16553   0.96305   0.00000  Uiso   1.00
H1174  H     0.71237   0.10400   0.50650   0.00000  Uiso   1.00
H1175  H     0.69887   0.09116   0.95494   0.00000  Uiso   1.00
H1176  H     0.83645   0.23347   0.93182   0.00000  Uiso   1.00
H1177  H     0.98357   0.09356   0.50683   0.00000  Uiso   1.00
H1178  H     0.97302   0.23734   0.54280   0.00000  Uiso   1.00
H1179  H     0.99445   0.30913   0.52853   0.00000  Uiso   1.00
H1180  H     0.72078   0.29944   0.53435   0.00000  Uiso   1.00
H1181  H     0.66768   0.29397   0.58262   0.00000  Uiso   1.00
H1182  H     0.99970   0.03199   0.64704   0.00000  Uiso   1.00
H1183  H     0.91244   0.01413   0.67773   0.00000  Uiso   1.00
H1184  H     0.92490   0.06473   0.65053   0.00000  Uiso   1.00
H1185  H     0.90798   0.06054   0.71065   0.00000  Uiso   1.00
H1186  H     0.66742   0.30086   0.85235   0.00000  Uiso   1.00
H1187  H     0.98121   0.29438   0.68826   0.00000  Uiso   1.00
H1188  H     0.75424   0.32046   0.82229   0.00000  Uiso   1.00
H1189  H     0.76018   0.27444   0.78863   0.00000  Uiso   1.00
H1190  H     0.74308   0.26948   0.84871   0.00000  Uiso   1.00
H1191  H     0.88490   0.10962   0.81629   0.00000  Uiso   1.00
H1192  H     0.82879   0.05237   0.77298   0.00000  Uiso   1.00
H1193  H     0.80744   0.06586   0.83185   0.00000  Uiso   1.00
H1194  H     0.86316   0.03833   0.81100   0.00000  Uiso   1.00
H1195  H     0.80711   0.25855   0.71473   0.00000  Uiso   1.00
H1196  H     0.79997   0.25059   0.63994   0.00000  Uiso   1.00
H1197  H     0.81118   0.19623   0.64445   0.00000  Uiso   1.00
H1198  H     0.68588   0.03896   0.81125   0.00000  Uiso   1.00
H1199  H     0.85855   0.23426   0.64422   0.00000  Uiso   1.00
H1200  H     0.77484   0.11251   0.78982   0.00000  Uiso   1.00
H1201  H     0.89062   0.22190   0.71089   0.00000  Uiso   1.00
H1202  H     0.93814   0.15260   0.54597   0.00000  Uiso   1.00
H1203  H     0.75432   0.24894   0.97219   0.00000  Uiso   1.00
H1204  H     0.76411   0.11409   0.63496   0.00000  Uiso   1.00
H1205  H     0.79117   0.06156   0.58297   0.00000  Uiso   1.00
H1206  H     0.79135   0.09669   0.53747   0.00000  Uiso   1.00
N1207  N     0.78403   0.16668   0.74999   0.00000  Uiso   1.00
N1208  N     0.80066   0.22952   0.70382   0.00000  Uiso   1.00
N1209  N     0.88264   0.16666   0.75001   0.00000  Uiso   1.00
N1210  N     0.77535   0.12310   0.60170   0.00000  Uiso   1.00
N1211  N     0.87046   0.16841   0.88774   0.00000  Uiso   1.00
N1212  N     0.68064   0.15137   0.97836   0.00000  Uiso   1.00
N1213  N     0.67593   0.24632   0.53557   0.00000  Uiso   1.00
N1214  N     0.97936   0.04286   0.67745   0.00000  Uiso   1.00
N1215  N     0.68819   0.29051   0.82185   0.00000  Uiso   1.00
N1216  N     0.86751   0.10151   0.79287   0.00000  Uiso   1.00
O1217  O     0.70625   0.10655   0.75000   0.00000  Uiso   1.00
O1218  O     0.96042   0.22678   0.75000   0.00000  Uiso   1.00
O1219  O     0.96039   0.10654   0.75000   0.00000  Uiso   1.00
O1220  O     0.70628   0.22679   0.74999   0.00000  Uiso   1.00
O1221  O     0.68519   0.16668   0.81491   0.00000  Uiso   1.00
O1222  O     0.98148   0.16666   0.68508   0.00000  Uiso   1.00
O1223  O     0.93933   0.16667   0.81492   0.00000  Uiso   1.00
O1224  O     0.72733   0.16667   0.68508   0.00000  Uiso   1.00
C1225  C     0.33306   0.42082   0.74954   0.00000  Uiso   1.00
C1226  C     0.01111   0.35519   0.78436   0.00000  Uiso   1.00
C1227  C     0.00119   0.62378   0.75010   0.00000  Uiso   1.00
C1228  C     0.33234   0.37623   0.74953   0.00000  Uiso   1.00
C1229  C     0.18383   0.46846   0.77141   0.00000  Uiso   1.00
C1230  C     0.14980   0.53055   0.72748   0.00000  Uiso   1.00
C1231  C     0.13396   0.46943   0.77189   0.00000  Uiso   1.00
C1232  C     0.19911   0.53070   0.72830   0.00000  Uiso   1.00
C1233  C     0.30560   0.50009   0.83626   0.00000  Uiso   1.00
C1234  C     0.02758   0.49998   0.66398   0.00000  Uiso   1.00
C1235  C     0.29013   0.50118   0.88582   0.00000  Uiso   1.00
C1236  C     0.00035   0.57918   0.75024   0.00000  Uiso   1.00
C1237  C     0.04357   0.50747   0.61544   0.00000  Uiso   1.00
C1238  C     0.31139   0.49327   0.95602   0.00000  Uiso   1.00
C1239  C     0.03725   0.55193   0.55371   0.00000  Uiso   1.00
C1240  C     0.32505   0.49613   0.90921   0.00000  Uiso   1.00
C1241  C     0.01711   0.53477   0.59656   0.00000  Uiso   1.00
C1242  C     0.24085   0.50662   0.91003   0.00000  Uiso   1.00
C1243  C     0.08941   0.49420   0.58980   0.00000  Uiso   1.00
C1244  C     0.22844   0.51114   0.95709   0.00000  Uiso   1.00
C1245  C     0.11335   0.51611   0.54954   0.00000  Uiso   1.00
C1246  C     0.26250   0.49964   0.98024   0.00000  Uiso   1.00
C1247  C     0.19740   0.49773   0.54983   0.00000  Uiso   1.00
C1248  C     0.08579   0.54323   0.53020   0.00000  Uiso   1.00
C1249  C     0.18191   0.52421   0.98217   0.00000  Uiso   1.00
C1250  C     0.16374   0.51153   0.52750   0.00000  Uiso   1.00
C1251  C     0.10610   0.42196   0.57313   0.00000  Uiso   1.00
C1252  C     0.16868   0.46767   0.90205   0.00000  Uiso   1.00
C1253  C     0.01894   0.44104   0.98703   0.00000  Uiso   1.00
C1254  C     0.01513   0.62273   0.54591   0.00000  Uiso   1.00
C1255  C     0.26180   0.37891   0.67936   0.00000  Uiso   1.00
C1256  C     0.07245   0.62210   0.82011   0.00000  Uiso   1.00
C1257  C     0.17330   0.39594   0.80264   0.00000  Uiso   1.00
C1258  C     0.15434   0.55135   0.96387   0.00000  Uiso   1.00
C1259  C     0.15202   0.56078   0.65561   0.00000  Uiso   1.00
C1260  C     0.24655   0.49435   0.52698   0.00000  Uiso   1.00
C1261  C     0.10734   0.56120   0.98774   0.00000  Uiso   1.00
C1262  C     0.32137   0.35462   0.71459   0.00000  Uiso   1.00
C1263  C     0.01241   0.64540   0.78490   0.00000  Uiso   1.00
C1264  C     0.32256   0.64482   0.71519   0.00000  Uiso   1.00
Cu1265 Cu    0.04689   0.50001   0.75000   0.00000  Uiso   1.00
Cu1266 Cu    0.28645   0.49999   0.75000   0.00000  Uiso   1.00
H1267  H     0.18709   0.49192   0.58551   0.00000  Uiso   1.00
H1268  H     0.06744   0.41304   0.57682   0.00000  Uiso   1.00
H1269  H     0.19319   0.52772   0.87360   0.00000  Uiso   1.00
H1270  H     0.14655   0.46478   0.87811   0.00000  Uiso   1.00
H1271  H     0.14337   0.47295   0.93558   0.00000  Uiso   1.00
H1272  H     0.18779   0.43813   0.90286   0.00000  Uiso   1.00
H1273  H     0.31482   0.54455   0.61598   0.00000  Uiso   1.00
H1274  H     0.02957   0.49184   0.89111   0.00000  Uiso   1.00
H1275  H     0.04728   0.49887   0.96305   0.00000  Uiso   1.00
H1276  H     0.04570   0.43734   0.50650   0.00000  Uiso   1.00
H1277  H     0.03221   0.42450   0.95494   0.00000  Uiso   1.00
H1278  H     0.16978   0.56680   0.93182   0.00000  Uiso   1.00
H1279  H     0.31690   0.42689   0.50683   0.00000  Uiso   1.00
H1280  H     0.30636   0.57067   0.54280   0.00000  Uiso   1.00
H1281  H     0.32778   0.64247   0.52853   0.00000  Uiso   1.00
H1282  H     0.05411   0.63277   0.53435   0.00000  Uiso   1.00
H1283  H     0.00101   0.62730   0.58262   0.00000  Uiso   1.00
H1284  H     0.33303   0.36532   0.64704   0.00000  Uiso   1.00
H1285  H     0.24577   0.34746   0.67773   0.00000  Uiso   1.00
H1286  H     0.25823   0.39806   0.65053   0.00000  Uiso   1.00
H1287  H     0.24131   0.39387   0.71065   0.00000  Uiso   1.00
H1288  H     0.00076   0.63420   0.85235   0.00000  Uiso   1.00
H1289  H     0.31454   0.62771   0.68826   0.00000  Uiso   1.00
H1290  H     0.08757   0.65380   0.82229   0.00000  Uiso   1.00
H1291  H     0.09351   0.60777   0.78863   0.00000  Uiso   1.00
H1292  H     0.07642   0.60281   0.84871   0.00000  Uiso   1.00
H1293  H     0.21823   0.44296   0.81629   0.00000  Uiso   1.00
H1294  H     0.16212   0.38570   0.77298   0.00000  Uiso   1.00
H1295  H     0.14077   0.39919   0.83185   0.00000  Uiso   1.00
H1296  H     0.19650   0.37166   0.81100   0.00000  Uiso   1.00
H1297  H     0.14044   0.59189   0.71473   0.00000  Uiso   1.00
H1298  H     0.13330   0.58393   0.63994   0.00000  Uiso   1.00
H1299  H     0.14451   0.52957   0.64445   0.00000  Uiso   1.00
H1300  H     0.01921   0.37229   0.81125   0.00000  Uiso   1.00
H1301  H     0.19188   0.56759   0.64422   0.00000  Uiso   1.00
H1302  H     0.10817   0.44584   0.78982   0.00000  Uiso   1.00
H1303  H     0.22396   0.55523   0.71089   0.00000  Uiso   1.00
H1304  H     0.27147   0.48593   0.54597   0.00000  Uiso   1.00
H1305  H     0.08765   0.58228   0.97219   0.00000  Uiso   1.00
H1306  H     0.09745   0.44743   0.63496   0.00000  Uiso   1.00
H1307  H     0.12450   0.39489   0.58297   0.00000  Uiso   1.00
H1308  H     0.12469   0.43002   0.53747   0.00000  Uiso   1.00
N1309  N     0.11736   0.50001   0.74999   0.00000  Uiso   1.00
N1310  N     0.13400   0.56285   0.70382   0.00000  Uiso   1.00
N1311  N     0.21597   0.49999   0.75001   0.00000  Uiso   1.00
N1312  N     0.10868   0.45644   0.60170   0.00000  Uiso   1.00
N1313  N     0.20379   0.50174   0.88774   0.00000  Uiso   1.00
N1314  N     0.01398   0.48470   0.97836   0.00000  Uiso   1.00
N1315  N     0.00926   0.57965   0.53557   0.00000  Uiso   1.00
N1316  N     0.31269   0.37619   0.67745   0.00000  Uiso   1.00
N1317  N     0.02152   0.62384   0.82185   0.00000  Uiso   1.00
N1318  N     0.20084   0.43484   0.79287   0.00000  Uiso   1.00
O1319  O     0.03958   0.43989   0.75000   0.00000  Uiso   1.00
O1320  O     0.29375   0.56011   0.75000   0.00000  Uiso   1.00
O1321  O     0.29372   0.43988   0.75000   0.00000  Uiso   1.00
O1322  O     0.03961   0.56012   0.74999   0.00000  Uiso   1.00
O1323  O     0.01852   0.50001   0.81491   0.00000  Uiso   1.00
O1324  O     0.31481   0.49999   0.68508   0.00000  Uiso   1.00
O1325  O     0.27267   0.50000   0.81492   0.00000  Uiso   1.00
O1326  O     0.06067   0.50000   0.68508   0.00000  Uiso   1.00
C1327  C     0.66639   0.42082   0.74954   0.00000  Uiso   1.00
C1328  C     0.34445   0.35519   0.78436   0.00000  Uiso   1.00
C1329  C     0.33452   0.62378   0.75010   0.00000  Uiso   1.00
C1330  C     0.66567   0.37623   0.74953   0.00000  Uiso   1.00
C1331  C     0.51716   0.46846   0.77141   0.00000  Uiso   1.00
C1332  C     0.48314   0.53055   0.72748   0.00000  Uiso   1.00
C1333  C     0.46729   0.46943   0.77189   0.00000  Uiso   1.00
C1334  C     0.53244   0.53070   0.72830   0.00000  Uiso   1.00
C1335  C     0.63894   0.50009   0.83626   0.00000  Uiso   1.00
C1336  C     0.36091   0.49998   0.66398   0.00000  Uiso   1.00
C1337  C     0.62346   0.50118   0.88582   0.00000  Uiso   1.00
C1338  C     0.33368   0.57918   0.75024   0.00000  Uiso   1.00
C1339  C     0.37691   0.50747   0.61544   0.00000  Uiso   1.00
C1340  C     0.64472   0.49327   0.95602   0.00000  Uiso   1.00
C1341  C     0.37058   0.55193   0.55371   0.00000  Uiso   1.00
C1342  C     0.65838   0.49613   0.90921   0.00000  Uiso   1.00
C1343  C     0.35044   0.53477   0.59656   0.00000  Uiso   1.00
C1344  C     0.57418   0.50662   0.91003   0.00000  Uiso   1.00
C1345  C     0.42274   0.49420   0.58980   0.00000  Uiso   1.00
C1346  C     0.56177   0.51114   0.95709   0.00000  Uiso   1.00
C1347  C     0.44668   0.51611   0.54954   0.00000  Uiso   1.00
C1348  C     0.59583   0.49964   0.98024   0.00000  Uiso   1.00
C1349  C     0.53073   0.49773   0.54983   0.00000  Uiso   1.00
C1350  C     0.41912   0.54323   0.53020   0.00000  Uiso   1.00
C1351  C     0.51525   0.52421   0.98217   0.00000  Uiso   1.00
C1352  C     0.49708   0.51153   0.52750   0.00000  Uiso   1.00
C1353  C     0.43944   0.42196   0.57313   0.00000  Uiso   1.00
C1354  C     0.50201   0.46767   0.90205   0.00000  Uiso   1.00
C1355  C     0.35228   0.44104   0.98703   0.00000  Uiso   1.00
C1356  C     0.34846   0.62273   0.54591   0.00000  Uiso   1.00
C1357  C     0.59514   0.37891   0.67936   0.00000  Uiso   1.00
C1358  C     0.40579   0.62210   0.82011   0.00000  Uiso   1.00
C1359  C     0.50663   0.39594   0.80264   0.00000  Uiso   1.00
C1360  C     0.48768   0.55135   0.96387   0.00000  Uiso   1.00
C1361  C     0.48535   0.56078   0.65561   0.00000  Uiso   1.00
C1362  C     0.57988   0.49435   0.52698   0.00000  Uiso   1.00
C1363  C     0.44067   0.56120   0.98774   0.00000  Uiso   1.00
C1364  C     0.65471   0.35462   0.71459   0.00000  Uiso   1.00
C1365  C     0.34574   0.64540   0.78490   0.00000  Uiso   1.00
C1366  C     0.65589   0.64482   0.71519   0.00000  Uiso   1.00
Cu1367 Cu    0.38022   0.50001   0.75000   0.00000  Uiso   1.00
Cu1368 Cu    0.61978   0.49999   0.75000   0.00000  Uiso   1.00
H1369  H     0.52042   0.49192   0.58551   0.00000  Uiso   1.00
H1370  H     0.40077   0.41304   0.57682   0.00000  Uiso   1.00
H1371  H     0.52652   0.52772   0.87360   0.00000  Uiso   1.00
H1372  H     0.47988   0.46478   0.87811   0.00000  Uiso   1.00
H1373  H     0.47670   0.47295   0.93558   0.00000  Uiso   1.00
H1374  H     0.52112   0.43813   0.90286   0.00000  Uiso   1.00
H1375  H     0.64815   0.54455   0.61598   0.00000  Uiso   1.00
H1376  H     0.36290   0.49184   0.89111   0.00000  Uiso   1.00
H1377  H     0.38061   0.49887   0.96305   0.00000  Uiso   1.00
H1378  H     0.37903   0.43734   0.50650   0.00000  Uiso   1.00
H1379  H     0.36554   0.42450   0.95494   0.00000  Uiso   1.00
H1380  H     0.50312   0.56680   0.93182   0.00000  Uiso   1.00
H1381  H     0.65023   0.42689   0.50683   0.00000  Uiso   1.00
H1382  H     0.63969   0.57067   0.54280   0.00000  Uiso   1.00
H1383  H     0.66111   0.64247   0.52853   0.00000  Uiso   1.00
H1384  H     0.38744   0.63277   0.53435   0.00000  Uiso   1.00
H1385  H     0.33434   0.62730   0.58262   0.00000  Uiso   1.00
H1386  H     0.66636   0.36532   0.64704   0.00000  Uiso   1.00
H1387  H     0.57911   0.34746   0.67773   0.00000  Uiso   1.00
H1388  H     0.59156   0.39806   0.65053   0.00000  Uiso   1.00
H1389  H     0.57465   0.39387   0.71065   0.00000  Uiso   1.00
H1390  H     0.33409   0.63420   0.85235   0.00000  Uiso   1.00
H1391  H     0.64787   0.62771   0.68826   0.00000  Uiso   1.00
H1392  H     0.42090   0.65380   0.82229   0.00000  Uiso   1.00
H1393  H     0.42684   0.60777   0.78863   0.00000  Uiso   1.00
H1394  H     0.40975   0.60281   0.84871   0.00000  Uiso   1.00
H1395  H     0.55156   0.44296   0.81629   0.00000  Uiso   1.00
H1396  H     0.49546   0.38570   0.77298   0.00000  Uiso   1.00
H1397  H     0.47410   0.39919   0.83185   0.00000  Uiso   1.00
H1398  H     0.52983   0.37166   0.81100   0.00000  Uiso   1.00
H1399  H     0.47377   0.59189   0.71473   0.00000  Uiso   1.00
H1400  H     0.46664   0.58393   0.63994   0.00000  Uiso   1.00
H1401  H     0.47784   0.52957   0.64445   0.00000  Uiso   1.00
H1402  H     0.35255   0.37229   0.81125   0.00000  Uiso   1.00
H1403  H     0.52521   0.56759   0.64422   0.00000  Uiso   1.00
H1404  H     0.44151   0.44584   0.78982   0.00000  Uiso   1.00
H1405  H     0.55729   0.55523   0.71089   0.00000  Uiso   1.00
H1406  H     0.60481   0.48593   0.54597   0.00000  Uiso   1.00
H1407  H     0.42099   0.58228   0.97219   0.00000  Uiso   1.00
H1408  H     0.43078   0.44743   0.63496   0.00000  Uiso   1.00
H1409  H     0.45783   0.39489   0.58297   0.00000  Uiso   1.00
H1410  H     0.45802   0.43002   0.53747   0.00000  Uiso   1.00
N1411  N     0.45069   0.50001   0.74999   0.00000  Uiso   1.00
N1412  N     0.46733   0.56285   0.70382   0.00000  Uiso   1.00
N1413  N     0.54931   0.49999   0.75001   0.00000  Uiso   1.00
N1414  N     0.44202   0.45644   0.60170   0.00000  Uiso   1.00
N1415  N     0.53713   0.50174   0.88774   0.00000  Uiso   1.00
N1416  N     0.34731   0.48470   0.97836   0.00000  Uiso   1.00
N1417  N     0.34260   0.57965   0.53557   0.00000  Uiso   1.00
N1418  N     0.64603   0.37619   0.67745   0.00000  Uiso   1.00
N1419  N     0.35485   0.62384   0.82185   0.00000  Uiso   1.00
N1420  N     0.53418   0.43484   0.79287   0.00000  Uiso   1.00
O1421  O     0.37291   0.43989   0.75000   0.00000  Uiso   1.00
O1422  O     0.62709   0.56011   0.75000   0.00000  Uiso   1.00
O1423  O     0.62706   0.43988   0.75000   0.00000  Uiso   1.00
O1424  O     0.37294   0.56012   0.74999   0.00000  Uiso   1.00
O1425  O     0.35186   0.50001   0.81491   0.00000  Uiso   1.00
O1426  O     0.64814   0.49999   0.68508   0.00000  Uiso   1.00
O1427  O     0.60600   0.50000   0.81492   0.00000  Uiso   1.00
O1428  O     0.39400   0.50000   0.68508   0.00000  Uiso   1.00
C1429  C     0.99973   0.42082   0.74954   0.00000  Uiso   1.00
C1430  C     0.67778   0.35519   0.78436   0.00000  Uiso   1.00
C1431  C     0.66786   0.62378   0.75010   0.00000  Uiso   1.00
C1432  C     0.99901   0.37623   0.74953   0.00000  Uiso   1.00
C1433  C     0.85050   0.46846   0.77141   0.00000  Uiso   1.00
C1434  C     0.81647   0.53055   0.72748   0.00000  Uiso   1.00
C1435  C     0.80063   0.46943   0.77189   0.00000  Uiso   1.00
C1436  C     0.86578   0.53070   0.72830   0.00000  Uiso   1.00
C1437  C     0.97227   0.50009   0.83626   0.00000  Uiso   1.00
C1438  C     0.69424   0.49998   0.66398   0.00000  Uiso   1.00
C1439  C     0.95680   0.50118   0.88582   0.00000  Uiso   1.00
C1440  C     0.66702   0.57918   0.75024   0.00000  Uiso   1.00
C1441  C     0.71024   0.50747   0.61544   0.00000  Uiso   1.00
C1442  C     0.97806   0.49327   0.95602   0.00000  Uiso   1.00
C1443  C     0.70392   0.55193   0.55371   0.00000  Uiso   1.00
C1444  C     0.99171   0.49613   0.90921   0.00000  Uiso   1.00
C1445  C     0.68377   0.53477   0.59656   0.00000  Uiso   1.00
C1446  C     0.90752   0.50662   0.91003   0.00000  Uiso   1.00
C1447  C     0.75608   0.49420   0.58980   0.00000  Uiso   1.00
C1448  C     0.89510   0.51114   0.95709   0.00000  Uiso   1.00
C1449  C     0.78001   0.51611   0.54954   0.00000  Uiso   1.00
C1450  C     0.92917   0.49964   0.98024   0.00000  Uiso   1.00
C1451  C     0.86407   0.49773   0.54983   0.00000  Uiso   1.00
C1452  C     0.75245   0.54323   0.53020   0.00000  Uiso   1.00
C1453  C     0.84858   0.52421   0.98217   0.00000  Uiso   1.00
C1454  C     0.83041   0.51153   0.52750   0.00000  Uiso   1.00
C1455  C     0.77277   0.42196   0.57313   0.00000  Uiso   1.00
C1456  C     0.83535   0.46767   0.90205   0.00000  Uiso   1.00
C1457  C     0.68561   0.44104   0.98703   0.00000  Uiso   1.00
C1458  C     0.68180   0.62273   0.54591   0.00000  Uiso   1.00
C1459  C     0.92847   0.37891   0.67936   0.00000  Uiso   1.00
C1460  C     0.73912   0.62210   0.82011   0.00000  Uiso   1.00
C1461  C     0.83996   0.39594   0.80264   0.00000  Uiso   1.00
C1462  C     0.82101   0.55135   0.96387   0.00000  Uiso   1.00
C1463  C     0.81868   0.56078   0.65561   0.00000  Uiso   1.00
C1464  C     0.91322   0.49435   0.52698   0.00000  Uiso   1.00
C1465  C     0.77401   0.56120   0.98774   0.00000  Uiso   1.00
C1466  C     0.98804   0.35462   0.71459   0.00000  Uiso   1.00
C1467  C     0.67907   0.64540   0.78490   0.00000  Uiso   1.00
C1468  C     0.98922   0.64482   0.71519   0.00000  Uiso   1.00
Cu1469 Cu    0.71355   0.50001   0.75000   0.00000  Uiso   1.00
Cu1470 Cu    0.95311   0.49999   0.75000   0.00000  Uiso   1.00
H1471  H     0.85376   0.49192   0.58551   0.00000  Uiso   1.00
H1472  H     0.73410   0.41304   0.57682   0.00000  Uiso   1.00
H1473  H     0.85985   0.52772   0.87360   0.00000  Uiso   1.00
H1474  H     0.81321   0.46478   0.87811   0.00000  Uiso   1.00
H1475  H     0.81003   0.47295   0.93558   0.00000  Uiso   1.00
H1476  H     0.85446   0.43813   0.90286   0.00000  Uiso   1.00
H1477  H     0.98149   0.54455   0.61598   0.00000  Uiso   1.00
H1478  H     0.69623   0.49184   0.89111   0.00000  Uiso   1.00
H1479  H     0.71395   0.49887   0.96305   0.00000  Uiso   1.00
H1480  H     0.71237   0.43734   0.50650   0.00000  Uiso   1.00
H1481  H     0.69887   0.42450   0.95494   0.00000  Uiso   1.00
H1482  H     0.83645   0.56680   0.93182   0.00000  Uiso   1.00
H1483  H     0.98357   0.42689   0.50683   0.00000  Uiso   1.00
H1484  H     0.97302   0.57067   0.54280   0.00000  Uiso   1.00
H1485  H     0.99445   0.64247   0.52853   0.00000  Uiso   1.00
H1486  H     0.72078   0.63277   0.53435   0.00000  Uiso   1.00
H1487  H     0.66768   0.62730   0.58262   0.00000  Uiso   1.00
H1488  H     0.99970   0.36532   0.64704   0.00000  Uiso   1.00
H1489  H     0.91244   0.34746   0.67773   0.00000  Uiso   1.00
H1490  H     0.92490   0.39806   0.65053   0.00000  Uiso   1.00
H1491  H     0.90798   0.39387   0.71065   0.00000  Uiso   1.00
H1492  H     0.66742   0.63420   0.85235   0.00000  Uiso   1.00
H1493  H     0.98121   0.62771   0.68826   0.00000  Uiso   1.00
H1494  H     0.75424   0.65380   0.82229   0.00000  Uiso   1.00
H1495  H     0.76018   0.60777   0.78863   0.00000  Uiso   1.00
H1496  H     0.74308   0.60281   0.84871   0.00000  Uiso   1.00
H1497  H     0.88490   0.44296   0.81629   0.00000  Uiso   1.00
H1498  H     0.82879   0.38570   0.77298   0.00000  Uiso   1.00
H1499  H     0.80744   0.39919   0.83185   0.00000  Uiso   1.00
H1500  H     0.86316   0.37166   0.81100   0.00000  Uiso   1.00
H1501  H     0.80711   0.59189   0.71473   0.00000  Uiso   1.00
H1502  H     0.79997   0.58393   0.63994   0.00000  Uiso   1.00
H1503  H     0.81118   0.52957   0.64445   0.00000  Uiso   1.00
H1504  H     0.68588   0.37229   0.81125   0.00000  Uiso   1.00
H1505  H     0.85855   0.56759   0.64422   0.00000  Uiso   1.00
H1506  H     0.77484   0.44584   0.78982   0.00000  Uiso   1.00
H1507  H     0.89062   0.55523   0.71089   0.00000  Uiso   1.00
H1508  H     0.93814   0.48593   0.54597   0.00000  Uiso   1.00
H1509  H     0.75432   0.58228   0.97219   0.00000  Uiso   1.00
H1510  H     0.76411   0.44743   0.63496   0.00000  Uiso   1.00
H1511  H     0.79117   0.39489   0.58297   0.00000  Uiso   1.00
H1512  H     0.79135   0.43002   0.53747   0.00000  Uiso   1.00
N1513  N     0.78403   0.50001   0.74999   0.00000  Uiso   1.00
N1514  N     0.80066   0.56285   0.70382   0.00000  Uiso   1.00
N1515  N     0.88264   0.49999   0.75001   0.00000  Uiso   1.00
N1516  N     0.77535   0.45644   0.60170   0.00000  Uiso   1.00
N1517  N     0.87046   0.50174   0.88774   0.00000  Uiso   1.00
N1518  N     0.68064   0.48470   0.97836   0.00000  Uiso   1.00
N1519  N     0.67593   0.57965   0.53557   0.00000  Uiso   1.00
N1520  N     0.97936   0.37619   0.67745   0.00000  Uiso   1.00
N1521  N     0.68819   0.62384   0.82185   0.00000  Uiso   1.00
N1522  N     0.86751   0.43484   0.79287   0.00000  Uiso   1.00
O1523  O     0.70625   0.43989   0.75000   0.00000  Uiso   1.00
O1524  O     0.96042   0.56011   0.75000   0.00000  Uiso   1.00
O1525  O     0.96039   0.43988   0.75000   0.00000  Uiso   1.00
O1526  O     0.70628   0.56012   0.74999   0.00000  Uiso   1.00
O1527  O     0.68519   0.50001   0.81491   0.00000  Uiso   1.00
O1528  O     0.98148   0.49999   0.68508   0.00000  Uiso   1.00
O1529  O     0.93933   0.50000   0.81492   0.00000  Uiso   1.00
O1530  O     0.72733   0.50000   0.68508   0.00000  Uiso   1.00
C1531  C     0.33306   0.75416   0.74954   0.00000  Uiso   1.00
C1532  C     0.01111   0.68852   0.78436   0.00000  Uiso   1.00
C1533  C     0.00119   0.95712   0.75010   0.00000  Uiso   1.00
C1534  C     0.33234   0.70956   0.74953   0.00000  Uiso   1.00
C1535  C     0.18383   0.80180   0.77141   0.00000  Uiso   1.00
C1536  C     0.14980   0.86388   0.72748   0.00000  Uiso   1.00
C1537  C     0.13396   0.80276   0.77189   0.00000  Uiso   1.00
C1538  C     0.19911   0.86404   0.72830   0.00000  Uiso   1.00
C1539  C     0.30560   0.83343   0.83626   0.00000  Uiso   1.00
C1540  C     0.02758   0.83332   0.66398   0.00000  Uiso   1.00
C1541  C     0.29013   0.83451   0.88582   0.00000  Uiso   1.00
C1542  C     0.00035   0.91252   0.75024   0.00000  Uiso   1.00
C1543  C     0.04357   0.84081   0.61544   0.00000  Uiso   1.00
C1544  C     0.31139   0.82660   0.95602   0.00000  Uiso   1.00
C1545  C     0.03725   0.88526   0.55371   0.00000  Uiso   1.00
C1546  C     0.32505   0.82946   0.90921   0.00000  Uiso   1.00
C1547  C     0.01711   0.86810   0.59656   0.00000  Uiso   1.00
C1548  C     0.24085   0.83995   0.91003   0.00000  Uiso   1.00
C1549  C     0.08941   0.82753   0.58980   0.00000  Uiso   1.00
C1550  C     0.22844   0.84447   0.95709   0.00000  Uiso   1.00
C1551  C     0.11335   0.84944   0.54954   0.00000  Uiso   1.00
C1552  C     0.26250   0.83298   0.98024   0.00000  Uiso   1.00
C1553  C     0.19740   0.83106   0.54983   0.00000  Uiso   1.00
C1554  C     0.08579   0.87657   0.53020   0.00000  Uiso   1.00
C1555  C     0.18191   0.85755   0.98217   0.00000  Uiso   1.00
C1556  C     0.16374   0.84486   0.52750   0.00000  Uiso   1.00
C1557  C     0.10610   0.75529   0.57313   0.00000  Uiso   1.00
C1558  C     0.16868   0.80100   0.90205   0.00000  Uiso   1.00
C1559  C     0.01894   0.77437   0.98703   0.00000  Uiso   1.00
C1560  C     0.01513   0.95606   0.54591   0.00000  Uiso   1.00
C1561  C     0.26180   0.71224   0.67936   0.00000  Uiso   1.00
C1562  C     0.07245   0.95543   0.82011   0.00000  Uiso   1.00
C1563  C     0.17330   0.72928   0.80264   0.00000  Uiso   1.00
C1564  C     0.15434   0.88468   0.96387   0.00000  Uiso   1.00
C1565  C     0.15202   0.89411   0.65561   0.00000  Uiso   1.00
C1566  C     0.24655   0.82769   0.52698   0.00000  Uiso   1.00
C1567  C     0.10734   0.89453   0.98774   0.00000  Uiso   1.00
C1568  C     0.32137   0.68796   0.71459   0.00000  Uiso   1.00
C1569  C     0.01241   0.97874   0.78490   0.00000  Uiso   1.00
C1570  C     0.32256   0.97816   0.71519   0.00000  Uiso   1.00
Cu1571 Cu    0.04689   0.83334   0.75000   0.00000  Uiso   1.00
Cu1572 Cu    0.28645   0.83333   0.75000   0.00000  Uiso   1.00
H1573  H     0.18709   0.82525   0.58551   0.00000  Uiso   1.00
H1574  H     0.06744   0.74637   0.57682   0.00000  Uiso   1.00
H1575  H     0.19319   0.86106   0.87360   0.00000  Uiso   1.00
H1576  H     0.14655   0.79811   0.87811   0.00000  Uiso   1.00
H1577  H     0.14337   0.80628   0.93558   0.00000  Uiso   1.00
H1578  H     0.18779   0.77147   0.90286   0.00000  Uiso   1.00
H1579  H     0.31482   0.87788   0.61598   0.00000  Uiso   1.00
H1580  H     0.02957   0.82517   0.89111   0.00000  Uiso   1.00
H1581  H     0.04728   0.83220   0.96305   0.00000  Uiso   1.00
H1582  H     0.04570   0.77067   0.50650   0.00000  Uiso   1.00
H1583  H     0.03221   0.75783   0.95494   0.00000  Uiso   1.00
H1584  H     0.16978   0.90014   0.93182   0.00000  Uiso   1.00
H1585  H     0.31690   0.76023   0.50683   0.00000  Uiso   1.00
H1586  H     0.30636   0.90401   0.54280   0.00000  Uiso   1.00
H1587  H     0.32778   0.97580   0.52853   0.00000  Uiso   1.00
H1588  H     0.05411   0.96610   0.53435   0.00000  Uiso   1.00
H1589  H     0.00101   0.96064   0.58262   0.00000  Uiso   1.00
H1590  H     0.33303   0.69865   0.64704   0.00000  Uiso   1.00
H1591  H     0.24577   0.68079   0.67773   0.00000  Uiso   1.00
H1592  H     0.25823   0.73139   0.65053   0.00000  Uiso   1.00
H1593  H     0.24131   0.72721   0.71065   0.00000  Uiso   1.00
H1594  H     0.00076   0.96753   0.85235   0.00000  Uiso   1.00
H1595  H     0.31454   0.96104   0.68826   0.00000  Uiso   1.00
H1596  H     0.08757   0.98713   0.82229   0.00000  Uiso   1.00
H1597  H     0.09351   0.94111   0.78863   0.00000  Uiso   1.00
H1598  H     0.07642   0.93615   0.84871   0.00000  Uiso   1.00
H1599  H     0.21823   0.77629   0.81629   0.00000  Uiso   1.00
H1600  H     0.16212   0.71903   0.77298   0.00000  Uiso   1.00
H1601  H     0.14077   0.73253   0.83185   0.00000  Uiso   1.00
H1602  H     0.19650   0.70500   0.81100   0.00000  Uiso   1.00
H1603  H     0.14044   0.92522   0.71473   0.00000  Uiso   1.00
H1604  H     0.13330   0.91726   0.63994   0.00000  Uiso   1.00
H1605  H     0.14451   0.86290   0.64445   0.00000  Uiso   1.00
H1606  H     0.01921   0.70563   0.81125   0.00000  Uiso   1.00
H1607  H     0.19188   0.90093   0.64422   0.00000  Uiso   1.00
H1608  H     0.10817   0.77917   0.78982   0.00000  Uiso   1.00
H1609  H     0.22396   0.88856   0.71089   0.00000  Uiso   1.00
H1610  H     0.27147   0.81927   0.54597   0.00000  Uiso   1.00
H1611  H     0.08765   0.91561   0.97219   0.00000  Uiso   1.00
H1612  H     0.09745   0.78076   0.63496   0.00000  Uiso   1.00
H1613  H     0.12450   0.72822   0.58297   0.00000  Uiso   1.00
H1614  H     0.12469   0.76335   0.53747   0.00000  Uiso   1.00
N1615  N     0.11736   0.83334   0.74999   0.00000  Uiso   1.00
N1616  N     0.13400   0.89618   0.70382   0.00000  Uiso   1.00
N1617  N     0.21597   0.83332   0.75001   0.00000  Uiso   1.00
N1618  N     0.10868   0.78977   0.60170   0.00000  Uiso   1.00
N1619  N     0.20379   0.83507   0.88774   0.00000  Uiso   1.00
N1620  N     0.01398   0.81804   0.97836   0.00000  Uiso   1.00
N1621  N     0.00926   0.91298   0.53557   0.00000  Uiso   1.00
N1622  N     0.31269   0.70953   0.67745   0.00000  Uiso   1.00
N1623  N     0.02152   0.95717   0.82185   0.00000  Uiso   1.00
N1624  N     0.20084   0.76818   0.79287   0.00000  Uiso   1.00
O1625  O     0.03958   0.77322   0.75000   0.00000  Uiso   1.00
O1626  O     0.29375   0.89345   0.75000   0.00000  Uiso   1.00
O1627  O     0.29372   0.77321   0.75000   0.00000  Uiso   1.00
O1628  O     0.03961   0.89346   0.74999   0.00000  Uiso   1.00
O1629  O     0.01852   0.83334   0.81491   0.00000  Uiso   1.00
O1630  O     0.31481   0.83332   0.68508   0.00000  Uiso   1.00
O1631  O     0.27267   0.83333   0.81492   0.00000  Uiso   1.00
O1632  O     0.06067   0.83333   0.68508   0.00000  Uiso   1.00
C1633  C     0.66639   0.75416   0.74954   0.00000  Uiso   1.00
C1634  C     0.34445   0.68852   0.78436   0.00000  Uiso   1.00
C1635  C     0.33452   0.95712   0.75010   0.00000  Uiso   1.00
C1636  C     0.66567   0.70956   0.74953   0.00000  Uiso   1.00
C1637  C     0.51716   0.80180   0.77141   0.00000  Uiso   1.00
C1638  C     0.48314   0.86388   0.72748   0.00000  Uiso   1.00
C1639  C     0.46729   0.80276   0.77189   0.00000  Uiso   1.00
C1640  C     0.53244   0.86404   0.72830   0.00000  Uiso   1.00
C1641  C     0.63894   0.83343   0.83626   0.00000  Uiso   1.00
C1642  C     0.36091   0.83332   0.66398   0.00000  Uiso   1.00
C1643  C     0.62346   0.83451   0.88582   0.00000  Uiso   1.00
C1644  C     0.33368   0.91252   0.75024   0.00000  Uiso   1.00
C1645  C     0.37691   0.84081   0.61544   0.00000  Uiso   1.00
C1646  C     0.64472   0.82660   0.95602   0.00000  Uiso   1.00
C1647  C     0.37058   0.88526   0.55371   0.00000  Uiso   1.00
C1648  C     0.65838   0.82946   0.90921   0.00000  Uiso   1.00
C1649  C     0.35044   0.86810   0.59656   0.00000  Uiso   1.00
C1650  C     0.57418   0.83995   0.91003   0.00000  Uiso   1.00
C1651  C     0.42274   0.82753   0.58980   0.00000  Uiso   1.00
C1652  C     0.56177   0.84447   0.95709   0.00000  Uiso   1.00
C1653  C     0.44668   0.84944   0.54954   0.00000  Uiso   1.00
C1654  C     0.59583   0.83298   0.98024   0.00000  Uiso   1.00
C1655  C     0.53073   0.83106   0.54983   0.00000  Uiso   1.00
C1656  C     0.41912   0.87657   0.53020   0.00000  Uiso   1.00
C1657  C     0.51525   0.85755   0.98217   0.00000  Uiso   1.00
C1658  C     0.49708   0.84486   0.52750   0.00000  Uiso   1.00
C1659  C     0.43944   0.75529   0.57313   0.00000  Uiso   1.00
C1660  C     0.50201   0.80100   0.90205   0.00000  Uiso   1.00
C1661  C     0.35228   0.77437   0.98703   0.00000  Uiso   1.00
C1662  C     0.34846   0.95606   0.54591   0.00000  Uiso   1.00
C1663  C     0.59514   0.71224   0.67936   0.00000  Uiso   1.00
C1664  C     0.40579   0.95543   0.82011   0.00000  Uiso   1.00
C1665  C     0.50663   0.72928   0.80264   0.00000  Uiso   1.00
C1666  C     0.48768   0.88468   0.96387   0.00000  Uiso   1.00
C1667  C     0.48535   0.89411   0.65561   0.00000  Uiso   1.00
C1668  C     0.57988   0.82769   0.52698   0.00000  Uiso   1.00
C1669  C     0.44067   0.89453   0.98774   0.00000  Uiso   1.00
C1670  C     0.65471   0.68796   0.71459   0.00000  Uiso   1.00
C1671  C     0.34574   0.97874   0.78490   0.00000  Uiso   1.00
C1672  C     0.65589   0.97816   0.71519   0.00000  Uiso   1.00
Cu1673 Cu    0.38022   0.83334   0.75000   0.00000  Uiso   1.00
Cu1674 Cu    0.61978   0.83333   0.75000   0.00000  Uiso   1.00
H1675  H     0.52042   0.82525   0.58551   0.00000  Uiso   1.00
H1676  H     0.40077   0.74637   0.57682   0.00000  Uiso   1.00
H1677  H     0.52652   0.86106   0.87360   0.00000  Uiso   1.00
H1678  H     0.47988   0.79811   0.87811   0.00000  Uiso   1.00
H1679  H     0.47670   0.80628   0.93558   0.00000  Uiso   1.00
H1680  H     0.52112   0.77147   0.90286   0.00000  Uiso   1.00
H1681  H     0.64815   0.87788   0.61598   0.00000  Uiso   1.00
H1682  H     0.36290   0.82517   0.89111   0.00000  Uiso   1.00
H1683  H     0.38061   0.83220   0.96305   0.00000  Uiso   1.00
H1684  H     0.37903   0.77067   0.50650   0.00000  Uiso   1.00
H1685  H     0.36554   0.75783   0.95494   0.00000  Uiso   1.00
H1686  H     0.50312   0.90014   0.93182   0.00000  Uiso   1.00
H1687  H     0.65023   0.76023   0.50683   0.00000  Uiso   1.00
H1688  H     0.63969   0.90401   0.54280   0.00000  Uiso   1.00
H1689  H     0.66111   0.97580   0.52853   0.00000  Uiso   1.00
H1690  H     0.38744   0.96610   0.53435   0.00000  Uiso   1.00
H1691  H     0.33434   0.96064   0.58262   0.00000  Uiso   1.00
H1692  H     0.66636   0.69865   0.64704   0.00000  Uiso   1.00
H1693  H     0.57911   0.68079   0.67773   0.00000  Uiso   1.00
H1694  H     0.59156   0.73139   0.65053   0.00000  Uiso   1.00
H1695  H     0.57465   0.72721   0.71065   0.00000  Uiso   1.00
H1696  H     0.33409   0.96753   0.85235   0.00000  Uiso   1.00
H1697  H     0.64787   0.96104   0.68826   0.00000  Uiso   1.00
H1698  H     0.42090   0.98713   0.82229   0.00000  Uiso   1.00
H1699  H     0.42684   0.94111   0.78863   0.00000  Uiso   1.00
H1700  H     0.40975   0.93615   0.84871   0.00000  Uiso   1.00
H1701  H     0.55156   0.77629   0.81629   0.00000  Uiso   1.00
H1702  H     0.49546   0.71903   0.77298   0.00000  Uiso   1.00
H1703  H     0.47410   0.73253   0.83185   0.00000  Uiso   1.00
H1704  H     0.52983   0.70500   0.81100   0.00000  Uiso   1.00
H1705  H     0.47377   0.92522   0.71473   0.00000  Uiso   1.00
H1706  H     0.46664   0.91726   0.63994   0.00000  Uiso   1.00
H1707  H     0.47784   0.86290   0.64445   0.00000  Uiso   1.00
H1708  H     0.35255   0.70563   0.81125   0.00000  Uiso   1.00
H1709  H     0.52521   0.90093   0.64422   0.00000  Uiso   1.00
H1710  H     0.44151   0.77917   0.78982   0.00000  Uiso   1.00
H1711  H     0.55729   0.88856   0.71089   0.00000  Uiso   1.00
H1712  H     0.60481   0.81927   0.54597   0.00000  Uiso   1.00
H1713  H     0.42099   0.91561   0.97219   0.00000  Uiso   1.00
H1714  H     0.43078   0.78076   0.63496   0.00000  Uiso   1.00
H1715  H     0.45783   0.72822   0.58297   0.00000  Uiso   1.00
H1716  H     0.45802   0.76335   0.53747   0.00000  Uiso   1.00
N1717  N     0.45069   0.83334   0.74999   0.00000  Uiso   1.00
N1718  N     0.46733   0.89618   0.70382   0.00000  Uiso   1.00
N1719  N     0.54931   0.83332   0.75001   0.00000  Uiso   1.00
N1720  N     0.44202   0.78977   0.60170   0.00000  Uiso   1.00
N1721  N     0.53713   0.83507   0.88774   0.00000  Uiso   1.00
N1722  N     0.34731   0.81804   0.97836   0.00000  Uiso   1.00
N1723  N     0.34260   0.91298   0.53557   0.00000  Uiso   1.00
N1724  N     0.64603   0.70953   0.67745   0.00000  Uiso   1.00
N1725  N     0.35485   0.95717   0.82185   0.00000  Uiso   1.00
N1726  N     0.53418   0.76818   0.79287   0.00000  Uiso   1.00
O1727  O     0.37291   0.77322   0.75000   0.00000  Uiso   1.00
O1728  O     0.62709   0.89345   0.75000   0.00000  Uiso   1.00
O1729  O     0.62706   0.77321   0.75000   0.00000  Uiso   1.00
O1730  O     0.37294   0.89346   0.74999   0.00000  Uiso   1.00
O1731  O     0.35186   0.83334   0.81491   0.00000  Uiso   1.00
O1732  O     0.64814   0.83332   0.68508   0.00000  Uiso   1.00
O1733  O     0.60600   0.83333   0.81492   0.00000  Uiso   1.00
O1734  O     0.39400   0.83333   0.68508   0.00000  Uiso   1.00
C1735  C     0.99973   0.75416   0.74954   0.00000  Uiso   1.00
C1736  C     0.67778   0.68852   0.78436   0.00000  Uiso   1.00
C1737  C     0.66786   0.95712   0.75010   0.00000  Uiso   1.00
C1738  C     0.99901   0.70956   0.74953   0.00000  Uiso   1.00
C1739  C     0.85050   0.80180   0.77141   0.00000  Uiso   1.00
C1740  C     0.81647   0.86388   0.72748   0.00000  Uiso   1.00
C1741  C     0.80063   0.80276   0.77189   0.00000  Uiso   1.00
C1742  C     0.86578   0.86404   0.72830   0.00000  Uiso   1.00
C1743  C     0.97227   0.83343   0.83626   0.00000  Uiso   1.00
C1744  C     0.69424   0.83332   0.66398   0.00000  Uiso   1.00
C1745  C     0.95680   0.83451   0.88582   0.00000  Uiso   1.00
C1746  C     0.66702   0.91252   0.75024   0.00000  Uiso   1.00
C1747  C     0.71024   0.84081   0.61544   0.00000  Uiso   1.00
C1748  C     0.97806   0.82660   0.95602   0.00000  Uiso   1.00
C1749  C     0.70392   0.88526   0.55371   0.00000  Uiso   1.00
C1750  C     0.99171   0.82946   0.90921   0.00000  Uiso   1.00
C1751  C     0.68377   0.86810   0.59656   0.00000  Uiso   1.00
C1752  C     0.90752   0.83995   0.91003   0.00000  Uiso   1.00
C1753  C     0.75608   0.82753   0.58980   0.00000  Uiso   1.00
C1754  C     0.89510   0.84447   0.95709   0.00000  Uiso   1.00
C1755  C     0.78001   0.84944   0.54954   0.00000  Uiso   1.00
C1756  C     0.92917   0.83298   0.98024   0.00000  Uiso   1.00
C1757  C     0.86407   0.83106   0.54983   0.00000  Uiso   1.00
C1758  C     0.75245   0.87657   0.53020   0.00000  Uiso   1.00
C1759  C     0.84858   0.85755   0.98217   0.00000  Uiso   1.00
C1760  C     0.83041   0.84486   0.52750   0.00000  Uiso   1.00
C1761  C     0.77277   0.75529   0.57313   0.00000  Uiso   1.00
C1762  C     0.83535   0.80100   0.90205   0.00000  Uiso   1.00
C1763  C     0.68561   0.77437   0.98703   0.00000  Uiso   1.00
C1764  C     0.68180   0.95606   0.54591   0.00000  Uiso   1.00
C1765  C     0.92847   0.71224   0.67936   0.00000  Uiso   1.00
C1766  C     0.73912   0.95543   0.82011   0.00000  Uiso   1.00
C1767  C     0.83996   0.72928   0.80264   0.00000  Uiso   1.00
C1768  C     0.82101   0.88468   0.96387   0.00000  Uiso   1.00
C1769  C     0.81868   0.89411   0.65561   0.00000  Uiso   1.00
C1770  C     0.91322   0.82769   0.52698   0.00000  Uiso   1.00
C1771  C     0.77401   0.89453   0.98774   0.00000  Uiso   1.00
C1772  C     0.98804   0.68796   0.71459   0.00000  Uiso   1.00
C1773  C     0.67907   0.97874   0.78490   0.00000  Uiso   1.00
C1774  C     0.98922   0.97816   0.71519   0.00000  Uiso   1.00
Cu1775 Cu    0.71355   0.83334   0.75000   0.00000  Uiso   1.00
Cu1776 Cu    0.95311   0.83333   0.75000   0.00000  Uiso   1.00
H1777  H     0.85376   0.82525   0.58551   0.00000  Uiso   1.00
H1778  H     0.73410   0.74637   0.57682   0.00000  Uiso   1.00
H1779  H     0.85985   0.86106   0.87360   0.00000  Uiso   1.00
H1780  H     0.81321   0.79811   0.87811   0.00000  Uiso   1.00
H1781  H     0.81003   0.80628   0.93558   0.00000  Uiso   1.00
H1782  H     0.85446   0.77147   0.90286   0.00000  Uiso   1.00
H1783  H     0.98149   0.87788   0.61598   0.00000  Uiso   1.00
H1784  H     0.69623   0.82517   0.89111   0.00000  Uiso   1.00
H1785  H     0.71395   0.83220   0.96305   0.00000  Uiso   1.00
H1786  H     0.71237   0.77067   0.50650   0.00000  Uiso   1.00
H1787  H     0.69887   0.75783   0.95494   0.00000  Uiso   1.00
H1788  H     0.83645   0.90014   0.93182   0.00000  Uiso   1.00
H1789  H     0.98357   0.76023   0.50683   0.00000  Uiso   1.00
H1790  H     0.97302   0.90401   0.54280   0.00000  Uiso   1.00
H1791  H     0.99445   0.97580   0.52853   0.00000  Uiso   1.00
H1792  H     0.72078   0.96610   0.53435   0.00000  Uiso   1.00
H1793  H     0.66768   0.96064   0.58262   0.00000  Uiso   1.00
H1794  H     0.99970   0.69865   0.64704   0.00000  Uiso   1.00
H1795  H     0.91244   0.68079   0.67773   0.00000  Uiso   1.00
H1796  H     0.92490   0.73139   0.65053   0.00000  Uiso   1.00
H1797  H     0.90798   0.72721   0.71065   0.00000  Uiso   1.00
H1798  H     0.66742   0.96753   0.85235   0.00000  Uiso   1.00
H1799  H     0.98121   0.96104   0.68826   0.00000  Uiso   1.00
H1800  H     0.75424   0.98713   0.82229   0.00000  Uiso   1.00
H1801  H     0.76018   0.94111   0.78863   0.00000  Uiso   1.00
H1802  H     0.74308   0.93615   0.84871   0.00000  Uiso   1.00
H1803  H     0.88490   0.77629   0.81629   0.00000  Uiso   1.00
H1804  H     0.82879   0.71903   0.77298   0.00000  Uiso   1.00
H1805  H     0.80744   0.73253   0.83185   0.00000  Uiso   1.00
H1806  H     0.86316   0.70500   0.81100   0.00000  Uiso   1.00
H1807  H     0.80711   0.92522   0.71473   0.00000  Uiso   1.00
H1808  H     0.79997   0.91726   0.63994   0.00000  Uiso   1.00
H1809  H     0.81118   0.86290   0.64445   0.00000  Uiso   1.00
H1810  H     0.68588   0.70563   0.81125   0.00000  Uiso   1.00
H1811  H     0.85855   0.90093   0.64422   0.00000  Uiso   1.00
H1812  H     0.77484   0.77917   0.78982   0.00000  Uiso   1.00
H1813  H     0.89062   0.88856   0.71089   0.00000  Uiso   1.00
H1814  H     0.93814   0.81927   0.54597   0.00000  Uiso   1.00
H1815  H     0.75432   0.91561   0.97219   0.00000  Uiso   1.00
H1816  H     0.76411   0.78076   0.63496   0.00000  Uiso   1.00
H1817  H     0.79117   0.72822   0.58297   0.00000  Uiso   1.00
H1818  H     0.79135   0.76335   0.53747   0.00000  Uiso   1.00
N1819  N     0.78403   0.83334   0.74999   0.00000  Uiso   1.00
N1820  N     0.80066   0.89618   0.70382   0.00000  Uiso   1.00
N1821  N     0.88264   0.83332   0.75001   0.00000  Uiso   1.00
N1822  N     0.77535   0.78977   0.60170   0.00000  Uiso   1.00
N1823  N     0.87046   0.83507   0.88774   0.00000  Uiso   1.00
N1824  N     0.68064   0.81804   0.97836   0.00000  Uiso   1.00
N1825  N     0.67593   0.91298   0.53557   0.00000  Uiso   1.00
N1826  N     0.97936   0.70953   0.67745   0.00000  Uiso   1.00
N1827  N     0.68819   0.95717   0.82185   0.00000  Uiso   1.00
N1828  N     0.86751   0.76818   0.79287   0.00000  Uiso   1.00
O1829  O     0.70625   0.77322   0.75000   0.00000  Uiso   1.00
O1830  O     0.96042   0.89345   0.75000   0.00000  Uiso   1.00
O1831  O     0.96039   0.77321   0.75000   0.00000  Uiso   1.00
O1832  O     0.70628   0.89346   0.74999   0.00000  Uiso   1.00
O1833  O     0.68519   0.83334   0.81491   0.00000  Uiso   1.00
O1834  O     0.98148   0.83332   0.68508   0.00000  Uiso   1.00
O1835  O     0.93933   0.83333   0.81492   0.00000  Uiso   1.00
O1836  O     0.72733   0.83333   0.68508   0.00000  Uiso   1.00
loop_
_geom_bond_atom_site_label_1
_geom_bond_atom_site_label_2
_geom_bond_distance
_geom_bond_site_symmetry_2
_ccdc_geom_bond_type
C1     O97     1.290   .     A
C1     C4      1.437   .     S
C1     O197    1.289   .     S
C2     H76     1.085   .     S
C2     C208    1.397   1_455 S
C2     C651    1.391   1_545 S
C3     C12     1.437   .     S
C3     C39     1.404   .     A
C3     C244    1.398   1_455 S
C4     C38     1.404   .     A
C4     C104    1.397   .     S
C5     N94     1.428   .     S
C5     C7      1.424   .     A
C5     N87     1.385   .     A
C6     N85     1.377   .     A
C6     C8      1.419   .     A
C6     N86     1.419   .     S
C7     N85     1.357   .     A
C7     H78     1.080   .     S
C8     H79     1.082   .     S
C8     N87     1.361   .     A
C9     C11     1.481   .     S
C9     O101    1.297   .     A
C9     O201    1.303   .     S
C10    O102    1.296   .     A
C10    C13     1.464   .     S
C10    O304    1.298   1_455 S
C11    C18     1.415   .     A
C11    C16     1.403   .     A
C12    O98     1.290   .     A
C12    O300    1.289   1_455 S
C13    C19     1.408   .     A
C13    C17     1.398   .     A
C14    C16     1.398   .     A
C14    C22     1.411   .     A
C14    N192    1.423   .     S
C15    C24     1.412   .     A
C15    C17     1.395   .     A
C15    N91     1.424   .     S
C16    H152    1.084   .     S
C17    H253    1.084   1_455 S
C18    N89     1.429   .     S
C18    C20     1.417   .     A
C19    C21     1.416   .     A
C19    N88     1.432   .     S
C20    C25     1.416   .     A
C20    C22     1.417   .     A
C21    C26     1.424   .     A
C21    C24     1.424   .     A
C22    C954    1.402   .     S
C23    C36     1.393   .     A
C23    H43     1.078   .     S
C23    C26     1.412   .     A
C24    C955    1.401   1_554 S
C25    C34     1.406   .     A
C25    C944    1.409   .     S
C26    C943    1.409   1_554 S
C27    H84     1.111   .     S
C27    H44     1.111   .     S
C27    H83     1.110   .     S
C27    N88     1.448   .     S
C28    N89     1.450   .     S
C28    H46     1.110   .     S
C28    H47     1.107   .     S
C28    H48     1.111   .     S
C29    N90     1.446   .     S
C29    H53     1.112   .     S
C29    H970    1.110   .     S
C29    H1177   1.111   1_455 S
C30    H59     1.112   .     S
C30    N91     1.447   .     S
C30    H58     1.111   .     S
C30    H261    1.110   1_455 S
C31    H61     1.112   .     S
C31    H62     1.110   .     S
C31    H63     1.108   .     S
C31    N92     1.446   .     S
C32    H68     1.111   .     S
C32    N93     1.446   .     S
C32    H67     1.108   .     S
C32    H66     1.112   .     S
C33    N94     1.449   .     S
C33    H72     1.110   .     S
C33    H70     1.111   .     S
C33    H71     1.111   .     S
C34    C37     1.387   .     A
C34    H54     1.079   .     S
C35    H74     1.110   .     S
C35    H75     1.106   .     S
C35    N86     1.445   .     S
C35    H77     1.111   .     S
C36    H80     1.083   .     S
C36    C940    1.402   1_554 S
C37    H81     1.083   .     S
C37    C942    1.401   .     S
C38    N92     1.423   .     S
C38    C652    1.391   1_545 S
C39    N93     1.423   .     S
C39    C308    1.391   .     S
C40    H65     1.085   .     S
C40    C105    1.398   .     S
C40    C344    1.391   .     S
Cu41   O102    1.946   .     S
Cu41   O99     1.953   .     S
Cu41   N85     2.017   .     S
Cu41   O95     1.944   .     S
Cu41   O98     1.953   .     S
Cu41   Cu246   2.684   1_455 S
Cu42   O96     1.944   .     S
Cu42   O97     1.953   .     S
Cu42   O100    1.953   .     S
Cu42   O101    1.946   .     S
Cu42   N87     2.017   .     S
Cu42   Cu143   2.684   .     S
H45    N89     1.030   .     S
H49    C119    1.084   .     S
H50    C220    1.084   1_455 S
H51    N90     1.031   .     S
H52    C947    1.110   1_554 S
H55    C1049   1.111   1_554 S
H56    N193    1.032   .     S
H57    C132    1.110   .     S
H60    N92     1.032   .     S
H64    N93     1.032   .     S
H69    N94     1.026   .     S
H73    N86     1.031   .     S
H82    N88     1.028   .     S
N90    C218    1.423   1_455 S
N91    H260    1.032   1_455 S
O95    C205    1.289   1_455 S
O96    C114    1.289   .     S
O99    C213    1.303   1_455 S
O100   C112    1.298   .     S
C103   O199    1.290   .     A
C103   C106    1.437   .     S
C103   O299    1.289   .     S
C104   H178    1.085   .     S
C104   C753    1.391   1_545 S
C105   C114    1.437   .     S
C105   C141    1.404   .     A
C106   C140    1.404   .     A
C106   C206    1.397   .     S
C107   N196    1.428   .     S
C107   C109    1.424   .     A
C107   N189    1.385   .     A
C108   N187    1.377   .     A
C108   C110    1.419   .     A
C108   N188    1.419   .     S
C109   N187    1.357   .     A
C109   H180    1.080   .     S
C110   H181    1.082   .     S
C110   N189    1.361   .     A
C111   C113    1.481   .     S
C111   O203    1.297   .     A
C111   O303    1.303   .     S
C112   O204    1.296   .     A
C112   C115    1.464   .     S
C113   C120    1.415   .     A
C113   C118    1.403   .     A
C114   O200    1.290   .     A
C115   C121    1.408   .     A
C115   C119    1.398   .     A
C116   C118    1.398   .     A
C116   C124    1.411   .     A
C116   N294    1.423   .     S
C117   C126    1.412   .     A
C117   C119    1.395   .     A
C117   N193    1.424   .     S
C118   H254    1.084   .     S
C120   N191    1.429   .     S
C120   C122    1.417   .     A
C121   C123    1.416   .     A
C121   N190    1.432   .     S
C122   C127    1.416   .     A
C122   C124    1.417   .     A
C123   C128    1.424   .     A
C123   C126    1.424   .     A
C124   C1056   1.402   .     S
C125   C138    1.393   .     A
C125   H145    1.078   .     S
C125   C128    1.412   .     A
C126   C1057   1.401   1_554 S
C127   C136    1.406   .     A
C127   C1046   1.409   .     S
C128   C1045   1.409   1_554 S
C129   H186    1.111   .     S
C129   H146    1.111   .     S
C129   H185    1.110   .     S
C129   N190    1.448   .     S
C130   N191    1.450   .     S
C130   H148    1.110   .     S
C130   H149    1.107   .     S
C130   H150    1.111   .     S
C131   N192    1.446   .     S
C131   H155    1.112   .     S
C131   H1072   1.110   .     S
C131   H973    1.111   .     S
C132   H161    1.112   .     S
C132   N193    1.447   .     S
C132   H160    1.111   .     S
C133   H163    1.112   .     S
C133   H164    1.110   .     S
C133   H165    1.108   .     S
C133   N194    1.446   .     S
C134   H170    1.111   .     S
C134   N195    1.446   .     S
C134   H169    1.108   .     S
C134   H168    1.112   .     S
C135   N196    1.449   .     S
C135   H174    1.110   .     S
C135   H172    1.111   .     S
C135   H173    1.111   .     S
C136   C139    1.387   .     A
C136   H156    1.079   .     S
C137   H176    1.110   .     S
C137   H177    1.106   .     S
C137   N188    1.445   .     S
C137   H179    1.111   .     S
C138   H182    1.083   .     S
C138   C1042   1.402   1_554 S
C139   H183    1.083   .     S
C139   C1044   1.401   .     S
C140   N194    1.423   .     S
C140   C754    1.391   1_545 S
C141   N195    1.423   .     S
C141   C410    1.391   .     S
C142   H167    1.085   .     S
C142   C207    1.398   .     S
C142   C446    1.391   .     S
Cu143  O204    1.946   .     S
Cu143  O201    1.953   .     S
Cu143  N187    2.017   .     S
Cu143  O197    1.944   .     S
Cu143  O200    1.953   .     S
Cu144  O198    1.944   .     S
Cu144  O199    1.953   .     S
Cu144  O202    1.953   .     S
Cu144  O203    1.946   .     S
Cu144  N189    2.017   .     S
Cu144  Cu245   2.684   .     S
H147   N191    1.030   .     S
H151   C221    1.084   .     S
H153   N192    1.031   .     S
H154   C1049   1.110   1_554 S
H157   C1151   1.111   1_554 S
H158   N295    1.032   .     S
H159   C234    1.110   .     S
H162   N194    1.032   .     S
H166   N195    1.032   .     S
H171   N196    1.026   .     S
H175   N188    1.031   .     S
H184   N190    1.028   .     S
O198   C216    1.289   .     S
O202   C214    1.298   .     S
C205   O301    1.290   .     A
C205   C208    1.437   .     S
C205   O95     1.289   1_655 S
C206   H280    1.085   .     S
C206   C855    1.391   1_545 S
C207   C216    1.437   .     S
C207   C243    1.404   .     A
C208   C242    1.404   .     A
C208   C2      1.397   1_655 S
C209   N298    1.428   .     S
C209   C211    1.424   .     A
C209   N291    1.385   .     A
C210   N289    1.377   .     A
C210   C212    1.419   .     A
C210   N290    1.419   .     S
C211   N289    1.357   .     A
C211   H282    1.080   .     S
C212   H283    1.082   .     S
C212   N291    1.361   .     A
C213   C215    1.481   .     S
C213   O305    1.297   .     A
C213   O99     1.303   1_655 S
C214   O306    1.296   .     A
C214   C217    1.464   .     S
C215   C222    1.415   .     A
C215   C220    1.403   .     A
C216   O302    1.290   .     A
C217   C223    1.408   .     A
C217   C221    1.398   .     A
C218   C220    1.398   .     A
C218   C226    1.411   .     A
C218   N90     1.423   1_655 S
C219   C228    1.412   .     A
C219   C221    1.395   .     A
C219   N295    1.424   .     S
C220   H50     1.084   1_655 S
C222   N293    1.429   .     S
C222   C224    1.417   .     A
C223   C225    1.416   .     A
C223   N292    1.432   .     S
C224   C229    1.416   .     A
C224   C226    1.417   .     A
C225   C230    1.424   .     A
C225   C228    1.424   .     A
C226   C1158   1.402   .     S
C227   C240    1.393   .     A
C227   H247    1.078   .     S
C227   C230    1.412   .     A
C228   C1159   1.401   1_554 S
C229   C238    1.406   .     A
C229   C1148   1.409   .     S
C230   C1147   1.409   1_554 S
C231   H288    1.111   .     S
C231   H248    1.111   .     S
C231   H287    1.110   .     S
C231   N292    1.448   .     S
C232   N293    1.450   .     S
C232   H250    1.110   .     S
C232   H251    1.107   .     S
C232   H252    1.111   .     S
C233   N294    1.446   .     S
C233   H257    1.112   .     S
C233   H1174   1.110   .     S
C233   H1075   1.111   .     S
C234   H263    1.112   .     S
C234   N295    1.447   .     S
C234   H262    1.111   .     S
C235   H265    1.112   .     S
C235   H266    1.110   .     S
C235   H267    1.108   .     S
C235   N296    1.446   .     S
C236   H272    1.111   .     S
C236   N297    1.446   .     S
C236   H271    1.108   .     S
C236   H270    1.112   .     S
C237   N298    1.449   .     S
C237   H276    1.110   .     S
C237   H274    1.111   .     S
C237   H275    1.111   .     S
C238   C241    1.387   .     A
C238   H258    1.079   .     S
C239   H278    1.110   .     S
C239   H279    1.106   .     S
C239   N290    1.445   .     S
C239   H281    1.111   .     S
C240   H284    1.083   .     S
C240   C1144   1.402   1_554 S
C241   H285    1.083   .     S
C241   C1146   1.401   .     S
C242   N296    1.423   .     S
C242   C856    1.391   1_545 S
C243   N297    1.423   .     S
C243   C512    1.391   .     S
C244   H269    1.085   .     S
C244   C3      1.398   1_655 S
C244   C548    1.391   .     S
Cu245  O306    1.946   .     S
Cu245  O303    1.953   .     S
Cu245  N289    2.017   .     S
Cu245  O299    1.944   .     S
Cu245  O302    1.953   .     S
Cu246  O300    1.944   .     S
Cu246  O301    1.953   .     S
Cu246  O304    1.953   .     S
Cu246  O305    1.946   .     S
Cu246  N291    2.017   .     S
Cu246  Cu41    2.684   1_655 S
H249   N293    1.030   .     S
H253   C17     1.084   1_655 S
H255   N294    1.031   .     S
H256   C1151   1.110   1_554 S
H259   C947    1.111   1_654 S
H260   N91     1.032   1_655 S
H261   C30     1.110   1_655 S
H264   N296    1.032   .     S
H268   N297    1.032   .     S
H273   N298    1.026   .     S
H277   N290    1.031   .     S
H286   N292    1.028   .     S
O300   C12     1.289   1_655 S
O304   C10     1.298   1_655 S
C307   O403    1.290   .     A
C307   C310    1.437   .     S
C307   O503    1.289   .     S
C308   H382    1.085   .     S
C308   C514    1.397   1_455 S
C309   C318    1.437   .     S
C309   C345    1.404   .     A
C309   C550    1.398   1_455 S
C310   C344    1.404   .     A
C310   C410    1.397   .     S
C311   N400    1.428   .     S
C311   C313    1.424   .     A
C311   N393    1.385   .     A
C312   N391    1.377   .     A
C312   C314    1.419   .     A
C312   N392    1.419   .     S
C313   N391    1.357   .     A
C313   H384    1.080   .     S
C314   H385    1.082   .     S
C314   N393    1.361   .     A
C315   C317    1.481   .     S
C315   O407    1.297   .     A
C315   O507    1.303   .     S
C316   O408    1.296   .     A
C316   C319    1.464   .     S
C316   O610    1.298   1_455 S
C317   C324    1.415   .     A
C317   C322    1.403   .     A
C318   O404    1.290   .     A
C318   O606    1.289   1_455 S
C319   C325    1.408   .     A
C319   C323    1.398   .     A
C320   C322    1.398   .     A
C320   C328    1.411   .     A
C320   N498    1.423   .     S
C321   C330    1.412   .     A
C321   C323    1.395   .     A
C321   N397    1.424   .     S
C322   H458    1.084   .     S
C323   H559    1.084   1_455 S
C324   N395    1.429   .     S
C324   C326    1.417   .     A
C325   C327    1.416   .     A
C325   N394    1.432   .     S
C326   C331    1.416   .     A
C326   C328    1.417   .     A
C327   C332    1.424   .     A
C327   C330    1.424   .     A
C328   C1260   1.402   .     S
C329   C342    1.393   .     A
C329   H349    1.078   .     S
C329   C332    1.412   .     A
C330   C1261   1.401   1_554 S
C331   C340    1.406   .     A
C331   C1250   1.409   .     S
C332   C1249   1.409   1_554 S
C333   H390    1.111   .     S
C333   H350    1.111   .     S
C333   H389    1.110   .     S
C333   N394    1.448   .     S
C334   N395    1.450   .     S
C334   H352    1.110   .     S
C334   H353    1.107   .     S
C334   H354    1.111   .     S
C335   N396    1.446   .     S
C335   H359    1.112   .     S
C335   H1276   1.110   .     S
C335   H1483   1.111   1_455 S
C336   H365    1.112   .     S
C336   N397    1.447   .     S
C336   H364    1.111   .     S
C336   H567    1.110   1_455 S
C337   H367    1.112   .     S
C337   H368    1.110   .     S
C337   H369    1.108   .     S
C337   N398    1.446   .     S
C338   H374    1.111   .     S
C338   N399    1.446   .     S
C338   H373    1.108   .     S
C338   H372    1.112   .     S
C339   N400    1.449   .     S
C339   H378    1.110   .     S
C339   H376    1.111   .     S
C339   H377    1.111   .     S
C340   C343    1.387   .     A
C340   H360    1.079   .     S
C341   H380    1.110   .     S
C341   H381    1.106   .     S
C341   N392    1.445   .     S
C341   H383    1.111   .     S
C342   H386    1.083   .     S
C342   C1246   1.402   1_554 S
C343   H387    1.083   .     S
C343   C1248   1.401   .     S
C344   N398    1.423   .     S
C345   N399    1.423   .     S
C345   C614    1.391   .     S
C346   H371    1.085   .     S
C346   C411    1.398   .     S
C346   C650    1.391   .     S
Cu347  O408    1.946   .     S
Cu347  O405    1.953   .     S
Cu347  N391    2.017   .     S
Cu347  O401    1.944   .     S
Cu347  O404    1.953   .     S
Cu347  Cu552   2.684   1_455 S
Cu348  O402    1.944   .     S
Cu348  O403    1.953   .     S
Cu348  O406    1.953   .     S
Cu348  O407    1.946   .     S
Cu348  N393    2.017   .     S
Cu348  Cu449   2.684   .     S
H351   N395    1.030   .     S
H355   C425    1.084   .     S
H356   C526    1.084   1_455 S
H357   N396    1.031   .     S
H358   C1253   1.110   1_554 S
H361   C1355   1.111   1_554 S
H362   N499    1.032   .     S
H363   C438    1.110   .     S
H366   N398    1.032   .     S
H370   N399    1.032   .     S
H375   N400    1.026   .     S
H379   N392    1.031   .     S
H388   N394    1.028   .     S
N396   C524    1.423   1_455 S
N397   H566    1.032   1_455 S
O401   C511    1.289   1_455 S
O402   C420    1.289   .     S
O405   C519    1.303   1_455 S
O406   C418    1.298   .     S
C409   O505    1.290   .     A
C409   C412    1.437   .     S
C409   O605    1.289   .     S
C410   H484    1.085   .     S
C411   C420    1.437   .     S
C411   C447    1.404   .     A
C412   C446    1.404   .     A
C412   C512    1.397   .     S
C413   N502    1.428   .     S
C413   C415    1.424   .     A
C413   N495    1.385   .     A
C414   N493    1.377   .     A
C414   C416    1.419   .     A
C414   N494    1.419   .     S
C415   N493    1.357   .     A
C415   H486    1.080   .     S
C416   H487    1.082   .     S
C416   N495    1.361   .     A
C417   C419    1.481   .     S
C417   O509    1.297   .     A
C417   O609    1.303   .     S
C418   O510    1.296   .     A
C418   C421    1.464   .     S
C419   C426    1.415   .     A
C419   C424    1.403   .     A
C420   O506    1.290   .     A
C421   C427    1.408   .     A
C421   C425    1.398   .     A
C422   C424    1.398   .     A
C422   C430    1.411   .     A
C422   N600    1.423   .     S
C423   C432    1.412   .     A
C423   C425    1.395   .     A
C423   N499    1.424   .     S
C424   H560    1.084   .     S
C426   N497    1.429   .     S
C426   C428    1.417   .     A
C427   C429    1.416   .     A
C427   N496    1.432   .     S
C428   C433    1.416   .     A
C428   C430    1.417   .     A
C429   C434    1.424   .     A
C429   C432    1.424   .     A
C430   C1362   1.402   .     S
C431   C444    1.393   .     A
C431   H451    1.078   .     S
C431   C434    1.412   .     A
C432   C1363   1.401   1_554 S
C433   C442    1.406   .     A
C433   C1352   1.409   .     S
C434   C1351   1.409   1_554 S
C435   H492    1.111   .     S
C435   H452    1.111   .     S
C435   H491    1.110   .     S
C435   N496    1.448   .     S
C436   N497    1.450   .     S
C436   H454    1.110   .     S
C436   H455    1.107   .     S
C436   H456    1.111   .     S
C437   N498    1.446   .     S
C437   H461    1.112   .     S
C437   H1378   1.110   .     S
C437   H1279   1.111   .     S
C438   H467    1.112   .     S
C438   N499    1.447   .     S
C438   H466    1.111   .     S
C439   H469    1.112   .     S
C439   H470    1.110   .     S
C439   H471    1.108   .     S
C439   N500    1.446   .     S
C440   H476    1.111   .     S
C440   N501    1.446   .     S
C440   H475    1.108   .     S
C440   H474    1.112   .     S
C441   N502    1.449   .     S
C441   H480    1.110   .     S
C441   H478    1.111   .     S
C441   H479    1.111   .     S
C442   C445    1.387   .     A
C442   H462    1.079   .     S
C443   H482    1.110   .     S
C443   H483    1.106   .     S
C443   N494    1.445   .     S
C443   H485    1.111   .     S
C444   H488    1.083   .     S
C444   C1348   1.402   1_554 S
C445   H489    1.083   .     S
C445   C1350   1.401   .     S
C446   N500    1.423   .     S
C447   N501    1.423   .     S
C447   C716    1.391   .     S
C448   H473    1.085   .     S
C448   C513    1.398   .     S
C448   C752    1.391   .     S
Cu449  O510    1.946   .     S
Cu449  O507    1.953   .     S
Cu449  N493    2.017   .     S
Cu449  O503    1.944   .     S
Cu449  O506    1.953   .     S
Cu450  O504    1.944   .     S
Cu450  O505    1.953   .     S
Cu450  O508    1.953   .     S
Cu450  O509    1.946   .     S
Cu450  N495    2.017   .     S
Cu450  Cu551   2.684   .     S
H453   N497    1.030   .     S
H457   C527    1.084   .     S
H459   N498    1.031   .     S
H460   C1355   1.110   1_554 S
H463   C1457   1.111   1_554 S
H464   N601    1.032   .     S
H465   C540    1.110   .     S
H468   N500    1.032   .     S
H472   N501    1.032   .     S
H477   N502    1.026   .     S
H481   N494    1.031   .     S
H490   N496    1.028   .     S
O504   C522    1.289   .     S
O508   C520    1.298   .     S
C511   O607    1.290   .     A
C511   C514    1.437   .     S
C511   O401    1.289   1_655 S
C512   H586    1.085   .     S
C513   C522    1.437   .     S
C513   C549    1.404   .     A
C514   C548    1.404   .     A
C514   C308    1.397   1_655 S
C515   N604    1.428   .     S
C515   C517    1.424   .     A
C515   N597    1.385   .     A
C516   N595    1.377   .     A
C516   C518    1.419   .     A
C516   N596    1.419   .     S
C517   N595    1.357   .     A
C517   H588    1.080   .     S
C518   H589    1.082   .     S
C518   N597    1.361   .     A
C519   C521    1.481   .     S
C519   O611    1.297   .     A
C519   O405    1.303   1_655 S
C520   O612    1.296   .     A
C520   C523    1.464   .     S
C521   C528    1.415   .     A
C521   C526    1.403   .     A
C522   O608    1.290   .     A
C523   C529    1.408   .     A
C523   C527    1.398   .     A
C524   C526    1.398   .     A
C524   C532    1.411   .     A
C524   N396    1.423   1_655 S
C525   C534    1.412   .     A
C525   C527    1.395   .     A
C525   N601    1.424   .     S
C526   H356    1.084   1_655 S
C528   N599    1.429   .     S
C528   C530    1.417   .     A
C529   C531    1.416   .     A
C529   N598    1.432   .     S
C530   C535    1.416   .     A
C530   C532    1.417   .     A
C531   C536    1.424   .     A
C531   C534    1.424   .     A
C532   C1464   1.402   .     S
C533   C546    1.393   .     A
C533   H553    1.078   .     S
C533   C536    1.412   .     A
C534   C1465   1.401   1_554 S
C535   C544    1.406   .     A
C535   C1454   1.409   .     S
C536   C1453   1.409   1_554 S
C537   H594    1.111   .     S
C537   H554    1.111   .     S
C537   H593    1.110   .     S
C537   N598    1.448   .     S
C538   N599    1.450   .     S
C538   H556    1.110   .     S
C538   H557    1.107   .     S
C538   H558    1.111   .     S
C539   N600    1.446   .     S
C539   H563    1.112   .     S
C539   H1480   1.110   .     S
C539   H1381   1.111   .     S
C540   H569    1.112   .     S
C540   N601    1.447   .     S
C540   H568    1.111   .     S
C541   H571    1.112   .     S
C541   H572    1.110   .     S
C541   H573    1.108   .     S
C541   N602    1.446   .     S
C542   H578    1.111   .     S
C542   N603    1.446   .     S
C542   H577    1.108   .     S
C542   H576    1.112   .     S
C543   N604    1.449   .     S
C543   H582    1.110   .     S
C543   H580    1.111   .     S
C543   H581    1.111   .     S
C544   C547    1.387   .     A
C544   H564    1.079   .     S
C545   H584    1.110   .     S
C545   H585    1.106   .     S
C545   N596    1.445   .     S
C545   H587    1.111   .     S
C546   H590    1.083   .     S
C546   C1450   1.402   1_554 S
C547   H591    1.083   .     S
C547   C1452   1.401   .     S
C548   N602    1.423   .     S
C549   N603    1.423   .     S
C549   C818    1.391   .     S
C550   H575    1.085   .     S
C550   C309    1.398   1_655 S
C550   C854    1.391   .     S
Cu551  O612    1.946   .     S
Cu551  O609    1.953   .     S
Cu551  N595    2.017   .     S
Cu551  O605    1.944   .     S
Cu551  O608    1.953   .     S
Cu552  O606    1.944   .     S
Cu552  O607    1.953   .     S
Cu552  O610    1.953   .     S
Cu552  O611    1.946   .     S
Cu552  N597    2.017   .     S
Cu552  Cu347   2.684   1_655 S
H555   N599    1.030   .     S
H559   C323    1.084   1_655 S
H561   N600    1.031   .     S
H562   C1457   1.110   1_554 S
H565   C1253   1.111   1_654 S
H566   N397    1.032   1_655 S
H567   C336    1.110   1_655 S
H570   N602    1.032   .     S
H574   N603    1.032   .     S
H579   N604    1.026   .     S
H583   N596    1.031   .     S
H592   N598    1.028   .     S
O606   C318    1.289   1_655 S
O610   C316    1.298   1_655 S
C613   O709    1.290   .     A
C613   C616    1.437   .     S
C613   O809    1.289   .     S
C614   H688    1.085   .     S
C614   C820    1.397   1_455 S
C615   C624    1.437   .     S
C615   C651    1.404   .     A
C615   C856    1.398   1_455 S
C616   C650    1.404   .     A
C616   C716    1.397   .     S
C617   N706    1.428   .     S
C617   C619    1.424   .     A
C617   N699    1.385   .     A
C618   N697    1.377   .     A
C618   C620    1.419   .     A
C618   N698    1.419   .     S
C619   N697    1.357   .     A
C619   H690    1.080   .     S
C620   H691    1.082   .     S
C620   N699    1.361   .     A
C621   C623    1.481   .     S
C621   O713    1.297   .     A
C621   O813    1.303   .     S
C622   O714    1.296   .     A
C622   C625    1.464   .     S
C622   O916    1.298   1_455 S
C623   C630    1.415   .     A
C623   C628    1.403   .     A
C624   O710    1.290   .     A
C624   O912    1.289   1_455 S
C625   C631    1.408   .     A
C625   C629    1.398   .     A
C626   C628    1.398   .     A
C626   C634    1.411   .     A
C626   N804    1.423   .     S
C627   C636    1.412   .     A
C627   C629    1.395   .     A
C627   N703    1.424   .     S
C628   H764    1.084   .     S
C629   H865    1.084   1_455 S
C630   N701    1.429   .     S
C630   C632    1.417   .     A
C631   C633    1.416   .     A
C631   N700    1.432   .     S
C632   C637    1.416   .     A
C632   C634    1.417   .     A
C633   C638    1.424   .     A
C633   C636    1.424   .     A
C634   C1566   1.402   .     S
C635   C648    1.393   .     A
C635   H655    1.078   .     S
C635   C638    1.412   .     A
C636   C1567   1.401   1_554 S
C637   C646    1.406   .     A
C637   C1556   1.409   .     S
C638   C1555   1.409   1_554 S
C639   H696    1.111   .     S
C639   H656    1.111   .     S
C639   H695    1.110   .     S
C639   N700    1.448   .     S
C640   N701    1.450   .     S
C640   H658    1.110   .     S
C640   H659    1.107   .     S
C640   H660    1.111   .     S
C641   N702    1.446   .     S
C641   H665    1.112   .     S
C641   H1582   1.110   .     S
C641   H1789   1.111   1_455 S
C642   H671    1.112   .     S
C642   N703    1.447   .     S
C642   H670    1.111   .     S
C642   H873    1.110   1_455 S
C643   H673    1.112   .     S
C643   H674    1.110   .     S
C643   H675    1.108   .     S
C643   N704    1.446   .     S
C644   H680    1.111   .     S
C644   N705    1.446   .     S
C644   H679    1.108   .     S
C644   H678    1.112   .     S
C645   N706    1.449   .     S
C645   H684    1.110   .     S
C645   H682    1.111   .     S
C645   H683    1.111   .     S
C646   C649    1.387   .     A
C646   H666    1.079   .     S
C647   H686    1.110   .     S
C647   H687    1.106   .     S
C647   N698    1.445   .     S
C647   H689    1.111   .     S
C648   H692    1.083   .     S
C648   C1552   1.402   1_554 S
C649   H693    1.083   .     S
C649   C1554   1.401   .     S
C650   N704    1.423   .     S
C651   N705    1.423   .     S
C651   C2      1.391   1_565 S
C652   H677    1.085   .     S
C652   C717    1.398   .     S
C652   C38     1.391   1_565 S
Cu653  O714    1.946   .     S
Cu653  O711    1.953   .     S
Cu653  N697    2.017   .     S
Cu653  O707    1.944   .     S
Cu653  O710    1.953   .     S
Cu653  Cu858   2.684   1_455 S
Cu654  O708    1.944   .     S
Cu654  O709    1.953   .     S
Cu654  O712    1.953   .     S
Cu654  O713    1.946   .     S
Cu654  N699    2.017   .     S
Cu654  Cu755   2.684   .     S
H657   N701    1.030   .     S
H661   C731    1.084   .     S
H662   C832    1.084   1_455 S
H663   N702    1.031   .     S
H664   C1559   1.110   1_554 S
H667   C1661   1.111   1_554 S
H668   N805    1.032   .     S
H669   C744    1.110   .     S
H672   N704    1.032   .     S
H676   N705    1.032   .     S
H681   N706    1.026   .     S
H685   N698    1.031   .     S
H694   N700    1.028   .     S
N702   C830    1.423   1_455 S
N703   H872    1.032   1_455 S
O707   C817    1.289   1_455 S
O708   C726    1.289   .     S
O711   C825    1.303   1_455 S
O712   C724    1.298   .     S
C715   O811    1.290   .     A
C715   C718    1.437   .     S
C715   O911    1.289   .     S
C716   H790    1.085   .     S
C717   C726    1.437   .     S
C717   C753    1.404   .     A
C718   C752    1.404   .     A
C718   C818    1.397   .     S
C719   N808    1.428   .     S
C719   C721    1.424   .     A
C719   N801    1.385   .     A
C720   N799    1.377   .     A
C720   C722    1.419   .     A
C720   N800    1.419   .     S
C721   N799    1.357   .     A
C721   H792    1.080   .     S
C722   H793    1.082   .     S
C722   N801    1.361   .     A
C723   C725    1.481   .     S
C723   O815    1.297   .     A
C723   O915    1.303   .     S
C724   O816    1.296   .     A
C724   C727    1.464   .     S
C725   C732    1.415   .     A
C725   C730    1.403   .     A
C726   O812    1.290   .     A
C727   C733    1.408   .     A
C727   C731    1.398   .     A
C728   C730    1.398   .     A
C728   C736    1.411   .     A
C728   N906    1.423   .     S
C729   C738    1.412   .     A
C729   C731    1.395   .     A
C729   N805    1.424   .     S
C730   H866    1.084   .     S
C732   N803    1.429   .     S
C732   C734    1.417   .     A
C733   C735    1.416   .     A
C733   N802    1.432   .     S
C734   C739    1.416   .     A
C734   C736    1.417   .     A
C735   C740    1.424   .     A
C735   C738    1.424   .     A
C736   C1668   1.402   .     S
C737   C750    1.393   .     A
C737   H757    1.078   .     S
C737   C740    1.412   .     A
C738   C1669   1.401   1_554 S
C739   C748    1.406   .     A
C739   C1658   1.409   .     S
C740   C1657   1.409   1_554 S
C741   H798    1.111   .     S
C741   H758    1.111   .     S
C741   H797    1.110   .     S
C741   N802    1.448   .     S
C742   N803    1.450   .     S
C742   H760    1.110   .     S
C742   H761    1.107   .     S
C742   H762    1.111   .     S
C743   N804    1.446   .     S
C743   H767    1.112   .     S
C743   H1684   1.110   .     S
C743   H1585   1.111   .     S
C744   H773    1.112   .     S
C744   N805    1.447   .     S
C744   H772    1.111   .     S
C745   H775    1.112   .     S
C745   H776    1.110   .     S
C745   H777    1.108   .     S
C745   N806    1.446   .     S
C746   H782    1.111   .     S
C746   N807    1.446   .     S
C746   H781    1.108   .     S
C746   H780    1.112   .     S
C747   N808    1.449   .     S
C747   H786    1.110   .     S
C747   H784    1.111   .     S
C747   H785    1.111   .     S
C748   C751    1.387   .     A
C748   H768    1.079   .     S
C749   H788    1.110   .     S
C749   H789    1.106   .     S
C749   N800    1.445   .     S
C749   H791    1.111   .     S
C750   H794    1.083   .     S
C750   C1654   1.402   1_554 S
C751   H795    1.083   .     S
C751   C1656   1.401   .     S
C752   N806    1.423   .     S
C753   N807    1.423   .     S
C753   C104    1.391   1_565 S
C754   H779    1.085   .     S
C754   C819    1.398   .     S
C754   C140    1.391   1_565 S
Cu755  O816    1.946   .     S
Cu755  O813    1.953   .     S
Cu755  N799    2.017   .     S
Cu755  O809    1.944   .     S
Cu755  O812    1.953   .     S
Cu756  O810    1.944   .     S
Cu756  O811    1.953   .     S
Cu756  O814    1.953   .     S
Cu756  O815    1.946   .     S
Cu756  N801    2.017   .     S
Cu756  Cu857   2.684   .     S
H759   N803    1.030   .     S
H763   C833    1.084   .     S
H765   N804    1.031   .     S
H766   C1661   1.110   1_554 S
H769   C1763   1.111   1_554 S
H770   N907    1.032   .     S
H771   C846    1.110   .     S
H774   N806    1.032   .     S
H778   N807    1.032   .     S
H783   N808    1.026   .     S
H787   N800    1.031   .     S
H796   N802    1.028   .     S
O810   C828    1.289   .     S
O814   C826    1.298   .     S
C817   O913    1.290   .     A
C817   C820    1.437   .     S
C817   O707    1.289   1_655 S
C818   H892    1.085   .     S
C819   C828    1.437   .     S
C819   C855    1.404   .     A
C820   C854    1.404   .     A
C820   C614    1.397   1_655 S
C821   N910    1.428   .     S
C821   C823    1.424   .     A
C821   N903    1.385   .     A
C822   N901    1.377   .     A
C822   C824    1.419   .     A
C822   N902    1.419   .     S
C823   N901    1.357   .     A
C823   H894    1.080   .     S
C824   H895    1.082   .     S
C824   N903    1.361   .     A
C825   C827    1.481   .     S
C825   O917    1.297   .     A
C825   O711    1.303   1_655 S
C826   O918    1.296   .     A
C826   C829    1.464   .     S
C827   C834    1.415   .     A
C827   C832    1.403   .     A
C828   O914    1.290   .     A
C829   C835    1.408   .     A
C829   C833    1.398   .     A
C830   C832    1.398   .     A
C830   C838    1.411   .     A
C830   N702    1.423   1_655 S
C831   C840    1.412   .     A
C831   C833    1.395   .     A
C831   N907    1.424   .     S
C832   H662    1.084   1_655 S
C834   N905    1.429   .     S
C834   C836    1.417   .     A
C835   C837    1.416   .     A
C835   N904    1.432   .     S
C836   C841    1.416   .     A
C836   C838    1.417   .     A
C837   C842    1.424   .     A
C837   C840    1.424   .     A
C838   C1770   1.402   .     S
C839   C852    1.393   .     A
C839   H859    1.078   .     S
C839   C842    1.412   .     A
C840   C1771   1.401   1_554 S
C841   C850    1.406   .     A
C841   C1760   1.409   .     S
C842   C1759   1.409   1_554 S
C843   H900    1.111   .     S
C843   H860    1.111   .     S
C843   H899    1.110   .     S
C843   N904    1.448   .     S
C844   N905    1.450   .     S
C844   H862    1.110   .     S
C844   H863    1.107   .     S
C844   H864    1.111   .     S
C845   N906    1.446   .     S
C845   H869    1.112   .     S
C845   H1786   1.110   .     S
C845   H1687   1.111   .     S
C846   H875    1.112   .     S
C846   N907    1.447   .     S
C846   H874    1.111   .     S
C847   H877    1.112   .     S
C847   H878    1.110   .     S
C847   H879    1.108   .     S
C847   N908    1.446   .     S
C848   H884    1.111   .     S
C848   N909    1.446   .     S
C848   H883    1.108   .     S
C848   H882    1.112   .     S
C849   N910    1.449   .     S
C849   H888    1.110   .     S
C849   H886    1.111   .     S
C849   H887    1.111   .     S
C850   C853    1.387   .     A
C850   H870    1.079   .     S
C851   H890    1.110   .     S
C851   H891    1.106   .     S
C851   N902    1.445   .     S
C851   H893    1.111   .     S
C852   H896    1.083   .     S
C852   C1756   1.402   1_554 S
C853   H897    1.083   .     S
C853   C1758   1.401   .     S
C854   N908    1.423   .     S
C855   N909    1.423   .     S
C855   C206    1.391   1_565 S
C856   H881    1.085   .     S
C856   C615    1.398   1_655 S
C856   C242    1.391   1_565 S
Cu857  O918    1.946   .     S
Cu857  O915    1.953   .     S
Cu857  N901    2.017   .     S
Cu857  O911    1.944   .     S
Cu857  O914    1.953   .     S
Cu858  O912    1.944   .     S
Cu858  O913    1.953   .     S
Cu858  O916    1.953   .     S
Cu858  O917    1.946   .     S
Cu858  N903    2.017   .     S
Cu858  Cu653   2.684   1_655 S
H861   N905    1.030   .     S
H865   C629    1.084   1_655 S
H867   N906    1.031   .     S
H868   C1763   1.110   1_554 S
H871   C1559   1.111   1_654 S
H872   N703    1.032   1_655 S
H873   C642    1.110   1_655 S
H876   N908    1.032   .     S
H880   N909    1.032   .     S
H885   N910    1.026   .     S
H889   N902    1.031   .     S
H898   N904    1.028   .     S
O912   C624    1.289   1_655 S
O916   C622    1.298   1_655 S
C919   O1015   1.290   .     A
C919   C922    1.437   .     S
C919   O1115   1.289   .     S
C920   H994    1.085   .     S
C920   C1126   1.397   1_455 S
C920   C1569   1.391   1_545 S
C921   C930    1.437   .     S
C921   C957    1.404   .     A
C921   C1162   1.398   1_455 S
C922   C956    1.404   .     A
C922   C1022   1.397   .     S
C923   N1012   1.428   .     S
C923   C925    1.424   .     A
C923   N1005   1.385   .     A
C924   N1003   1.377   .     A
C924   C926    1.419   .     A
C924   N1004   1.419   .     S
C925   N1003   1.357   .     A
C925   H996    1.080   .     S
C926   H997    1.082   .     S
C926   N1005   1.361   .     A
C927   C929    1.481   .     S
C927   O1019   1.297   .     A
C927   O1119   1.303   .     S
C928   O1020   1.296   .     A
C928   C931    1.464   .     S
C928   O1222   1.298   1_455 S
C929   C936    1.415   .     A
C929   C934    1.403   .     A
C930   O1016   1.290   .     A
C930   O1218   1.289   1_455 S
C931   C937    1.408   .     A
C931   C935    1.398   .     A
C932   C934    1.398   .     A
C932   C940    1.411   .     A
C932   N1110   1.423   .     S
C933   C942    1.412   .     A
C933   C935    1.395   .     A
C933   N1009   1.424   .     S
C934   H1070   1.084   .     S
C935   H1171   1.084   1_455 S
C936   N1007   1.429   .     S
C936   C938    1.417   .     A
C937   C939    1.416   .     A
C937   N1006   1.432   .     S
C938   C943    1.416   .     A
C938   C940    1.417   .     A
C939   C944    1.424   .     A
C939   C942    1.424   .     A
C940   C36     1.402   1_556 S
C941   C954    1.393   .     A
C941   H961    1.078   .     S
C941   C944    1.412   .     A
C943   C952    1.406   .     A
C943   C26     1.409   1_556 S
C945   H1002   1.111   .     S
C945   H962    1.111   .     S
C945   H1001   1.110   .     S
C945   N1006   1.448   .     S
C946   N1007   1.450   .     S
C946   H964    1.110   .     S
C946   H965    1.107   .     S
C946   H966    1.111   .     S
C947   N1008   1.446   .     S
C947   H971    1.112   .     S
C947   H52     1.110   1_556 S
C947   H259    1.111   1_456 S
C948   H977    1.112   .     S
C948   N1009   1.447   .     S
C948   H976    1.111   .     S
C948   H1179   1.110   1_455 S
C949   H979    1.112   .     S
C949   H980    1.110   .     S
C949   H981    1.108   .     S
C949   N1010   1.446   .     S
C950   H986    1.111   .     S
C950   N1011   1.446   .     S
C950   H985    1.108   .     S
C950   H984    1.112   .     S
C951   N1012   1.449   .     S
C951   H990    1.110   .     S
C951   H988    1.111   .     S
C951   H989    1.111   .     S
C952   C955    1.387   .     A
C952   H972    1.079   .     S
C953   H992    1.110   .     S
C953   H993    1.106   .     S
C953   N1004   1.445   .     S
C953   H995    1.111   .     S
C954   H998    1.083   .     S
C955   H999    1.083   .     S
C955   C24     1.401   1_556 S
C956   N1010   1.423   .     S
C956   C1570   1.391   1_545 S
C957   N1011   1.423   .     S
C957   C1226   1.391   .     S
C958   H983    1.085   .     S
C958   C1023   1.398   .     S
C958   C1262   1.391   .     S
Cu959  O1020   1.946   .     S
Cu959  O1017   1.953   .     S
Cu959  N1003   2.017   .     S
Cu959  O1013   1.944   .     S
Cu959  O1016   1.953   .     S
Cu959  Cu1164  2.684   1_455 S
Cu960  O1014   1.944   .     S
Cu960  O1015   1.953   .     S
Cu960  O1018   1.953   .     S
Cu960  O1019   1.946   .     S
Cu960  N1005   2.017   .     S
Cu960  Cu1061  2.684   .     S
H963   N1007   1.030   .     S
H967   C1037   1.084   .     S
H968   C1138   1.084   1_455 S
H969   N1008   1.031   .     S
H974   N1111   1.032   .     S
H975   C1050   1.110   .     S
H978   N1010   1.032   .     S
H982   N1011   1.032   .     S
H987   N1012   1.026   .     S
H991   N1004   1.031   .     S
H1000  N1006   1.028   .     S
N1008  C1136   1.423   1_455 S
N1009  H1178   1.032   1_455 S
O1013  C1123   1.289   1_455 S
O1014  C1032   1.289   .     S
O1017  C1131   1.303   1_455 S
O1018  C1030   1.298   .     S
C1021  O1117   1.290   .     A
C1021  C1024   1.437   .     S
C1021  O1217   1.289   .     S
C1022  H1096   1.085   .     S
C1022  C1671   1.391   1_545 S
C1023  C1032   1.437   .     S
C1023  C1059   1.404   .     A
C1024  C1058   1.404   .     A
C1024  C1124   1.397   .     S
C1025  N1114   1.428   .     S
C1025  C1027   1.424   .     A
C1025  N1107   1.385   .     A
C1026  N1105   1.377   .     A
C1026  C1028   1.419   .     A
C1026  N1106   1.419   .     S
C1027  N1105   1.357   .     A
C1027  H1098   1.080   .     S
C1028  H1099   1.082   .     S
C1028  N1107   1.361   .     A
C1029  C1031   1.481   .     S
C1029  O1121   1.297   .     A
C1029  O1221   1.303   .     S
C1030  O1122   1.296   .     A
C1030  C1033   1.464   .     S
C1031  C1038   1.415   .     A
C1031  C1036   1.403   .     A
C1032  O1118   1.290   .     A
C1033  C1039   1.408   .     A
C1033  C1037   1.398   .     A
C1034  C1036   1.398   .     A
C1034  C1042   1.411   .     A
C1034  N1212   1.423   .     S
C1035  C1044   1.412   .     A
C1035  C1037   1.395   .     A
C1035  N1111   1.424   .     S
C1036  H1172   1.084   .     S
C1038  N1109   1.429   .     S
C1038  C1040   1.417   .     A
C1039  C1041   1.416   .     A
C1039  N1108   1.432   .     S
C1040  C1045   1.416   .     A
C1040  C1042   1.417   .     A
C1041  C1046   1.424   .     A
C1041  C1044   1.424   .     A
C1042  C138    1.402   1_556 S
C1043  C1056   1.393   .     A
C1043  H1063   1.078   .     S
C1043  C1046   1.412   .     A
C1045  C1054   1.406   .     A
C1045  C128    1.409   1_556 S
C1047  H1104   1.111   .     S
C1047  H1064   1.111   .     S
C1047  H1103   1.110   .     S
C1047  N1108   1.448   .     S
C1048  N1109   1.450   .     S
C1048  H1066   1.110   .     S
C1048  H1067   1.107   .     S
C1048  H1068   1.111   .     S
C1049  N1110   1.446   .     S
C1049  H1073   1.112   .     S
C1049  H154    1.110   1_556 S
C1049  H55     1.111   1_556 S
C1050  H1079   1.112   .     S
C1050  N1111   1.447   .     S
C1050  H1078   1.111   .     S
C1051  H1081   1.112   .     S
C1051  H1082   1.110   .     S
C1051  H1083   1.108   .     S
C1051  N1112   1.446   .     S
C1052  H1088   1.111   .     S
C1052  N1113   1.446   .     S
C1052  H1087   1.108   .     S
C1052  H1086   1.112   .     S
C1053  N1114   1.449   .     S
C1053  H1092   1.110   .     S
C1053  H1090   1.111   .     S
C1053  H1091   1.111   .     S
C1054  C1057   1.387   .     A
C1054  H1074   1.079   .     S
C1055  H1094   1.110   .     S
C1055  H1095   1.106   .     S
C1055  N1106   1.445   .     S
C1055  H1097   1.111   .     S
C1056  H1100   1.083   .     S
C1057  H1101   1.083   .     S
C1057  C126    1.401   1_556 S
C1058  N1112   1.423   .     S
C1058  C1672   1.391   1_545 S
C1059  N1113   1.423   .     S
C1059  C1328   1.391   .     S
C1060  H1085   1.085   .     S
C1060  C1125   1.398   .     S
C1060  C1364   1.391   .     S
Cu1061 O1122   1.946   .     S
Cu1061 O1119   1.953   .     S
Cu1061 N1105   2.017   .     S
Cu1061 O1115   1.944   .     S
Cu1061 O1118   1.953   .     S
Cu1062 O1116   1.944   .     S
Cu1062 O1117   1.953   .     S
Cu1062 O1120   1.953   .     S
Cu1062 O1121   1.946   .     S
Cu1062 N1107   2.017   .     S
Cu1062 Cu1163  2.684   .     S
H1065  N1109   1.030   .     S
H1069  C1139   1.084   .     S
H1071  N1110   1.031   .     S
H1076  N1213   1.032   .     S
H1077  C1152   1.110   .     S
H1080  N1112   1.032   .     S
H1084  N1113   1.032   .     S
H1089  N1114   1.026   .     S
H1093  N1106   1.031   .     S
H1102  N1108   1.028   .     S
O1116  C1134   1.289   .     S
O1120  C1132   1.298   .     S
C1123  O1219   1.290   .     A
C1123  C1126   1.437   .     S
C1123  O1013   1.289   1_655 S
C1124  H1198   1.085   .     S
C1124  C1773   1.391   1_545 S
C1125  C1134   1.437   .     S
C1125  C1161   1.404   .     A
C1126  C1160   1.404   .     A
C1126  C920    1.397   1_655 S
C1127  N1216   1.428   .     S
C1127  C1129   1.424   .     A
C1127  N1209   1.385   .     A
C1128  N1207   1.377   .     A
C1128  C1130   1.419   .     A
C1128  N1208   1.419   .     S
C1129  N1207   1.357   .     A
C1129  H1200   1.080   .     S
C1130  H1201   1.082   .     S
C1130  N1209   1.361   .     A
C1131  C1133   1.481   .     S
C1131  O1223   1.297   .     A
C1131  O1017   1.303   1_655 S
C1132  O1224   1.296   .     A
C1132  C1135   1.464   .     S
C1133  C1140   1.415   .     A
C1133  C1138   1.403   .     A
C1134  O1220   1.290   .     A
C1135  C1141   1.408   .     A
C1135  C1139   1.398   .     A
C1136  C1138   1.398   .     A
C1136  C1144   1.411   .     A
C1136  N1008   1.423   1_655 S
C1137  C1146   1.412   .     A
C1137  C1139   1.395   .     A
C1137  N1213   1.424   .     S
C1138  H968    1.084   1_655 S
C1140  N1211   1.429   .     S
C1140  C1142   1.417   .     A
C1141  C1143   1.416   .     A
C1141  N1210   1.432   .     S
C1142  C1147   1.416   .     A
C1142  C1144   1.417   .     A
C1143  C1148   1.424   .     A
C1143  C1146   1.424   .     A
C1144  C240    1.402   1_556 S
C1145  C1158   1.393   .     A
C1145  H1165   1.078   .     S
C1145  C1148   1.412   .     A
C1147  C1156   1.406   .     A
C1147  C230    1.409   1_556 S
C1149  H1206   1.111   .     S
C1149  H1166   1.111   .     S
C1149  H1205   1.110   .     S
C1149  N1210   1.448   .     S
C1150  N1211   1.450   .     S
C1150  H1168   1.110   .     S
C1150  H1169   1.107   .     S
C1150  H1170   1.111   .     S
C1151  N1212   1.446   .     S
C1151  H1175   1.112   .     S
C1151  H256    1.110   1_556 S
C1151  H157    1.111   1_556 S
C1152  H1181   1.112   .     S
C1152  N1213   1.447   .     S
C1152  H1180   1.111   .     S
C1153  H1183   1.112   .     S
C1153  H1184   1.110   .     S
C1153  H1185   1.108   .     S
C1153  N1214   1.446   .     S
C1154  H1190   1.111   .     S
C1154  N1215   1.446   .     S
C1154  H1189   1.108   .     S
C1154  H1188   1.112   .     S
C1155  N1216   1.449   .     S
C1155  H1194   1.110   .     S
C1155  H1192   1.111   .     S
C1155  H1193   1.111   .     S
C1156  C1159   1.387   .     A
C1156  H1176   1.079   .     S
C1157  H1196   1.110   .     S
C1157  H1197   1.106   .     S
C1157  N1208   1.445   .     S
C1157  H1199   1.111   .     S
C1158  H1202   1.083   .     S
C1159  H1203   1.083   .     S
C1159  C228    1.401   1_556 S
C1160  N1214   1.423   .     S
C1160  C1774   1.391   1_545 S
C1161  N1215   1.423   .     S
C1161  C1430   1.391   .     S
C1162  H1187   1.085   .     S
C1162  C921    1.398   1_655 S
C1162  C1466   1.391   .     S
Cu1163 O1224   1.946   .     S
Cu1163 O1221   1.953   .     S
Cu1163 N1207   2.017   .     S
Cu1163 O1217   1.944   .     S
Cu1163 O1220   1.953   .     S
Cu1164 O1218   1.944   .     S
Cu1164 O1219   1.953   .     S
Cu1164 O1222   1.953   .     S
Cu1164 O1223   1.946   .     S
Cu1164 N1209   2.017   .     S
Cu1164 Cu959   2.684   1_655 S
H1167  N1211   1.030   .     S
H1171  C935    1.084   1_655 S
H1173  N1212   1.031   .     S
H1177  C29     1.111   1_655 S
H1178  N1009   1.032   1_655 S
H1179  C948    1.110   1_655 S
H1182  N1214   1.032   .     S
H1186  N1215   1.032   .     S
H1191  N1216   1.026   .     S
H1195  N1208   1.031   .     S
H1204  N1210   1.028   .     S
O1218  C930    1.289   1_655 S
O1222  C928    1.298   1_655 S
C1225  O1321   1.290   .     A
C1225  C1228   1.437   .     S
C1225  O1421   1.289   .     S
C1226  H1300   1.085   .     S
C1226  C1432   1.397   1_455 S
C1227  C1236   1.437   .     S
C1227  C1263   1.404   .     A
C1227  C1468   1.398   1_455 S
C1228  C1262   1.404   .     A
C1228  C1328   1.397   .     S
C1229  N1318   1.428   .     S
C1229  C1231   1.424   .     A
C1229  N1311   1.385   .     A
C1230  N1309   1.377   .     A
C1230  C1232   1.419   .     A
C1230  N1310   1.419   .     S
C1231  N1309   1.357   .     A
C1231  H1302   1.080   .     S
C1232  H1303   1.082   .     S
C1232  N1311   1.361   .     A
C1233  C1235   1.481   .     S
C1233  O1325   1.297   .     A
C1233  O1425   1.303   .     S
C1234  O1326   1.296   .     A
C1234  C1237   1.464   .     S
C1234  O1528   1.298   1_455 S
C1235  C1242   1.415   .     A
C1235  C1240   1.403   .     A
C1236  O1322   1.290   .     A
C1236  O1524   1.289   1_455 S
C1237  C1243   1.408   .     A
C1237  C1241   1.398   .     A
C1238  C1240   1.398   .     A
C1238  C1246   1.411   .     A
C1238  N1416   1.423   .     S
C1239  C1248   1.412   .     A
C1239  C1241   1.395   .     A
C1239  N1315   1.424   .     S
C1240  H1376   1.084   .     S
C1241  H1477   1.084   1_455 S
C1242  N1313   1.429   .     S
C1242  C1244   1.417   .     A
C1243  C1245   1.416   .     A
C1243  N1312   1.432   .     S
C1244  C1249   1.416   .     A
C1244  C1246   1.417   .     A
C1245  C1250   1.424   .     A
C1245  C1248   1.424   .     A
C1246  C342    1.402   1_556 S
C1247  C1260   1.393   .     A
C1247  H1267   1.078   .     S
C1247  C1250   1.412   .     A
C1249  C1258   1.406   .     A
C1249  C332    1.409   1_556 S
C1251  H1308   1.111   .     S
C1251  H1268   1.111   .     S
C1251  H1307   1.110   .     S
C1251  N1312   1.448   .     S
C1252  N1313   1.450   .     S
C1252  H1270   1.110   .     S
C1252  H1271   1.107   .     S
C1252  H1272   1.111   .     S
C1253  N1314   1.446   .     S
C1253  H1277   1.112   .     S
C1253  H358    1.110   1_556 S
C1253  H565    1.111   1_456 S
C1254  H1283   1.112   .     S
C1254  N1315   1.447   .     S
C1254  H1282   1.111   .     S
C1254  H1485   1.110   1_455 S
C1255  H1285   1.112   .     S
C1255  H1286   1.110   .     S
C1255  H1287   1.108   .     S
C1255  N1316   1.446   .     S
C1256  H1292   1.111   .     S
C1256  N1317   1.446   .     S
C1256  H1291   1.108   .     S
C1256  H1290   1.112   .     S
C1257  N1318   1.449   .     S
C1257  H1296   1.110   .     S
C1257  H1294   1.111   .     S
C1257  H1295   1.111   .     S
C1258  C1261   1.387   .     A
C1258  H1278   1.079   .     S
C1259  H1298   1.110   .     S
C1259  H1299   1.106   .     S
C1259  N1310   1.445   .     S
C1259  H1301   1.111   .     S
C1260  H1304   1.083   .     S
C1261  H1305   1.083   .     S
C1261  C330    1.401   1_556 S
C1262  N1316   1.423   .     S
C1263  N1317   1.423   .     S
C1263  C1532   1.391   .     S
C1264  H1289   1.085   .     S
C1264  C1329   1.398   .     S
C1264  C1568   1.391   .     S
Cu1265 O1326   1.946   .     S
Cu1265 O1323   1.953   .     S
Cu1265 N1309   2.017   .     S
Cu1265 O1319   1.944   .     S
Cu1265 O1322   1.953   .     S
Cu1265 Cu1470  2.684   1_455 S
Cu1266 O1320   1.944   .     S
Cu1266 O1321   1.953   .     S
Cu1266 O1324   1.953   .     S
Cu1266 O1325   1.946   .     S
Cu1266 N1311   2.017   .     S
Cu1266 Cu1367  2.684   .     S
H1269  N1313   1.030   .     S
H1273  C1343   1.084   .     S
H1274  C1444   1.084   1_455 S
H1275  N1314   1.031   .     S
H1280  N1417   1.032   .     S
H1281  C1356   1.110   .     S
H1284  N1316   1.032   .     S
H1288  N1317   1.032   .     S
H1293  N1318   1.026   .     S
H1297  N1310   1.031   .     S
H1306  N1312   1.028   .     S
N1314  C1442   1.423   1_455 S
N1315  H1484   1.032   1_455 S
O1319  C1429   1.289   1_455 S
O1320  C1338   1.289   .     S
O1323  C1437   1.303   1_455 S
O1324  C1336   1.298   .     S
C1327  O1423   1.290   .     A
C1327  C1330   1.437   .     S
C1327  O1523   1.289   .     S
C1328  H1402   1.085   .     S
C1329  C1338   1.437   .     S
C1329  C1365   1.404   .     A
C1330  C1364   1.404   .     A
C1330  C1430   1.397   .     S
C1331  N1420   1.428   .     S
C1331  C1333   1.424   .     A
C1331  N1413   1.385   .     A
C1332  N1411   1.377   .     A
C1332  C1334   1.419   .     A
C1332  N1412   1.419   .     S
C1333  N1411   1.357   .     A
C1333  H1404   1.080   .     S
C1334  H1405   1.082   .     S
C1334  N1413   1.361   .     A
C1335  C1337   1.481   .     S
C1335  O1427   1.297   .     A
C1335  O1527   1.303   .     S
C1336  O1428   1.296   .     A
C1336  C1339   1.464   .     S
C1337  C1344   1.415   .     A
C1337  C1342   1.403   .     A
C1338  O1424   1.290   .     A
C1339  C1345   1.408   .     A
C1339  C1343   1.398   .     A
C1340  C1342   1.398   .     A
C1340  C1348   1.411   .     A
C1340  N1518   1.423   .     S
C1341  C1350   1.412   .     A
C1341  C1343   1.395   .     A
C1341  N1417   1.424   .     S
C1342  H1478   1.084   .     S
C1344  N1415   1.429   .     S
C1344  C1346   1.417   .     A
C1345  C1347   1.416   .     A
C1345  N1414   1.432   .     S
C1346  C1351   1.416   .     A
C1346  C1348   1.417   .     A
C1347  C1352   1.424   .     A
C1347  C1350   1.424   .     A
C1348  C444    1.402   1_556 S
C1349  C1362   1.393   .     A
C1349  H1369   1.078   .     S
C1349  C1352   1.412   .     A
C1351  C1360   1.406   .     A
C1351  C434    1.409   1_556 S
C1353  H1410   1.111   .     S
C1353  H1370   1.111   .     S
C1353  H1409   1.110   .     S
C1353  N1414   1.448   .     S
C1354  N1415   1.450   .     S
C1354  H1372   1.110   .     S
C1354  H1373   1.107   .     S
C1354  H1374   1.111   .     S
C1355  N1416   1.446   .     S
C1355  H1379   1.112   .     S
C1355  H460    1.110   1_556 S
C1355  H361    1.111   1_556 S
C1356  H1385   1.112   .     S
C1356  N1417   1.447   .     S
C1356  H1384   1.111   .     S
C1357  H1387   1.112   .     S
C1357  H1388   1.110   .     S
C1357  H1389   1.108   .     S
C1357  N1418   1.446   .     S
C1358  H1394   1.111   .     S
C1358  N1419   1.446   .     S
C1358  H1393   1.108   .     S
C1358  H1392   1.112   .     S
C1359  N1420   1.449   .     S
C1359  H1398   1.110   .     S
C1359  H1396   1.111   .     S
C1359  H1397   1.111   .     S
C1360  C1363   1.387   .     A
C1360  H1380   1.079   .     S
C1361  H1400   1.110   .     S
C1361  H1401   1.106   .     S
C1361  N1412   1.445   .     S
C1361  H1403   1.111   .     S
C1362  H1406   1.083   .     S
C1363  H1407   1.083   .     S
C1363  C432    1.401   1_556 S
C1364  N1418   1.423   .     S
C1365  N1419   1.423   .     S
C1365  C1634   1.391   .     S
C1366  H1391   1.085   .     S
C1366  C1431   1.398   .     S
C1366  C1670   1.391   .     S
Cu1367 O1428   1.946   .     S
Cu1367 O1425   1.953   .     S
Cu1367 N1411   2.017   .     S
Cu1367 O1421   1.944   .     S
Cu1367 O1424   1.953   .     S
Cu1368 O1422   1.944   .     S
Cu1368 O1423   1.953   .     S
Cu1368 O1426   1.953   .     S
Cu1368 O1427   1.946   .     S
Cu1368 N1413   2.017   .     S
Cu1368 Cu1469  2.684   .     S
H1371  N1415   1.030   .     S
H1375  C1445   1.084   .     S
H1377  N1416   1.031   .     S
H1382  N1519   1.032   .     S
H1383  C1458   1.110   .     S
H1386  N1418   1.032   .     S
H1390  N1419   1.032   .     S
H1395  N1420   1.026   .     S
H1399  N1412   1.031   .     S
H1408  N1414   1.028   .     S
O1422  C1440   1.289   .     S
O1426  C1438   1.298   .     S
C1429  O1525   1.290   .     A
C1429  C1432   1.437   .     S
C1429  O1319   1.289   1_655 S
C1430  H1504   1.085   .     S
C1431  C1440   1.437   .     S
C1431  C1467   1.404   .     A
C1432  C1466   1.404   .     A
C1432  C1226   1.397   1_655 S
C1433  N1522   1.428   .     S
C1433  C1435   1.424   .     A
C1433  N1515   1.385   .     A
C1434  N1513   1.377   .     A
C1434  C1436   1.419   .     A
C1434  N1514   1.419   .     S
C1435  N1513   1.357   .     A
C1435  H1506   1.080   .     S
C1436  H1507   1.082   .     S
C1436  N1515   1.361   .     A
C1437  C1439   1.481   .     S
C1437  O1529   1.297   .     A
C1437  O1323   1.303   1_655 S
C1438  O1530   1.296   .     A
C1438  C1441   1.464   .     S
C1439  C1446   1.415   .     A
C1439  C1444   1.403   .     A
C1440  O1526   1.290   .     A
C1441  C1447   1.408   .     A
C1441  C1445   1.398   .     A
C1442  C1444   1.398   .     A
C1442  C1450   1.411   .     A
C1442  N1314   1.423   1_655 S
C1443  C1452   1.412   .     A
C1443  C1445   1.395   .     A
C1443  N1519   1.424   .     S
C1444  H1274   1.084   1_655 S
C1446  N1517   1.429   .     S
C1446  C1448   1.417   .     A
C1447  C1449   1.416   .     A
C1447  N1516   1.432   .     S
C1448  C1453   1.416   .     A
C1448  C1450   1.417   .     A
C1449  C1454   1.424   .     A
C1449  C1452   1.424   .     A
C1450  C546    1.402   1_556 S
C1451  C1464   1.393   .     A
C1451  H1471   1.078   .     S
C1451  C1454   1.412   .     A
C1453  C1462   1.406   .     A
C1453  C536    1.409   1_556 S
C1455  H1512   1.111   .     S
C1455  H1472   1.111   .     S
C1455  H1511   1.110   .     S
C1455  N1516   1.448   .     S
C1456  N1517   1.450   .     S
C1456  H1474   1.110   .     S
C1456  H1475   1.107   .     S
C1456  H1476   1.111   .     S
C1457  N1518   1.446   .     S
C1457  H1481   1.112   .     S
C1457  H562    1.110   1_556 S
C1457  H463    1.111   1_556 S
C1458  H1487   1.112   .     S
C1458  N1519   1.447   .     S
C1458  H1486   1.111   .     S
C1459  H1489   1.112   .     S
C1459  H1490   1.110   .     S
C1459  H1491   1.108   .     S
C1459  N1520   1.446   .     S
C1460  H1496   1.111   .     S
C1460  N1521   1.446   .     S
C1460  H1495   1.108   .     S
C1460  H1494   1.112   .     S
C1461  N1522   1.449   .     S
C1461  H1500   1.110   .     S
C1461  H1498   1.111   .     S
C1461  H1499   1.111   .     S
C1462  C1465   1.387   .     A
C1462  H1482   1.079   .     S
C1463  H1502   1.110   .     S
C1463  H1503   1.106   .     S
C1463  N1514   1.445   .     S
C1463  H1505   1.111   .     S
C1464  H1508   1.083   .     S
C1465  H1509   1.083   .     S
C1465  C534    1.401   1_556 S
C1466  N1520   1.423   .     S
C1467  N1521   1.423   .     S
C1467  C1736   1.391   .     S
C1468  H1493   1.085   .     S
C1468  C1227   1.398   1_655 S
C1468  C1772   1.391   .     S
Cu1469 O1530   1.946   .     S
Cu1469 O1527   1.953   .     S
Cu1469 N1513   2.017   .     S
Cu1469 O1523   1.944   .     S
Cu1469 O1526   1.953   .     S
Cu1470 O1524   1.944   .     S
Cu1470 O1525   1.953   .     S
Cu1470 O1528   1.953   .     S
Cu1470 O1529   1.946   .     S
Cu1470 N1515   2.017   .     S
Cu1470 Cu1265  2.684   1_655 S
H1473  N1517   1.030   .     S
H1477  C1241   1.084   1_655 S
H1479  N1518   1.031   .     S
H1483  C335    1.111   1_655 S
H1484  N1315   1.032   1_655 S
H1485  C1254   1.110   1_655 S
H1488  N1520   1.032   .     S
H1492  N1521   1.032   .     S
H1497  N1522   1.026   .     S
H1501  N1514   1.031   .     S
H1510  N1516   1.028   .     S
O1524  C1236   1.289   1_655 S
O1528  C1234   1.298   1_655 S
C1531  O1627   1.290   .     A
C1531  C1534   1.437   .     S
C1531  O1727   1.289   .     S
C1532  H1606   1.085   .     S
C1532  C1738   1.397   1_455 S
C1533  C1542   1.437   .     S
C1533  C1569   1.404   .     A
C1533  C1774   1.398   1_455 S
C1534  C1568   1.404   .     A
C1534  C1634   1.397   .     S
C1535  N1624   1.428   .     S
C1535  C1537   1.424   .     A
C1535  N1617   1.385   .     A
C1536  N1615   1.377   .     A
C1536  C1538   1.419   .     A
C1536  N1616   1.419   .     S
C1537  N1615   1.357   .     A
C1537  H1608   1.080   .     S
C1538  H1609   1.082   .     S
C1538  N1617   1.361   .     A
C1539  C1541   1.481   .     S
C1539  O1631   1.297   .     A
C1539  O1731   1.303   .     S
C1540  O1632   1.296   .     A
C1540  C1543   1.464   .     S
C1540  O1834   1.298   1_455 S
C1541  C1548   1.415   .     A
C1541  C1546   1.403   .     A
C1542  O1628   1.290   .     A
C1542  O1830   1.289   1_455 S
C1543  C1549   1.408   .     A
C1543  C1547   1.398   .     A
C1544  C1546   1.398   .     A
C1544  C1552   1.411   .     A
C1544  N1722   1.423   .     S
C1545  C1554   1.412   .     A
C1545  C1547   1.395   .     A
C1545  N1621   1.424   .     S
C1546  H1682   1.084   .     S
C1547  H1783   1.084   1_455 S
C1548  N1619   1.429   .     S
C1548  C1550   1.417   .     A
C1549  C1551   1.416   .     A
C1549  N1618   1.432   .     S
C1550  C1555   1.416   .     A
C1550  C1552   1.417   .     A
C1551  C1556   1.424   .     A
C1551  C1554   1.424   .     A
C1552  C648    1.402   1_556 S
C1553  C1566   1.393   .     A
C1553  H1573   1.078   .     S
C1553  C1556   1.412   .     A
C1555  C1564   1.406   .     A
C1555  C638    1.409   1_556 S
C1557  H1614   1.111   .     S
C1557  H1574   1.111   .     S
C1557  H1613   1.110   .     S
C1557  N1618   1.448   .     S
C1558  N1619   1.450   .     S
C1558  H1576   1.110   .     S
C1558  H1577   1.107   .     S
C1558  H1578   1.111   .     S
C1559  N1620   1.446   .     S
C1559  H1583   1.112   .     S
C1559  H664    1.110   1_556 S
C1559  H871    1.111   1_456 S
C1560  H1589   1.112   .     S
C1560  N1621   1.447   .     S
C1560  H1588   1.111   .     S
C1560  H1791   1.110   1_455 S
C1561  H1591   1.112   .     S
C1561  H1592   1.110   .     S
C1561  H1593   1.108   .     S
C1561  N1622   1.446   .     S
C1562  H1598   1.111   .     S
C1562  N1623   1.446   .     S
C1562  H1597   1.108   .     S
C1562  H1596   1.112   .     S
C1563  N1624   1.449   .     S
C1563  H1602   1.110   .     S
C1563  H1600   1.111   .     S
C1563  H1601   1.111   .     S
C1564  C1567   1.387   .     A
C1564  H1584   1.079   .     S
C1565  H1604   1.110   .     S
C1565  H1605   1.106   .     S
C1565  N1616   1.445   .     S
C1565  H1607   1.111   .     S
C1566  H1610   1.083   .     S
C1567  H1611   1.083   .     S
C1567  C636    1.401   1_556 S
C1568  N1622   1.423   .     S
C1569  N1623   1.423   .     S
C1569  C920    1.391   1_565 S
C1570  H1595   1.085   .     S
C1570  C1635   1.398   .     S
C1570  C956    1.391   1_565 S
Cu1571 O1632   1.946   .     S
Cu1571 O1629   1.953   .     S
Cu1571 N1615   2.017   .     S
Cu1571 O1625   1.944   .     S
Cu1571 O1628   1.953   .     S
Cu1571 Cu1776  2.684   1_455 S
Cu1572 O1626   1.944   .     S
Cu1572 O1627   1.953   .     S
Cu1572 O1630   1.953   .     S
Cu1572 O1631   1.946   .     S
Cu1572 N1617   2.017   .     S
Cu1572 Cu1673  2.684   .     S
H1575  N1619   1.030   .     S
H1579  C1649   1.084   .     S
H1580  C1750   1.084   1_455 S
H1581  N1620   1.031   .     S
H1586  N1723   1.032   .     S
H1587  C1662   1.110   .     S
H1590  N1622   1.032   .     S
H1594  N1623   1.032   .     S
H1599  N1624   1.026   .     S
H1603  N1616   1.031   .     S
H1612  N1618   1.028   .     S
N1620  C1748   1.423   1_455 S
N1621  H1790   1.032   1_455 S
O1625  C1735   1.289   1_455 S
O1626  C1644   1.289   .     S
O1629  C1743   1.303   1_455 S
O1630  C1642   1.298   .     S
C1633  O1729   1.290   .     A
C1633  C1636   1.437   .     S
C1633  O1829   1.289   .     S
C1634  H1708   1.085   .     S
C1635  C1644   1.437   .     S
C1635  C1671   1.404   .     A
C1636  C1670   1.404   .     A
C1636  C1736   1.397   .     S
C1637  N1726   1.428   .     S
C1637  C1639   1.424   .     A
C1637  N1719   1.385   .     A
C1638  N1717   1.377   .     A
C1638  C1640   1.419   .     A
C1638  N1718   1.419   .     S
C1639  N1717   1.357   .     A
C1639  H1710   1.080   .     S
C1640  H1711   1.082   .     S
C1640  N1719   1.361   .     A
C1641  C1643   1.481   .     S
C1641  O1733   1.297   .     A
C1641  O1833   1.303   .     S
C1642  O1734   1.296   .     A
C1642  C1645   1.464   .     S
C1643  C1650   1.415   .     A
C1643  C1648   1.403   .     A
C1644  O1730   1.290   .     A
C1645  C1651   1.408   .     A
C1645  C1649   1.398   .     A
C1646  C1648   1.398   .     A
C1646  C1654   1.411   .     A
C1646  N1824   1.423   .     S
C1647  C1656   1.412   .     A
C1647  C1649   1.395   .     A
C1647  N1723   1.424   .     S
C1648  H1784   1.084   .     S
C1650  N1721   1.429   .     S
C1650  C1652   1.417   .     A
C1651  C1653   1.416   .     A
C1651  N1720   1.432   .     S
C1652  C1657   1.416   .     A
C1652  C1654   1.417   .     A
C1653  C1658   1.424   .     A
C1653  C1656   1.424   .     A
C1654  C750    1.402   1_556 S
C1655  C1668   1.393   .     A
C1655  H1675   1.078   .     S
C1655  C1658   1.412   .     A
C1657  C1666   1.406   .     A
C1657  C740    1.409   1_556 S
C1659  H1716   1.111   .     S
C1659  H1676   1.111   .     S
C1659  H1715   1.110   .     S
C1659  N1720   1.448   .     S
C1660  N1721   1.450   .     S
C1660  H1678   1.110   .     S
C1660  H1679   1.107   .     S
C1660  H1680   1.111   .     S
C1661  N1722   1.446   .     S
C1661  H1685   1.112   .     S
C1661  H766    1.110   1_556 S
C1661  H667    1.111   1_556 S
C1662  H1691   1.112   .     S
C1662  N1723   1.447   .     S
C1662  H1690   1.111   .     S
C1663  H1693   1.112   .     S
C1663  H1694   1.110   .     S
C1663  H1695   1.108   .     S
C1663  N1724   1.446   .     S
C1664  H1700   1.111   .     S
C1664  N1725   1.446   .     S
C1664  H1699   1.108   .     S
C1664  H1698   1.112   .     S
C1665  N1726   1.449   .     S
C1665  H1704   1.110   .     S
C1665  H1702   1.111   .     S
C1665  H1703   1.111   .     S
C1666  C1669   1.387   .     A
C1666  H1686   1.079   .     S
C1667  H1706   1.110   .     S
C1667  H1707   1.106   .     S
C1667  N1718   1.445   .     S
C1667  H1709   1.111   .     S
C1668  H1712   1.083   .     S
C1669  H1713   1.083   .     S
C1669  C738    1.401   1_556 S
C1670  N1724   1.423   .     S
C1671  N1725   1.423   .     S
C1671  C1022   1.391   1_565 S
C1672  H1697   1.085   .     S
C1672  C1737   1.398   .     S
C1672  C1058   1.391   1_565 S
Cu1673 O1734   1.946   .     S
Cu1673 O1731   1.953   .     S
Cu1673 N1717   2.017   .     S
Cu1673 O1727   1.944   .     S
Cu1673 O1730   1.953   .     S
Cu1674 O1728   1.944   .     S
Cu1674 O1729   1.953   .     S
Cu1674 O1732   1.953   .     S
Cu1674 O1733   1.946   .     S
Cu1674 N1719   2.017   .     S
Cu1674 Cu1775  2.684   .     S
H1677  N1721   1.030   .     S
H1681  C1751   1.084   .     S
H1683  N1722   1.031   .     S
H1688  N1825   1.032   .     S
H1689  C1764   1.110   .     S
H1692  N1724   1.032   .     S
H1696  N1725   1.032   .     S
H1701  N1726   1.026   .     S
H1705  N1718   1.031   .     S
H1714  N1720   1.028   .     S
O1728  C1746   1.289   .     S
O1732  C1744   1.298   .     S
C1735  O1831   1.290   .     A
C1735  C1738   1.437   .     S
C1735  O1625   1.289   1_655 S
C1736  H1810   1.085   .     S
C1737  C1746   1.437   .     S
C1737  C1773   1.404   .     A
C1738  C1772   1.404   .     A
C1738  C1532   1.397   1_655 S
C1739  N1828   1.428   .     S
C1739  C1741   1.424   .     A
C1739  N1821   1.385   .     A
C1740  N1819   1.377   .     A
C1740  C1742   1.419   .     A
C1740  N1820   1.419   .     S
C1741  N1819   1.357   .     A
C1741  H1812   1.080   .     S
C1742  H1813   1.082   .     S
C1742  N1821   1.361   .     A
C1743  C1745   1.481   .     S
C1743  O1835   1.297   .     A
C1743  O1629   1.303   1_655 S
C1744  O1836   1.296   .     A
C1744  C1747   1.464   .     S
C1745  C1752   1.415   .     A
C1745  C1750   1.403   .     A
C1746  O1832   1.290   .     A
C1747  C1753   1.408   .     A
C1747  C1751   1.398   .     A
C1748  C1750   1.398   .     A
C1748  C1756   1.411   .     A
C1748  N1620   1.423   1_655 S
C1749  C1758   1.412   .     A
C1749  C1751   1.395   .     A
C1749  N1825   1.424   .     S
C1750  H1580   1.084   1_655 S
C1752  N1823   1.429   .     S
C1752  C1754   1.417   .     A
C1753  C1755   1.416   .     A
C1753  N1822   1.432   .     S
C1754  C1759   1.416   .     A
C1754  C1756   1.417   .     A
C1755  C1760   1.424   .     A
C1755  C1758   1.424   .     A
C1756  C852    1.402   1_556 S
C1757  C1770   1.393   .     A
C1757  H1777   1.078   .     S
C1757  C1760   1.412   .     A
C1759  C1768   1.406   .     A
C1759  C842    1.409   1_556 S
C1761  H1818   1.111   .     S
C1761  H1778   1.111   .     S
C1761  H1817   1.110   .     S
C1761  N1822   1.448   .     S
C1762  N1823   1.450   .     S
C1762  H1780   1.110   .     S
C1762  H1781   1.107   .     S
C1762  H1782   1.111   .     S
C1763  N1824   1.446   .     S
C1763  H1787   1.112   .     S
C1763  H868    1.110   1_556 S
C1763  H769    1.111   1_556 S
C1764  H1793   1.112   .     S
C1764  N1825   1.447   .     S
C1764  H1792   1.111   .     S
C1765  H1795   1.112   .     S
C1765  H1796   1.110   .     S
C1765  H1797   1.108   .     S
C1765  N1826   1.446   .     S
C1766  H1802   1.111   .     S
C1766  N1827   1.446   .     S
C1766  H1801   1.108   .     S
C1766  H1800   1.112   .     S
C1767  N1828   1.449   .     S
C1767  H1806   1.110   .     S
C1767  H1804   1.111   .     S
C1767  H1805   1.111   .     S
C1768  C1771   1.387   .     A
C1768  H1788   1.079   .     S
C1769  H1808   1.110   .     S
C1769  H1809   1.106   .     S
C1769  N1820   1.445   .     S
C1769  H1811   1.111   .     S
C1770  H1814   1.083   .     S
C1771  H1815   1.083   .     S
C1771  C840    1.401   1_556 S
C1772  N1826   1.423   .     S
C1773  N1827   1.423   .     S
C1773  C1124   1.391   1_565 S
C1774  H1799   1.085   .     S
C1774  C1533   1.398   1_655 S
C1774  C1160   1.391   1_565 S
Cu1775 O1836   1.946   .     S
Cu1775 O1833   1.953   .     S
Cu1775 N1819   2.017   .     S
Cu1775 O1829   1.944   .     S
Cu1775 O1832   1.953   .     S
Cu1776 O1830   1.944   .     S
Cu1776 O1831   1.953   .     S
Cu1776 O1834   1.953   .     S
Cu1776 O1835   1.946   .     S
Cu1776 N1821   2.017   .     S
Cu1776 Cu1571  2.684   1_655 S
H1779  N1823   1.030   .     S
H1783  C1547   1.084   1_655 S
H1785  N1824   1.031   .     S
H1789  C641    1.111   1_655 S
H1790  N1621   1.032   1_655 S
H1791  C1560   1.110   1_655 S
H1794  N1826   1.032   .     S
H1798  N1827   1.032   .     S
H1803  N1828   1.026   .     S
H1807  N1820   1.031   .     S
H1816  N1822   1.028   .     S
O1830  C1542   1.289   1_655 S
O1834  C1540   1.298   1_655 S
