data_str_m2_o1_o1_pcu_sym.72
_audit_creation_date              2020-01-03
_audit_creation_method            'Materials Studio'
_symmetry_space_group_name_H-M    'P1'
_symmetry_Int_Tables_number       1
_symmetry_cell_setting            triclinic
loop_
_symmetry_equiv_pos_as_xyz
  x,y,z
_cell_length_a                    32.0585
_cell_length_b                    29.9757
_cell_length_c                    28.6714
_cell_angle_alpha                 89.9975
_cell_angle_beta                  89.9994
_cell_angle_gamma                 89.9998
loop_
_atom_site_label
_atom_site_type_symbol
_atom_site_fract_x
_atom_site_fract_y
_atom_site_fract_z
_atom_site_U_iso_or_equiv
_atom_site_adp_type
_atom_site_occupancy
O1     O     0.04509   0.20491   0.20625   0.00000  Uiso   1.00
O2     O     0.45492   0.29509   0.12709   0.00000  Uiso   1.00
O3     O     0.45492   0.29509   0.20625   0.00000  Uiso   1.00
O4     O     0.04509   0.20491   0.12709   0.00000  Uiso   1.00
O5     O     0.45492   0.20491   0.12709   0.00000  Uiso   1.00
O6     O     0.04509   0.29509   0.20625   0.00000  Uiso   1.00
O7     O     0.04509   0.29509   0.12709   0.00000  Uiso   1.00
O8     O     0.45492   0.20491   0.20625   0.00000  Uiso   1.00
O9     O     0.29509   0.45491   0.20625   0.00000  Uiso   1.00
O10    O     0.20492   0.04509   0.12709   0.00000  Uiso   1.00
O11    O     0.20492   0.04509   0.20625   0.00000  Uiso   1.00
O12    O     0.29509   0.45491   0.12709   0.00000  Uiso   1.00
O13    O     0.20492   0.45491   0.12709   0.00000  Uiso   1.00
O14    O     0.29509   0.04509   0.20625   0.00000  Uiso   1.00
O15    O     0.29509   0.04509   0.12709   0.00000  Uiso   1.00
O16    O     0.20492   0.45491   0.20625   0.00000  Uiso   1.00
C17    C     0.06084   0.19206   0.16692   0.00000  Uiso   1.00
C18    C     0.43917   0.30794   0.16692   0.00000  Uiso   1.00
C19    C     0.43916   0.19206   0.16642   0.00000  Uiso   1.00
C20    C     0.06084   0.30793   0.16642   0.00000  Uiso   1.00
C21    C     0.31084   0.44206   0.16692   0.00000  Uiso   1.00
C22    C     0.18916   0.05794   0.16692   0.00000  Uiso   1.00
C23    C     0.18917   0.44206   0.16642   0.00000  Uiso   1.00
C24    C     0.31084   0.05794   0.16642   0.00000  Uiso   1.00
N25    N     0.00000   0.25000   0.28402   0.00000  Uiso   1.00
N26    N     0.00000   0.25000   0.04931   0.00000  Uiso   1.00
N27    N     0.25000  -0.00000   0.28402   0.00000  Uiso   1.00
N28    N     0.25000  -0.00000   0.04931   0.00000  Uiso   1.00
Cu29   Cu    0.00000   0.25000   0.21355   0.00000  Uiso   1.00
Cu30   Cu    0.00000   0.25000   0.11978   0.00000  Uiso   1.00
Cu31   Cu    0.25000  -0.00000   0.21355   0.00000  Uiso   1.00
Cu32   Cu    0.25000  -0.00000   0.11978   0.00000  Uiso   1.00
C33    C     0.00018   0.21067   0.02506   0.00000  Uiso   1.00
C34    C     0.00019   0.28933   0.30827   0.00000  Uiso   1.00
C35    C     0.49982   0.28933   0.02506   0.00000  Uiso   1.00
C36    C     0.49982   0.21067   0.30828   0.00000  Uiso   1.00
C37    C     0.25018   0.46067   0.02506   0.00000  Uiso   1.00
C38    C     0.25018   0.03933   0.30827   0.00000  Uiso   1.00
C39    C     0.24982   0.03933   0.02506   0.00000  Uiso   1.00
C40    C     0.24983   0.46067   0.30828   0.00000  Uiso   1.00
C41    C     0.39075   0.14101   0.12258   0.00000  Uiso   1.00
C42    C     0.11523   0.35393   0.20699   0.00000  Uiso   1.00
C43    C     0.10925   0.35899   0.12258   0.00000  Uiso   1.00
C44    C     0.38480   0.14603   0.20699   0.00000  Uiso   1.00
C45    C     0.10924   0.14099   0.21075   0.00000  Uiso   1.00
C46    C     0.38480   0.35397   0.12634   0.00000  Uiso   1.00
C47    C     0.39076   0.35900   0.21075   0.00000  Uiso   1.00
C48    C     0.11521   0.14605   0.12634   0.00000  Uiso   1.00
C49    C     0.14075   0.39101   0.12258   0.00000  Uiso   1.00
C50    C     0.36520   0.10397   0.20699   0.00000  Uiso   1.00
C51    C     0.35925   0.10900   0.12258   0.00000  Uiso   1.00
C52    C     0.13483   0.39600   0.20700   0.00000  Uiso   1.00
C53    C     0.35925   0.39101   0.21076   0.00000  Uiso   1.00
C54    C     0.13481   0.10398   0.12634   0.00000  Uiso   1.00
C55    C     0.14074   0.10898   0.21076   0.00000  Uiso   1.00
C56    C     0.36520   0.39604   0.12634   0.00000  Uiso   1.00
C57    C     0.09601   0.33981   0.16520   0.00000  Uiso   1.00
C58    C     0.40401   0.16017   0.16520   0.00000  Uiso   1.00
C59    C     0.40401   0.33983   0.16814   0.00000  Uiso   1.00
C60    C     0.09599   0.16017   0.16814   0.00000  Uiso   1.00
C61    C     0.34599   0.08983   0.16519   0.00000  Uiso   1.00
C62    C     0.15402   0.41016   0.16520   0.00000  Uiso   1.00
C63    C     0.15401   0.08983   0.16814   0.00000  Uiso   1.00
C64    C     0.34600   0.41018   0.16814   0.00000  Uiso   1.00
O65    O     0.49765   0.17133   0.05003   0.00000  Uiso   1.00
C66    C     0.03422   0.14576   0.04453   0.00000  Uiso   1.00
H67    H     0.04232   0.13123   0.07884   0.00000  Uiso   1.00
H68    H     0.06145   0.16501   0.03135   0.00000  Uiso   1.00
H69    H     0.02841   0.11707   0.02124   0.00000  Uiso   1.00
O70    O     0.49767   0.32867   0.28330   0.00000  Uiso   1.00
C71    C     0.03424   0.35423   0.28880   0.00000  Uiso   1.00
H72    H     0.04234   0.36877   0.25450   0.00000  Uiso   1.00
H73    H     0.06147   0.33498   0.30197   0.00000  Uiso   1.00
H74    H     0.02844   0.38291   0.31211   0.00000  Uiso   1.00
O75    O     0.00236   0.32867   0.05003   0.00000  Uiso   1.00
C76    C     0.46580   0.35425   0.04453   0.00000  Uiso   1.00
H77    H     0.45770   0.36878   0.07883   0.00000  Uiso   1.00
H78    H     0.43857   0.33501   0.03134   0.00000  Uiso   1.00
H79    H     0.47161   0.38293   0.02123   0.00000  Uiso   1.00
O80    O     0.00235   0.17133   0.28331   0.00000  Uiso   1.00
C81    C     0.46579   0.14576   0.28881   0.00000  Uiso   1.00
H82    H     0.45769   0.13123   0.25450   0.00000  Uiso   1.00
H83    H     0.43856   0.16500   0.30199   0.00000  Uiso   1.00
H84    H     0.47159   0.11707   0.31210   0.00000  Uiso   1.00
O85    O     0.24765   0.42133   0.05003   0.00000  Uiso   1.00
C86    C     0.28421   0.39576   0.04455   0.00000  Uiso   1.00
H87    H     0.29231   0.38123   0.07886   0.00000  Uiso   1.00
H88    H     0.31144   0.41500   0.03137   0.00000  Uiso   1.00
H89    H     0.27842   0.36707   0.02126   0.00000  Uiso   1.00
O90    O     0.24764   0.07867   0.28330   0.00000  Uiso   1.00
C91    C     0.28420   0.10424   0.28879   0.00000  Uiso   1.00
H92    H     0.29230   0.11877   0.25447   0.00000  Uiso   1.00
H93    H     0.31143   0.08500   0.30197   0.00000  Uiso   1.00
H94    H     0.27840   0.13294   0.31208   0.00000  Uiso   1.00
O95    O     0.25237   0.07867   0.05002   0.00000  Uiso   1.00
C96    C     0.21581   0.10425   0.04454   0.00000  Uiso   1.00
H97    H     0.20772   0.11878   0.07885   0.00000  Uiso   1.00
H98    H     0.18857   0.08500   0.03137   0.00000  Uiso   1.00
H99    H     0.22161   0.13293   0.02124   0.00000  Uiso   1.00
O100   O     0.25239   0.42133   0.28331   0.00000  Uiso   1.00
C101   C     0.21583   0.39575   0.28879   0.00000  Uiso   1.00
H102   H     0.20774   0.38122   0.25447   0.00000  Uiso   1.00
H103   H     0.18859   0.41498   0.30197   0.00000  Uiso   1.00
H104   H     0.22164   0.36705   0.31208   0.00000  Uiso   1.00
N105   N     0.40804   0.15385   0.07849   0.00000  Uiso   1.00
O106   O     0.39761   0.19194   0.06010   0.00000  Uiso   1.00
O107   O     0.42431   0.12326   0.05199   0.00000  Uiso   1.00
N108   N     0.12267   0.32256   0.24446   0.00000  Uiso   1.00
O109   O     0.12172   0.27994   0.23585   0.00000  Uiso   1.00
O110   O     0.14055   0.33527   0.28293   0.00000  Uiso   1.00
N111   N     0.09194   0.34618   0.07849   0.00000  Uiso   1.00
O112   O     0.10236   0.30811   0.06007   0.00000  Uiso   1.00
O113   O     0.07565   0.37679   0.05202   0.00000  Uiso   1.00
N114   N     0.37734   0.17741   0.24445   0.00000  Uiso   1.00
O115   O     0.35958   0.16467   0.28298   0.00000  Uiso   1.00
O116   O     0.37818   0.22002   0.23581   0.00000  Uiso   1.00
N117   N     0.09192   0.15380   0.25484   0.00000  Uiso   1.00
O118   O     0.10235   0.19187   0.27327   0.00000  Uiso   1.00
O119   O     0.07563   0.12319   0.28131   0.00000  Uiso   1.00
N120   N     0.37734   0.32260   0.08888   0.00000  Uiso   1.00
O121   O     0.35959   0.33534   0.05035   0.00000  Uiso   1.00
O122   O     0.37817   0.27999   0.09752   0.00000  Uiso   1.00
N123   N     0.40805   0.34616   0.25484   0.00000  Uiso   1.00
O124   O     0.39762   0.30808   0.27324   0.00000  Uiso   1.00
O125   O     0.42433   0.37675   0.28134   0.00000  Uiso   1.00
N126   N     0.12267   0.17742   0.08888   0.00000  Uiso   1.00
O127   O     0.12176   0.22004   0.09750   0.00000  Uiso   1.00
O128   O     0.14047   0.16470   0.05038   0.00000  Uiso   1.00
N129   N     0.15803   0.40387   0.07848   0.00000  Uiso   1.00
O130   O     0.14759   0.44196   0.06012   0.00000  Uiso   1.00
O131   O     0.17428   0.37329   0.05195   0.00000  Uiso   1.00
N132   N     0.37266   0.07259   0.24445   0.00000  Uiso   1.00
O133   O     0.39041   0.08533   0.28298   0.00000  Uiso   1.00
O134   O     0.37183   0.02998   0.23580   0.00000  Uiso   1.00
N135   N     0.34196   0.09616   0.07849   0.00000  Uiso   1.00
O136   O     0.35239   0.05807   0.06010   0.00000  Uiso   1.00
O137   O     0.32569   0.12675   0.05198   0.00000  Uiso   1.00
N138   N     0.12737   0.42736   0.24447   0.00000  Uiso   1.00
O139   O     0.10964   0.41460   0.28301   0.00000  Uiso   1.00
O140   O     0.12817   0.46997   0.23583   0.00000  Uiso   1.00
N141   N     0.34197   0.40386   0.25485   0.00000  Uiso   1.00
O142   O     0.35240   0.44194   0.27323   0.00000  Uiso   1.00
O143   O     0.32571   0.37327   0.28137   0.00000  Uiso   1.00
N144   N     0.12735   0.07262   0.08887   0.00000  Uiso   1.00
O145   O     0.10961   0.08537   0.05035   0.00000  Uiso   1.00
O146   O     0.12817   0.03000   0.09751   0.00000  Uiso   1.00
N147   N     0.15801   0.09611   0.25485   0.00000  Uiso   1.00
O148   O     0.14758   0.05802   0.27321   0.00000  Uiso   1.00
O149   O     0.17426   0.12669   0.28138   0.00000  Uiso   1.00
N150   N     0.37267   0.42742   0.08888   0.00000  Uiso   1.00
O151   O     0.39043   0.41468   0.05036   0.00000  Uiso   1.00
O152   O     0.37183   0.47002   0.09753   0.00000  Uiso   1.00
O153   O     0.54509   0.20491   0.20625   0.00000  Uiso   1.00
O154   O     0.95492   0.29509   0.12709   0.00000  Uiso   1.00
O155   O     0.95492   0.29509   0.20625   0.00000  Uiso   1.00
O156   O     0.54509   0.20491   0.12709   0.00000  Uiso   1.00
O157   O     0.95492   0.20491   0.12709   0.00000  Uiso   1.00
O158   O     0.54509   0.29509   0.20625   0.00000  Uiso   1.00
O159   O     0.54509   0.29509   0.12709   0.00000  Uiso   1.00
O160   O     0.95492   0.20491   0.20625   0.00000  Uiso   1.00
O161   O     0.79509   0.45491   0.20625   0.00000  Uiso   1.00
O162   O     0.70492   0.04509   0.12709   0.00000  Uiso   1.00
O163   O     0.70492   0.04509   0.20625   0.00000  Uiso   1.00
O164   O     0.79509   0.45491   0.12709   0.00000  Uiso   1.00
O165   O     0.70492   0.45491   0.12709   0.00000  Uiso   1.00
O166   O     0.79509   0.04509   0.20625   0.00000  Uiso   1.00
O167   O     0.79509   0.04509   0.12709   0.00000  Uiso   1.00
O168   O     0.70492   0.45491   0.20625   0.00000  Uiso   1.00
C169   C     0.56084   0.19206   0.16692   0.00000  Uiso   1.00
C170   C     0.93917   0.30794   0.16692   0.00000  Uiso   1.00
C171   C     0.93916   0.19206   0.16642   0.00000  Uiso   1.00
C172   C     0.56084   0.30793   0.16642   0.00000  Uiso   1.00
C173   C     0.81084   0.44206   0.16692   0.00000  Uiso   1.00
C174   C     0.68916   0.05794   0.16692   0.00000  Uiso   1.00
C175   C     0.68917   0.44206   0.16642   0.00000  Uiso   1.00
C176   C     0.81084   0.05794   0.16642   0.00000  Uiso   1.00
N177   N     0.50000   0.25000   0.28402   0.00000  Uiso   1.00
N178   N     0.50000   0.25000   0.04931   0.00000  Uiso   1.00
N179   N     0.75000  -0.00000   0.28402   0.00000  Uiso   1.00
N180   N     0.75000  -0.00000   0.04931   0.00000  Uiso   1.00
Cu181  Cu    0.50000   0.25000   0.21355   0.00000  Uiso   1.00
Cu182  Cu    0.50000   0.25000   0.11978   0.00000  Uiso   1.00
Cu183  Cu    0.75000  -0.00000   0.21355   0.00000  Uiso   1.00
Cu184  Cu    0.75000  -0.00000   0.11978   0.00000  Uiso   1.00
C185   C     0.50018   0.21067   0.02506   0.00000  Uiso   1.00
C186   C     0.50019   0.28933   0.30827   0.00000  Uiso   1.00
C187   C     0.99982   0.28933   0.02506   0.00000  Uiso   1.00
C188   C     0.99982   0.21067   0.30828   0.00000  Uiso   1.00
C189   C     0.75018   0.46067   0.02506   0.00000  Uiso   1.00
C190   C     0.75018   0.03933   0.30827   0.00000  Uiso   1.00
C191   C     0.74982   0.03933   0.02506   0.00000  Uiso   1.00
C192   C     0.74983   0.46067   0.30828   0.00000  Uiso   1.00
C193   C     0.89075   0.14101   0.12258   0.00000  Uiso   1.00
C194   C     0.61523   0.35393   0.20699   0.00000  Uiso   1.00
C195   C     0.60925   0.35899   0.12258   0.00000  Uiso   1.00
C196   C     0.88480   0.14603   0.20699   0.00000  Uiso   1.00
C197   C     0.60924   0.14099   0.21075   0.00000  Uiso   1.00
C198   C     0.88480   0.35397   0.12634   0.00000  Uiso   1.00
C199   C     0.89076   0.35900   0.21075   0.00000  Uiso   1.00
C200   C     0.61521   0.14605   0.12634   0.00000  Uiso   1.00
C201   C     0.64075   0.39101   0.12258   0.00000  Uiso   1.00
C202   C     0.86520   0.10397   0.20699   0.00000  Uiso   1.00
C203   C     0.85925   0.10900   0.12258   0.00000  Uiso   1.00
C204   C     0.63483   0.39600   0.20700   0.00000  Uiso   1.00
C205   C     0.85925   0.39101   0.21076   0.00000  Uiso   1.00
C206   C     0.63481   0.10398   0.12634   0.00000  Uiso   1.00
C207   C     0.64074   0.10898   0.21076   0.00000  Uiso   1.00
C208   C     0.86520   0.39604   0.12634   0.00000  Uiso   1.00
C209   C     0.59601   0.33981   0.16520   0.00000  Uiso   1.00
C210   C     0.90401   0.16017   0.16520   0.00000  Uiso   1.00
C211   C     0.90401   0.33983   0.16814   0.00000  Uiso   1.00
C212   C     0.59599   0.16017   0.16814   0.00000  Uiso   1.00
C213   C     0.84599   0.08983   0.16519   0.00000  Uiso   1.00
C214   C     0.65402   0.41016   0.16520   0.00000  Uiso   1.00
C215   C     0.65401   0.08983   0.16814   0.00000  Uiso   1.00
C216   C     0.84600   0.41018   0.16814   0.00000  Uiso   1.00
O217   O     0.99765   0.17133   0.05003   0.00000  Uiso   1.00
C218   C     0.53422   0.14576   0.04453   0.00000  Uiso   1.00
H219   H     0.54232   0.13123   0.07884   0.00000  Uiso   1.00
H220   H     0.56145   0.16501   0.03135   0.00000  Uiso   1.00
H221   H     0.52841   0.11707   0.02124   0.00000  Uiso   1.00
O222   O     0.99767   0.32867   0.28330   0.00000  Uiso   1.00
C223   C     0.53424   0.35423   0.28880   0.00000  Uiso   1.00
H224   H     0.54234   0.36877   0.25450   0.00000  Uiso   1.00
H225   H     0.56147   0.33498   0.30197   0.00000  Uiso   1.00
H226   H     0.52844   0.38291   0.31211   0.00000  Uiso   1.00
O227   O     0.50236   0.32867   0.05003   0.00000  Uiso   1.00
C228   C     0.96580   0.35425   0.04453   0.00000  Uiso   1.00
H229   H     0.95770   0.36878   0.07883   0.00000  Uiso   1.00
H230   H     0.93857   0.33501   0.03134   0.00000  Uiso   1.00
H231   H     0.97161   0.38293   0.02123   0.00000  Uiso   1.00
O232   O     0.50235   0.17133   0.28331   0.00000  Uiso   1.00
C233   C     0.96579   0.14576   0.28881   0.00000  Uiso   1.00
H234   H     0.95769   0.13123   0.25450   0.00000  Uiso   1.00
H235   H     0.93856   0.16500   0.30199   0.00000  Uiso   1.00
H236   H     0.97159   0.11707   0.31210   0.00000  Uiso   1.00
O237   O     0.74765   0.42133   0.05003   0.00000  Uiso   1.00
C238   C     0.78421   0.39576   0.04455   0.00000  Uiso   1.00
H239   H     0.79231   0.38123   0.07886   0.00000  Uiso   1.00
H240   H     0.81144   0.41500   0.03137   0.00000  Uiso   1.00
H241   H     0.77842   0.36707   0.02126   0.00000  Uiso   1.00
O242   O     0.74764   0.07867   0.28330   0.00000  Uiso   1.00
C243   C     0.78420   0.10424   0.28879   0.00000  Uiso   1.00
H244   H     0.79230   0.11877   0.25447   0.00000  Uiso   1.00
H245   H     0.81143   0.08500   0.30197   0.00000  Uiso   1.00
H246   H     0.77840   0.13294   0.31208   0.00000  Uiso   1.00
O247   O     0.75237   0.07867   0.05002   0.00000  Uiso   1.00
C248   C     0.71581   0.10425   0.04454   0.00000  Uiso   1.00
H249   H     0.70772   0.11878   0.07885   0.00000  Uiso   1.00
H250   H     0.68857   0.08500   0.03137   0.00000  Uiso   1.00
H251   H     0.72161   0.13293   0.02124   0.00000  Uiso   1.00
O252   O     0.75239   0.42133   0.28331   0.00000  Uiso   1.00
C253   C     0.71583   0.39575   0.28879   0.00000  Uiso   1.00
H254   H     0.70774   0.38122   0.25447   0.00000  Uiso   1.00
H255   H     0.68859   0.41498   0.30197   0.00000  Uiso   1.00
H256   H     0.72164   0.36705   0.31208   0.00000  Uiso   1.00
N257   N     0.90804   0.15385   0.07849   0.00000  Uiso   1.00
O258   O     0.89761   0.19194   0.06010   0.00000  Uiso   1.00
O259   O     0.92431   0.12326   0.05199   0.00000  Uiso   1.00
N260   N     0.62267   0.32256   0.24446   0.00000  Uiso   1.00
O261   O     0.62172   0.27994   0.23585   0.00000  Uiso   1.00
O262   O     0.64055   0.33527   0.28293   0.00000  Uiso   1.00
N263   N     0.59194   0.34618   0.07849   0.00000  Uiso   1.00
O264   O     0.60236   0.30811   0.06007   0.00000  Uiso   1.00
O265   O     0.57565   0.37679   0.05202   0.00000  Uiso   1.00
N266   N     0.87734   0.17741   0.24445   0.00000  Uiso   1.00
O267   O     0.85958   0.16467   0.28298   0.00000  Uiso   1.00
O268   O     0.87818   0.22002   0.23581   0.00000  Uiso   1.00
N269   N     0.59192   0.15380   0.25484   0.00000  Uiso   1.00
O270   O     0.60235   0.19187   0.27327   0.00000  Uiso   1.00
O271   O     0.57563   0.12319   0.28131   0.00000  Uiso   1.00
N272   N     0.87734   0.32260   0.08888   0.00000  Uiso   1.00
O273   O     0.85959   0.33534   0.05035   0.00000  Uiso   1.00
O274   O     0.87817   0.27999   0.09752   0.00000  Uiso   1.00
N275   N     0.90805   0.34616   0.25484   0.00000  Uiso   1.00
O276   O     0.89762   0.30808   0.27324   0.00000  Uiso   1.00
O277   O     0.92433   0.37675   0.28134   0.00000  Uiso   1.00
N278   N     0.62267   0.17742   0.08888   0.00000  Uiso   1.00
O279   O     0.62176   0.22004   0.09750   0.00000  Uiso   1.00
O280   O     0.64047   0.16470   0.05038   0.00000  Uiso   1.00
N281   N     0.65803   0.40387   0.07848   0.00000  Uiso   1.00
O282   O     0.64759   0.44196   0.06012   0.00000  Uiso   1.00
O283   O     0.67428   0.37329   0.05195   0.00000  Uiso   1.00
N284   N     0.87266   0.07259   0.24445   0.00000  Uiso   1.00
O285   O     0.89041   0.08533   0.28298   0.00000  Uiso   1.00
O286   O     0.87183   0.02998   0.23580   0.00000  Uiso   1.00
N287   N     0.84196   0.09616   0.07849   0.00000  Uiso   1.00
O288   O     0.85239   0.05807   0.06010   0.00000  Uiso   1.00
O289   O     0.82569   0.12675   0.05198   0.00000  Uiso   1.00
N290   N     0.62737   0.42736   0.24447   0.00000  Uiso   1.00
O291   O     0.60964   0.41460   0.28301   0.00000  Uiso   1.00
O292   O     0.62817   0.46997   0.23583   0.00000  Uiso   1.00
N293   N     0.84197   0.40386   0.25485   0.00000  Uiso   1.00
O294   O     0.85240   0.44194   0.27323   0.00000  Uiso   1.00
O295   O     0.82571   0.37327   0.28137   0.00000  Uiso   1.00
N296   N     0.62735   0.07262   0.08887   0.00000  Uiso   1.00
O297   O     0.60961   0.08537   0.05035   0.00000  Uiso   1.00
O298   O     0.62817   0.03000   0.09751   0.00000  Uiso   1.00
N299   N     0.65801   0.09611   0.25485   0.00000  Uiso   1.00
O300   O     0.64758   0.05802   0.27321   0.00000  Uiso   1.00
O301   O     0.67426   0.12669   0.28138   0.00000  Uiso   1.00
N302   N     0.87267   0.42742   0.08888   0.00000  Uiso   1.00
O303   O     0.89043   0.41468   0.05036   0.00000  Uiso   1.00
O304   O     0.87183   0.47002   0.09753   0.00000  Uiso   1.00
O305   O     0.04509   0.70491   0.20625   0.00000  Uiso   1.00
O306   O     0.45492   0.79509   0.12709   0.00000  Uiso   1.00
O307   O     0.45492   0.79509   0.20625   0.00000  Uiso   1.00
O308   O     0.04509   0.70491   0.12709   0.00000  Uiso   1.00
O309   O     0.45492   0.70491   0.12709   0.00000  Uiso   1.00
O310   O     0.04509   0.79509   0.20625   0.00000  Uiso   1.00
O311   O     0.04509   0.79509   0.12709   0.00000  Uiso   1.00
O312   O     0.45492   0.70491   0.20625   0.00000  Uiso   1.00
O313   O     0.29509   0.95491   0.20625   0.00000  Uiso   1.00
O314   O     0.20492   0.54509   0.12709   0.00000  Uiso   1.00
O315   O     0.20492   0.54509   0.20625   0.00000  Uiso   1.00
O316   O     0.29509   0.95491   0.12709   0.00000  Uiso   1.00
O317   O     0.20492   0.95491   0.12709   0.00000  Uiso   1.00
O318   O     0.29509   0.54509   0.20625   0.00000  Uiso   1.00
O319   O     0.29509   0.54509   0.12709   0.00000  Uiso   1.00
O320   O     0.20492   0.95491   0.20625   0.00000  Uiso   1.00
C321   C     0.06084   0.69206   0.16692   0.00000  Uiso   1.00
C322   C     0.43917   0.80794   0.16692   0.00000  Uiso   1.00
C323   C     0.43916   0.69206   0.16642   0.00000  Uiso   1.00
C324   C     0.06084   0.80793   0.16642   0.00000  Uiso   1.00
C325   C     0.31084   0.94206   0.16692   0.00000  Uiso   1.00
C326   C     0.18916   0.55794   0.16692   0.00000  Uiso   1.00
C327   C     0.18917   0.94206   0.16642   0.00000  Uiso   1.00
C328   C     0.31084   0.55794   0.16642   0.00000  Uiso   1.00
N329   N     0.00000   0.75000   0.28402   0.00000  Uiso   1.00
N330   N     0.00000   0.75000   0.04931   0.00000  Uiso   1.00
N331   N     0.25000   0.50000   0.28402   0.00000  Uiso   1.00
N332   N     0.25000   0.50000   0.04931   0.00000  Uiso   1.00
Cu333  Cu    0.00000   0.75000   0.21355   0.00000  Uiso   1.00
Cu334  Cu    0.00000   0.75000   0.11978   0.00000  Uiso   1.00
Cu335  Cu    0.25000   0.50000   0.21355   0.00000  Uiso   1.00
Cu336  Cu    0.25000   0.50000   0.11978   0.00000  Uiso   1.00
C337   C     0.00018   0.71067   0.02506   0.00000  Uiso   1.00
C338   C     0.00019   0.78933   0.30827   0.00000  Uiso   1.00
C339   C     0.49982   0.78933   0.02506   0.00000  Uiso   1.00
C340   C     0.49982   0.71067   0.30828   0.00000  Uiso   1.00
C341   C     0.25018   0.96067   0.02506   0.00000  Uiso   1.00
C342   C     0.25018   0.53933   0.30827   0.00000  Uiso   1.00
C343   C     0.24982   0.53933   0.02506   0.00000  Uiso   1.00
C344   C     0.24983   0.96067   0.30828   0.00000  Uiso   1.00
C345   C     0.39075   0.64101   0.12258   0.00000  Uiso   1.00
C346   C     0.11523   0.85393   0.20699   0.00000  Uiso   1.00
C347   C     0.10925   0.85899   0.12258   0.00000  Uiso   1.00
C348   C     0.38480   0.64603   0.20699   0.00000  Uiso   1.00
C349   C     0.10924   0.64099   0.21075   0.00000  Uiso   1.00
C350   C     0.38480   0.85397   0.12634   0.00000  Uiso   1.00
C351   C     0.39076   0.85900   0.21075   0.00000  Uiso   1.00
C352   C     0.11521   0.64605   0.12634   0.00000  Uiso   1.00
C353   C     0.14075   0.89101   0.12258   0.00000  Uiso   1.00
C354   C     0.36520   0.60397   0.20699   0.00000  Uiso   1.00
C355   C     0.35925   0.60900   0.12258   0.00000  Uiso   1.00
C356   C     0.13483   0.89600   0.20700   0.00000  Uiso   1.00
C357   C     0.35925   0.89101   0.21076   0.00000  Uiso   1.00
C358   C     0.13481   0.60398   0.12634   0.00000  Uiso   1.00
C359   C     0.14074   0.60898   0.21076   0.00000  Uiso   1.00
C360   C     0.36520   0.89604   0.12634   0.00000  Uiso   1.00
C361   C     0.09601   0.83981   0.16520   0.00000  Uiso   1.00
C362   C     0.40401   0.66017   0.16520   0.00000  Uiso   1.00
C363   C     0.40401   0.83983   0.16814   0.00000  Uiso   1.00
C364   C     0.09599   0.66017   0.16814   0.00000  Uiso   1.00
C365   C     0.34599   0.58983   0.16519   0.00000  Uiso   1.00
C366   C     0.15402   0.91016   0.16520   0.00000  Uiso   1.00
C367   C     0.15401   0.58983   0.16814   0.00000  Uiso   1.00
C368   C     0.34600   0.91018   0.16814   0.00000  Uiso   1.00
O369   O     0.49765   0.67133   0.05003   0.00000  Uiso   1.00
C370   C     0.03422   0.64576   0.04453   0.00000  Uiso   1.00
H371   H     0.04232   0.63123   0.07884   0.00000  Uiso   1.00
H372   H     0.06145   0.66501   0.03135   0.00000  Uiso   1.00
H373   H     0.02841   0.61707   0.02124   0.00000  Uiso   1.00
O374   O     0.49767   0.82867   0.28330   0.00000  Uiso   1.00
C375   C     0.03424   0.85423   0.28880   0.00000  Uiso   1.00
H376   H     0.04234   0.86877   0.25450   0.00000  Uiso   1.00
H377   H     0.06147   0.83498   0.30197   0.00000  Uiso   1.00
H378   H     0.02844   0.88291   0.31211   0.00000  Uiso   1.00
O379   O     0.00236   0.82867   0.05003   0.00000  Uiso   1.00
C380   C     0.46580   0.85425   0.04453   0.00000  Uiso   1.00
H381   H     0.45770   0.86878   0.07883   0.00000  Uiso   1.00
H382   H     0.43857   0.83501   0.03134   0.00000  Uiso   1.00
H383   H     0.47161   0.88293   0.02123   0.00000  Uiso   1.00
O384   O     0.00235   0.67133   0.28331   0.00000  Uiso   1.00
C385   C     0.46579   0.64576   0.28881   0.00000  Uiso   1.00
H386   H     0.45769   0.63123   0.25450   0.00000  Uiso   1.00
H387   H     0.43856   0.66500   0.30199   0.00000  Uiso   1.00
H388   H     0.47159   0.61707   0.31210   0.00000  Uiso   1.00
O389   O     0.24765   0.92133   0.05003   0.00000  Uiso   1.00
C390   C     0.28421   0.89576   0.04455   0.00000  Uiso   1.00
H391   H     0.29231   0.88123   0.07886   0.00000  Uiso   1.00
H392   H     0.31144   0.91500   0.03137   0.00000  Uiso   1.00
H393   H     0.27842   0.86707   0.02126   0.00000  Uiso   1.00
O394   O     0.24764   0.57867   0.28330   0.00000  Uiso   1.00
C395   C     0.28420   0.60424   0.28879   0.00000  Uiso   1.00
H396   H     0.29230   0.61877   0.25447   0.00000  Uiso   1.00
H397   H     0.31143   0.58500   0.30197   0.00000  Uiso   1.00
H398   H     0.27840   0.63294   0.31208   0.00000  Uiso   1.00
O399   O     0.25237   0.57867   0.05002   0.00000  Uiso   1.00
C400   C     0.21581   0.60425   0.04454   0.00000  Uiso   1.00
H401   H     0.20772   0.61878   0.07885   0.00000  Uiso   1.00
H402   H     0.18857   0.58500   0.03137   0.00000  Uiso   1.00
H403   H     0.22161   0.63293   0.02124   0.00000  Uiso   1.00
O404   O     0.25239   0.92133   0.28331   0.00000  Uiso   1.00
C405   C     0.21583   0.89575   0.28879   0.00000  Uiso   1.00
H406   H     0.20774   0.88122   0.25447   0.00000  Uiso   1.00
H407   H     0.18859   0.91498   0.30197   0.00000  Uiso   1.00
H408   H     0.22164   0.86705   0.31208   0.00000  Uiso   1.00
N409   N     0.40804   0.65385   0.07849   0.00000  Uiso   1.00
O410   O     0.39761   0.69194   0.06010   0.00000  Uiso   1.00
O411   O     0.42431   0.62326   0.05199   0.00000  Uiso   1.00
N412   N     0.12267   0.82256   0.24446   0.00000  Uiso   1.00
O413   O     0.12172   0.77994   0.23585   0.00000  Uiso   1.00
O414   O     0.14055   0.83527   0.28293   0.00000  Uiso   1.00
N415   N     0.09194   0.84618   0.07849   0.00000  Uiso   1.00
O416   O     0.10236   0.80811   0.06007   0.00000  Uiso   1.00
O417   O     0.07565   0.87679   0.05202   0.00000  Uiso   1.00
N418   N     0.37734   0.67741   0.24445   0.00000  Uiso   1.00
O419   O     0.35958   0.66467   0.28298   0.00000  Uiso   1.00
O420   O     0.37818   0.72002   0.23581   0.00000  Uiso   1.00
N421   N     0.09192   0.65380   0.25484   0.00000  Uiso   1.00
O422   O     0.10235   0.69187   0.27327   0.00000  Uiso   1.00
O423   O     0.07563   0.62319   0.28131   0.00000  Uiso   1.00
N424   N     0.37734   0.82260   0.08888   0.00000  Uiso   1.00
O425   O     0.35959   0.83534   0.05035   0.00000  Uiso   1.00
O426   O     0.37817   0.77999   0.09752   0.00000  Uiso   1.00
N427   N     0.40805   0.84616   0.25484   0.00000  Uiso   1.00
O428   O     0.39762   0.80808   0.27324   0.00000  Uiso   1.00
O429   O     0.42433   0.87675   0.28134   0.00000  Uiso   1.00
N430   N     0.12267   0.67742   0.08888   0.00000  Uiso   1.00
O431   O     0.12176   0.72004   0.09750   0.00000  Uiso   1.00
O432   O     0.14047   0.66470   0.05038   0.00000  Uiso   1.00
N433   N     0.15803   0.90387   0.07848   0.00000  Uiso   1.00
O434   O     0.14759   0.94196   0.06012   0.00000  Uiso   1.00
O435   O     0.17428   0.87329   0.05195   0.00000  Uiso   1.00
N436   N     0.37266   0.57259   0.24445   0.00000  Uiso   1.00
O437   O     0.39041   0.58533   0.28298   0.00000  Uiso   1.00
O438   O     0.37183   0.52998   0.23580   0.00000  Uiso   1.00
N439   N     0.34196   0.59616   0.07849   0.00000  Uiso   1.00
O440   O     0.35239   0.55807   0.06010   0.00000  Uiso   1.00
O441   O     0.32569   0.62675   0.05198   0.00000  Uiso   1.00
N442   N     0.12737   0.92736   0.24447   0.00000  Uiso   1.00
O443   O     0.10964   0.91460   0.28301   0.00000  Uiso   1.00
O444   O     0.12817   0.96997   0.23583   0.00000  Uiso   1.00
N445   N     0.34197   0.90386   0.25485   0.00000  Uiso   1.00
O446   O     0.35240   0.94194   0.27323   0.00000  Uiso   1.00
O447   O     0.32571   0.87327   0.28137   0.00000  Uiso   1.00
N448   N     0.12735   0.57262   0.08887   0.00000  Uiso   1.00
O449   O     0.10961   0.58537   0.05035   0.00000  Uiso   1.00
O450   O     0.12817   0.53000   0.09751   0.00000  Uiso   1.00
N451   N     0.15801   0.59611   0.25485   0.00000  Uiso   1.00
O452   O     0.14758   0.55802   0.27321   0.00000  Uiso   1.00
O453   O     0.17426   0.62669   0.28138   0.00000  Uiso   1.00
N454   N     0.37267   0.92742   0.08888   0.00000  Uiso   1.00
O455   O     0.39043   0.91468   0.05036   0.00000  Uiso   1.00
O456   O     0.37183   0.97002   0.09753   0.00000  Uiso   1.00
O457   O     0.54509   0.70491   0.20625   0.00000  Uiso   1.00
O458   O     0.95492   0.79509   0.12709   0.00000  Uiso   1.00
O459   O     0.95492   0.79509   0.20625   0.00000  Uiso   1.00
O460   O     0.54509   0.70491   0.12709   0.00000  Uiso   1.00
O461   O     0.95492   0.70491   0.12709   0.00000  Uiso   1.00
O462   O     0.54509   0.79509   0.20625   0.00000  Uiso   1.00
O463   O     0.54509   0.79509   0.12709   0.00000  Uiso   1.00
O464   O     0.95492   0.70491   0.20625   0.00000  Uiso   1.00
O465   O     0.79509   0.95491   0.20625   0.00000  Uiso   1.00
O466   O     0.70492   0.54509   0.12709   0.00000  Uiso   1.00
O467   O     0.70492   0.54509   0.20625   0.00000  Uiso   1.00
O468   O     0.79509   0.95491   0.12709   0.00000  Uiso   1.00
O469   O     0.70492   0.95491   0.12709   0.00000  Uiso   1.00
O470   O     0.79509   0.54509   0.20625   0.00000  Uiso   1.00
O471   O     0.79509   0.54509   0.12709   0.00000  Uiso   1.00
O472   O     0.70492   0.95491   0.20625   0.00000  Uiso   1.00
C473   C     0.56084   0.69206   0.16692   0.00000  Uiso   1.00
C474   C     0.93917   0.80794   0.16692   0.00000  Uiso   1.00
C475   C     0.93916   0.69206   0.16642   0.00000  Uiso   1.00
C476   C     0.56084   0.80793   0.16642   0.00000  Uiso   1.00
C477   C     0.81084   0.94206   0.16692   0.00000  Uiso   1.00
C478   C     0.68916   0.55794   0.16692   0.00000  Uiso   1.00
C479   C     0.68917   0.94206   0.16642   0.00000  Uiso   1.00
C480   C     0.81084   0.55794   0.16642   0.00000  Uiso   1.00
N481   N     0.50000   0.75000   0.28402   0.00000  Uiso   1.00
N482   N     0.50000   0.75000   0.04931   0.00000  Uiso   1.00
N483   N     0.75000   0.50000   0.28402   0.00000  Uiso   1.00
N484   N     0.75000   0.50000   0.04931   0.00000  Uiso   1.00
Cu485  Cu    0.50000   0.75000   0.21355   0.00000  Uiso   1.00
Cu486  Cu    0.50000   0.75000   0.11978   0.00000  Uiso   1.00
Cu487  Cu    0.75000   0.50000   0.21355   0.00000  Uiso   1.00
Cu488  Cu    0.75000   0.50000   0.11978   0.00000  Uiso   1.00
C489   C     0.50018   0.71067   0.02506   0.00000  Uiso   1.00
C490   C     0.50019   0.78933   0.30827   0.00000  Uiso   1.00
C491   C     0.99982   0.78933   0.02506   0.00000  Uiso   1.00
C492   C     0.99982   0.71067   0.30828   0.00000  Uiso   1.00
C493   C     0.75018   0.96067   0.02506   0.00000  Uiso   1.00
C494   C     0.75018   0.53933   0.30827   0.00000  Uiso   1.00
C495   C     0.74982   0.53933   0.02506   0.00000  Uiso   1.00
C496   C     0.74983   0.96067   0.30828   0.00000  Uiso   1.00
C497   C     0.89075   0.64101   0.12258   0.00000  Uiso   1.00
C498   C     0.61523   0.85393   0.20699   0.00000  Uiso   1.00
C499   C     0.60925   0.85899   0.12258   0.00000  Uiso   1.00
C500   C     0.88480   0.64603   0.20699   0.00000  Uiso   1.00
C501   C     0.60924   0.64099   0.21075   0.00000  Uiso   1.00
C502   C     0.88480   0.85397   0.12634   0.00000  Uiso   1.00
C503   C     0.89076   0.85900   0.21075   0.00000  Uiso   1.00
C504   C     0.61521   0.64605   0.12634   0.00000  Uiso   1.00
C505   C     0.64075   0.89101   0.12258   0.00000  Uiso   1.00
C506   C     0.86520   0.60397   0.20699   0.00000  Uiso   1.00
C507   C     0.85925   0.60900   0.12258   0.00000  Uiso   1.00
C508   C     0.63483   0.89600   0.20700   0.00000  Uiso   1.00
C509   C     0.85925   0.89101   0.21076   0.00000  Uiso   1.00
C510   C     0.63481   0.60398   0.12634   0.00000  Uiso   1.00
C511   C     0.64074   0.60898   0.21076   0.00000  Uiso   1.00
C512   C     0.86520   0.89604   0.12634   0.00000  Uiso   1.00
C513   C     0.59601   0.83981   0.16520   0.00000  Uiso   1.00
C514   C     0.90401   0.66017   0.16520   0.00000  Uiso   1.00
C515   C     0.90401   0.83983   0.16814   0.00000  Uiso   1.00
C516   C     0.59599   0.66017   0.16814   0.00000  Uiso   1.00
C517   C     0.84599   0.58983   0.16519   0.00000  Uiso   1.00
C518   C     0.65402   0.91016   0.16520   0.00000  Uiso   1.00
C519   C     0.65401   0.58983   0.16814   0.00000  Uiso   1.00
C520   C     0.84600   0.91018   0.16814   0.00000  Uiso   1.00
O521   O     0.99765   0.67133   0.05003   0.00000  Uiso   1.00
C522   C     0.53422   0.64576   0.04453   0.00000  Uiso   1.00
H523   H     0.54232   0.63123   0.07884   0.00000  Uiso   1.00
H524   H     0.56145   0.66501   0.03135   0.00000  Uiso   1.00
H525   H     0.52841   0.61707   0.02124   0.00000  Uiso   1.00
O526   O     0.99767   0.82867   0.28330   0.00000  Uiso   1.00
C527   C     0.53424   0.85423   0.28880   0.00000  Uiso   1.00
H528   H     0.54234   0.86877   0.25450   0.00000  Uiso   1.00
H529   H     0.56147   0.83498   0.30197   0.00000  Uiso   1.00
H530   H     0.52844   0.88291   0.31211   0.00000  Uiso   1.00
O531   O     0.50236   0.82867   0.05003   0.00000  Uiso   1.00
C532   C     0.96580   0.85425   0.04453   0.00000  Uiso   1.00
H533   H     0.95770   0.86878   0.07883   0.00000  Uiso   1.00
H534   H     0.93857   0.83501   0.03134   0.00000  Uiso   1.00
H535   H     0.97161   0.88293   0.02123   0.00000  Uiso   1.00
O536   O     0.50235   0.67133   0.28331   0.00000  Uiso   1.00
C537   C     0.96579   0.64576   0.28881   0.00000  Uiso   1.00
H538   H     0.95769   0.63123   0.25450   0.00000  Uiso   1.00
H539   H     0.93856   0.66500   0.30199   0.00000  Uiso   1.00
H540   H     0.97159   0.61707   0.31210   0.00000  Uiso   1.00
O541   O     0.74765   0.92133   0.05003   0.00000  Uiso   1.00
C542   C     0.78421   0.89576   0.04455   0.00000  Uiso   1.00
H543   H     0.79231   0.88123   0.07886   0.00000  Uiso   1.00
H544   H     0.81144   0.91500   0.03137   0.00000  Uiso   1.00
H545   H     0.77842   0.86707   0.02126   0.00000  Uiso   1.00
O546   O     0.74764   0.57867   0.28330   0.00000  Uiso   1.00
C547   C     0.78420   0.60424   0.28879   0.00000  Uiso   1.00
H548   H     0.79230   0.61877   0.25447   0.00000  Uiso   1.00
H549   H     0.81143   0.58500   0.30197   0.00000  Uiso   1.00
H550   H     0.77840   0.63294   0.31208   0.00000  Uiso   1.00
O551   O     0.75237   0.57867   0.05002   0.00000  Uiso   1.00
C552   C     0.71581   0.60425   0.04454   0.00000  Uiso   1.00
H553   H     0.70772   0.61878   0.07885   0.00000  Uiso   1.00
H554   H     0.68857   0.58500   0.03137   0.00000  Uiso   1.00
H555   H     0.72161   0.63293   0.02124   0.00000  Uiso   1.00
O556   O     0.75239   0.92133   0.28331   0.00000  Uiso   1.00
C557   C     0.71583   0.89575   0.28879   0.00000  Uiso   1.00
H558   H     0.70774   0.88122   0.25447   0.00000  Uiso   1.00
H559   H     0.68859   0.91498   0.30197   0.00000  Uiso   1.00
H560   H     0.72164   0.86705   0.31208   0.00000  Uiso   1.00
N561   N     0.90804   0.65385   0.07849   0.00000  Uiso   1.00
O562   O     0.89761   0.69194   0.06010   0.00000  Uiso   1.00
O563   O     0.92431   0.62326   0.05199   0.00000  Uiso   1.00
N564   N     0.62267   0.82256   0.24446   0.00000  Uiso   1.00
O565   O     0.62172   0.77994   0.23585   0.00000  Uiso   1.00
O566   O     0.64055   0.83527   0.28293   0.00000  Uiso   1.00
N567   N     0.59194   0.84618   0.07849   0.00000  Uiso   1.00
O568   O     0.60236   0.80811   0.06007   0.00000  Uiso   1.00
O569   O     0.57565   0.87679   0.05202   0.00000  Uiso   1.00
N570   N     0.87734   0.67741   0.24445   0.00000  Uiso   1.00
O571   O     0.85958   0.66467   0.28298   0.00000  Uiso   1.00
O572   O     0.87818   0.72002   0.23581   0.00000  Uiso   1.00
N573   N     0.59192   0.65380   0.25484   0.00000  Uiso   1.00
O574   O     0.60235   0.69187   0.27327   0.00000  Uiso   1.00
O575   O     0.57563   0.62319   0.28131   0.00000  Uiso   1.00
N576   N     0.87734   0.82260   0.08888   0.00000  Uiso   1.00
O577   O     0.85959   0.83534   0.05035   0.00000  Uiso   1.00
O578   O     0.87817   0.77999   0.09752   0.00000  Uiso   1.00
N579   N     0.90805   0.84616   0.25484   0.00000  Uiso   1.00
O580   O     0.89762   0.80808   0.27324   0.00000  Uiso   1.00
O581   O     0.92433   0.87675   0.28134   0.00000  Uiso   1.00
N582   N     0.62267   0.67742   0.08888   0.00000  Uiso   1.00
O583   O     0.62176   0.72004   0.09750   0.00000  Uiso   1.00
O584   O     0.64047   0.66470   0.05038   0.00000  Uiso   1.00
N585   N     0.65803   0.90387   0.07848   0.00000  Uiso   1.00
O586   O     0.64759   0.94196   0.06012   0.00000  Uiso   1.00
O587   O     0.67428   0.87329   0.05195   0.00000  Uiso   1.00
N588   N     0.87266   0.57259   0.24445   0.00000  Uiso   1.00
O589   O     0.89041   0.58533   0.28298   0.00000  Uiso   1.00
O590   O     0.87183   0.52998   0.23580   0.00000  Uiso   1.00
N591   N     0.84196   0.59616   0.07849   0.00000  Uiso   1.00
O592   O     0.85239   0.55807   0.06010   0.00000  Uiso   1.00
O593   O     0.82569   0.62675   0.05198   0.00000  Uiso   1.00
N594   N     0.62737   0.92736   0.24447   0.00000  Uiso   1.00
O595   O     0.60964   0.91460   0.28301   0.00000  Uiso   1.00
O596   O     0.62817   0.96997   0.23583   0.00000  Uiso   1.00
N597   N     0.84197   0.90386   0.25485   0.00000  Uiso   1.00
O598   O     0.85240   0.94194   0.27323   0.00000  Uiso   1.00
O599   O     0.82571   0.87327   0.28137   0.00000  Uiso   1.00
N600   N     0.62735   0.57262   0.08887   0.00000  Uiso   1.00
O601   O     0.60961   0.58537   0.05035   0.00000  Uiso   1.00
O602   O     0.62817   0.53000   0.09751   0.00000  Uiso   1.00
N603   N     0.65801   0.59611   0.25485   0.00000  Uiso   1.00
O604   O     0.64758   0.55802   0.27321   0.00000  Uiso   1.00
O605   O     0.67426   0.62669   0.28138   0.00000  Uiso   1.00
N606   N     0.87267   0.92742   0.08888   0.00000  Uiso   1.00
O607   O     0.89043   0.91468   0.05036   0.00000  Uiso   1.00
O608   O     0.87183   0.97002   0.09753   0.00000  Uiso   1.00
O609   O     0.04509   0.20491   0.53958   0.00000  Uiso   1.00
O610   O     0.45492   0.29509   0.46042   0.00000  Uiso   1.00
O611   O     0.45492   0.29509   0.53958   0.00000  Uiso   1.00
O612   O     0.04509   0.20491   0.46042   0.00000  Uiso   1.00
O613   O     0.45492   0.20491   0.46042   0.00000  Uiso   1.00
O614   O     0.04509   0.29509   0.53958   0.00000  Uiso   1.00
O615   O     0.04509   0.29509   0.46042   0.00000  Uiso   1.00
O616   O     0.45492   0.20491   0.53958   0.00000  Uiso   1.00
O617   O     0.29509   0.45491   0.53958   0.00000  Uiso   1.00
O618   O     0.20492   0.04509   0.46042   0.00000  Uiso   1.00
O619   O     0.20492   0.04509   0.53958   0.00000  Uiso   1.00
O620   O     0.29509   0.45491   0.46042   0.00000  Uiso   1.00
O621   O     0.20492   0.45491   0.46042   0.00000  Uiso   1.00
O622   O     0.29509   0.04509   0.53958   0.00000  Uiso   1.00
O623   O     0.29509   0.04509   0.46042   0.00000  Uiso   1.00
O624   O     0.20492   0.45491   0.53958   0.00000  Uiso   1.00
C625   C     0.06084   0.19206   0.50025   0.00000  Uiso   1.00
C626   C     0.43917   0.30794   0.50025   0.00000  Uiso   1.00
C627   C     0.43916   0.19206   0.49975   0.00000  Uiso   1.00
C628   C     0.06084   0.30793   0.49975   0.00000  Uiso   1.00
C629   C     0.31084   0.44206   0.50025   0.00000  Uiso   1.00
C630   C     0.18916   0.05794   0.50025   0.00000  Uiso   1.00
C631   C     0.18917   0.44206   0.49975   0.00000  Uiso   1.00
C632   C     0.31084   0.05794   0.49975   0.00000  Uiso   1.00
N633   N     0.00000   0.25000   0.61736   0.00000  Uiso   1.00
N634   N     0.00000   0.25000   0.38264   0.00000  Uiso   1.00
N635   N     0.25000  -0.00000   0.61736   0.00000  Uiso   1.00
N636   N     0.25000  -0.00000   0.38264   0.00000  Uiso   1.00
Cu637  Cu    0.00000   0.25000   0.54689   0.00000  Uiso   1.00
Cu638  Cu    0.00000   0.25000   0.45311   0.00000  Uiso   1.00
Cu639  Cu    0.25000  -0.00000   0.54689   0.00000  Uiso   1.00
Cu640  Cu    0.25000  -0.00000   0.45311   0.00000  Uiso   1.00
C641   C     0.00018   0.21067   0.35839   0.00000  Uiso   1.00
C642   C     0.00019   0.28933   0.64161   0.00000  Uiso   1.00
C643   C     0.49982   0.28933   0.35839   0.00000  Uiso   1.00
C644   C     0.49982   0.21067   0.64161   0.00000  Uiso   1.00
C645   C     0.25018   0.46067   0.35839   0.00000  Uiso   1.00
C646   C     0.25018   0.03933   0.64161   0.00000  Uiso   1.00
C647   C     0.24982   0.03933   0.35839   0.00000  Uiso   1.00
C648   C     0.24983   0.46067   0.64161   0.00000  Uiso   1.00
C649   C     0.39075   0.14101   0.45591   0.00000  Uiso   1.00
C650   C     0.11523   0.35393   0.54032   0.00000  Uiso   1.00
C651   C     0.10925   0.35899   0.45591   0.00000  Uiso   1.00
C652   C     0.38480   0.14603   0.54032   0.00000  Uiso   1.00
C653   C     0.10924   0.14099   0.54409   0.00000  Uiso   1.00
C654   C     0.38480   0.35397   0.45968   0.00000  Uiso   1.00
C655   C     0.39076   0.35900   0.54409   0.00000  Uiso   1.00
C656   C     0.11521   0.14605   0.45968   0.00000  Uiso   1.00
C657   C     0.14075   0.39101   0.45591   0.00000  Uiso   1.00
C658   C     0.36520   0.10397   0.54032   0.00000  Uiso   1.00
C659   C     0.35925   0.10900   0.45591   0.00000  Uiso   1.00
C660   C     0.13483   0.39600   0.54033   0.00000  Uiso   1.00
C661   C     0.35925   0.39101   0.54409   0.00000  Uiso   1.00
C662   C     0.13481   0.10398   0.45967   0.00000  Uiso   1.00
C663   C     0.14074   0.10898   0.54409   0.00000  Uiso   1.00
C664   C     0.36520   0.39604   0.45968   0.00000  Uiso   1.00
C665   C     0.09601   0.33981   0.49853   0.00000  Uiso   1.00
C666   C     0.40401   0.16017   0.49853   0.00000  Uiso   1.00
C667   C     0.40401   0.33983   0.50147   0.00000  Uiso   1.00
C668   C     0.09599   0.16017   0.50147   0.00000  Uiso   1.00
C669   C     0.34599   0.08983   0.49853   0.00000  Uiso   1.00
C670   C     0.15402   0.41016   0.49853   0.00000  Uiso   1.00
C671   C     0.15401   0.08983   0.50147   0.00000  Uiso   1.00
C672   C     0.34600   0.41018   0.50147   0.00000  Uiso   1.00
O673   O     0.49765   0.17133   0.38337   0.00000  Uiso   1.00
C674   C     0.03422   0.14576   0.37787   0.00000  Uiso   1.00
H675   H     0.04232   0.13123   0.41218   0.00000  Uiso   1.00
H676   H     0.06145   0.16501   0.36468   0.00000  Uiso   1.00
H677   H     0.02841   0.11707   0.35457   0.00000  Uiso   1.00
O678   O     0.49767   0.32867   0.61663   0.00000  Uiso   1.00
C679   C     0.03424   0.35423   0.62213   0.00000  Uiso   1.00
H680   H     0.04234   0.36877   0.58783   0.00000  Uiso   1.00
H681   H     0.06147   0.33498   0.63530   0.00000  Uiso   1.00
H682   H     0.02844   0.38291   0.64544   0.00000  Uiso   1.00
O683   O     0.00236   0.32867   0.38336   0.00000  Uiso   1.00
C684   C     0.46580   0.35425   0.37786   0.00000  Uiso   1.00
H685   H     0.45770   0.36878   0.41217   0.00000  Uiso   1.00
H686   H     0.43857   0.33501   0.36468   0.00000  Uiso   1.00
H687   H     0.47161   0.38293   0.35456   0.00000  Uiso   1.00
O688   O     0.00235   0.17133   0.61664   0.00000  Uiso   1.00
C689   C     0.46579   0.14576   0.62214   0.00000  Uiso   1.00
H690   H     0.45769   0.13123   0.58783   0.00000  Uiso   1.00
H691   H     0.43856   0.16500   0.63532   0.00000  Uiso   1.00
H692   H     0.47159   0.11707   0.64544   0.00000  Uiso   1.00
O693   O     0.24765   0.42133   0.38336   0.00000  Uiso   1.00
C694   C     0.28421   0.39576   0.37788   0.00000  Uiso   1.00
H695   H     0.29231   0.38123   0.41220   0.00000  Uiso   1.00
H696   H     0.31144   0.41500   0.36470   0.00000  Uiso   1.00
H697   H     0.27842   0.36707   0.35459   0.00000  Uiso   1.00
O698   O     0.24764   0.07867   0.61664   0.00000  Uiso   1.00
C699   C     0.28420   0.10424   0.62212   0.00000  Uiso   1.00
H700   H     0.29230   0.11877   0.58781   0.00000  Uiso   1.00
H701   H     0.31143   0.08500   0.63530   0.00000  Uiso   1.00
H702   H     0.27840   0.13294   0.64541   0.00000  Uiso   1.00
O703   O     0.25237   0.07867   0.38336   0.00000  Uiso   1.00
C704   C     0.21581   0.10425   0.37788   0.00000  Uiso   1.00
H705   H     0.20772   0.11878   0.41219   0.00000  Uiso   1.00
H706   H     0.18857   0.08500   0.36471   0.00000  Uiso   1.00
H707   H     0.22161   0.13293   0.35457   0.00000  Uiso   1.00
O708   O     0.25239   0.42133   0.61664   0.00000  Uiso   1.00
C709   C     0.21583   0.39575   0.62212   0.00000  Uiso   1.00
H710   H     0.20774   0.38122   0.58780   0.00000  Uiso   1.00
H711   H     0.18859   0.41498   0.63530   0.00000  Uiso   1.00
H712   H     0.22164   0.36705   0.64541   0.00000  Uiso   1.00
N713   N     0.40804   0.15385   0.41182   0.00000  Uiso   1.00
O714   O     0.39761   0.19194   0.39343   0.00000  Uiso   1.00
O715   O     0.42431   0.12326   0.38532   0.00000  Uiso   1.00
N716   N     0.12267   0.32256   0.57779   0.00000  Uiso   1.00
O717   O     0.12172   0.27994   0.56919   0.00000  Uiso   1.00
O718   O     0.14055   0.33527   0.61626   0.00000  Uiso   1.00
N719   N     0.09194   0.34618   0.41182   0.00000  Uiso   1.00
O720   O     0.10236   0.30811   0.39340   0.00000  Uiso   1.00
O721   O     0.07565   0.37679   0.38535   0.00000  Uiso   1.00
N722   N     0.37734   0.17741   0.57779   0.00000  Uiso   1.00
O723   O     0.35958   0.16467   0.61631   0.00000  Uiso   1.00
O724   O     0.37818   0.22002   0.56915   0.00000  Uiso   1.00
N725   N     0.09192   0.15380   0.58818   0.00000  Uiso   1.00
O726   O     0.10235   0.19187   0.60660   0.00000  Uiso   1.00
O727   O     0.07563   0.12319   0.61465   0.00000  Uiso   1.00
N728   N     0.37734   0.32260   0.42221   0.00000  Uiso   1.00
O729   O     0.35959   0.33534   0.38369   0.00000  Uiso   1.00
O730   O     0.37817   0.27999   0.43086   0.00000  Uiso   1.00
N731   N     0.40805   0.34616   0.58818   0.00000  Uiso   1.00
O732   O     0.39762   0.30808   0.60658   0.00000  Uiso   1.00
O733   O     0.42433   0.37675   0.61467   0.00000  Uiso   1.00
N734   N     0.12267   0.17742   0.42221   0.00000  Uiso   1.00
O735   O     0.12176   0.22004   0.43083   0.00000  Uiso   1.00
O736   O     0.14047   0.16470   0.38371   0.00000  Uiso   1.00
N737   N     0.15803   0.40387   0.41182   0.00000  Uiso   1.00
O738   O     0.14759   0.44196   0.39346   0.00000  Uiso   1.00
O739   O     0.17428   0.37329   0.38529   0.00000  Uiso   1.00
N740   N     0.37266   0.07259   0.57778   0.00000  Uiso   1.00
O741   O     0.39041   0.08533   0.61631   0.00000  Uiso   1.00
O742   O     0.37183   0.02998   0.56914   0.00000  Uiso   1.00
N743   N     0.34196   0.09616   0.41182   0.00000  Uiso   1.00
O744   O     0.35239   0.05807   0.39343   0.00000  Uiso   1.00
O745   O     0.32569   0.12675   0.38531   0.00000  Uiso   1.00
N746   N     0.12737   0.42736   0.57780   0.00000  Uiso   1.00
O747   O     0.10964   0.41460   0.61634   0.00000  Uiso   1.00
O748   O     0.12817   0.46997   0.56917   0.00000  Uiso   1.00
N749   N     0.34197   0.40386   0.58818   0.00000  Uiso   1.00
O750   O     0.35240   0.44194   0.60656   0.00000  Uiso   1.00
O751   O     0.32571   0.37327   0.61470   0.00000  Uiso   1.00
N752   N     0.12735   0.07262   0.42221   0.00000  Uiso   1.00
O753   O     0.10961   0.08537   0.38368   0.00000  Uiso   1.00
O754   O     0.12817   0.03000   0.43085   0.00000  Uiso   1.00
N755   N     0.15801   0.09611   0.58818   0.00000  Uiso   1.00
O756   O     0.14758   0.05802   0.60654   0.00000  Uiso   1.00
O757   O     0.17426   0.12669   0.61472   0.00000  Uiso   1.00
N758   N     0.37267   0.42742   0.42222   0.00000  Uiso   1.00
O759   O     0.39043   0.41468   0.38369   0.00000  Uiso   1.00
O760   O     0.37183   0.47002   0.43086   0.00000  Uiso   1.00
O761   O     0.54509   0.20491   0.53958   0.00000  Uiso   1.00
O762   O     0.95492   0.29509   0.46042   0.00000  Uiso   1.00
O763   O     0.95492   0.29509   0.53958   0.00000  Uiso   1.00
O764   O     0.54509   0.20491   0.46042   0.00000  Uiso   1.00
O765   O     0.95492   0.20491   0.46042   0.00000  Uiso   1.00
O766   O     0.54509   0.29509   0.53958   0.00000  Uiso   1.00
O767   O     0.54509   0.29509   0.46042   0.00000  Uiso   1.00
O768   O     0.95492   0.20491   0.53958   0.00000  Uiso   1.00
O769   O     0.79509   0.45491   0.53958   0.00000  Uiso   1.00
O770   O     0.70492   0.04509   0.46042   0.00000  Uiso   1.00
O771   O     0.70492   0.04509   0.53958   0.00000  Uiso   1.00
O772   O     0.79509   0.45491   0.46042   0.00000  Uiso   1.00
O773   O     0.70492   0.45491   0.46042   0.00000  Uiso   1.00
O774   O     0.79509   0.04509   0.53958   0.00000  Uiso   1.00
O775   O     0.79509   0.04509   0.46042   0.00000  Uiso   1.00
O776   O     0.70492   0.45491   0.53958   0.00000  Uiso   1.00
C777   C     0.56084   0.19206   0.50025   0.00000  Uiso   1.00
C778   C     0.93917   0.30794   0.50025   0.00000  Uiso   1.00
C779   C     0.93916   0.19206   0.49975   0.00000  Uiso   1.00
C780   C     0.56084   0.30793   0.49975   0.00000  Uiso   1.00
C781   C     0.81084   0.44206   0.50025   0.00000  Uiso   1.00
C782   C     0.68916   0.05794   0.50025   0.00000  Uiso   1.00
C783   C     0.68917   0.44206   0.49975   0.00000  Uiso   1.00
C784   C     0.81084   0.05794   0.49975   0.00000  Uiso   1.00
N785   N     0.50000   0.25000   0.61736   0.00000  Uiso   1.00
N786   N     0.50000   0.25000   0.38264   0.00000  Uiso   1.00
N787   N     0.75000  -0.00000   0.61736   0.00000  Uiso   1.00
N788   N     0.75000  -0.00000   0.38264   0.00000  Uiso   1.00
Cu789  Cu    0.50000   0.25000   0.54689   0.00000  Uiso   1.00
Cu790  Cu    0.50000   0.25000   0.45311   0.00000  Uiso   1.00
Cu791  Cu    0.75000  -0.00000   0.54689   0.00000  Uiso   1.00
Cu792  Cu    0.75000  -0.00000   0.45311   0.00000  Uiso   1.00
C793   C     0.50018   0.21067   0.35839   0.00000  Uiso   1.00
C794   C     0.50019   0.28933   0.64161   0.00000  Uiso   1.00
C795   C     0.99982   0.28933   0.35839   0.00000  Uiso   1.00
C796   C     0.99982   0.21067   0.64161   0.00000  Uiso   1.00
C797   C     0.75018   0.46067   0.35839   0.00000  Uiso   1.00
C798   C     0.75018   0.03933   0.64161   0.00000  Uiso   1.00
C799   C     0.74982   0.03933   0.35839   0.00000  Uiso   1.00
C800   C     0.74983   0.46067   0.64161   0.00000  Uiso   1.00
C801   C     0.89075   0.14101   0.45591   0.00000  Uiso   1.00
C802   C     0.61523   0.35393   0.54032   0.00000  Uiso   1.00
C803   C     0.60925   0.35899   0.45591   0.00000  Uiso   1.00
C804   C     0.88480   0.14603   0.54032   0.00000  Uiso   1.00
C805   C     0.60924   0.14099   0.54409   0.00000  Uiso   1.00
C806   C     0.88480   0.35397   0.45968   0.00000  Uiso   1.00
C807   C     0.89076   0.35900   0.54409   0.00000  Uiso   1.00
C808   C     0.61521   0.14605   0.45968   0.00000  Uiso   1.00
C809   C     0.64075   0.39101   0.45591   0.00000  Uiso   1.00
C810   C     0.86520   0.10397   0.54032   0.00000  Uiso   1.00
C811   C     0.85925   0.10900   0.45591   0.00000  Uiso   1.00
C812   C     0.63483   0.39600   0.54033   0.00000  Uiso   1.00
C813   C     0.85925   0.39101   0.54409   0.00000  Uiso   1.00
C814   C     0.63481   0.10398   0.45967   0.00000  Uiso   1.00
C815   C     0.64074   0.10898   0.54409   0.00000  Uiso   1.00
C816   C     0.86520   0.39604   0.45968   0.00000  Uiso   1.00
C817   C     0.59601   0.33981   0.49853   0.00000  Uiso   1.00
C818   C     0.90401   0.16017   0.49853   0.00000  Uiso   1.00
C819   C     0.90401   0.33983   0.50147   0.00000  Uiso   1.00
C820   C     0.59599   0.16017   0.50147   0.00000  Uiso   1.00
C821   C     0.84599   0.08983   0.49853   0.00000  Uiso   1.00
C822   C     0.65402   0.41016   0.49853   0.00000  Uiso   1.00
C823   C     0.65401   0.08983   0.50147   0.00000  Uiso   1.00
C824   C     0.84600   0.41018   0.50147   0.00000  Uiso   1.00
O825   O     0.99765   0.17133   0.38337   0.00000  Uiso   1.00
C826   C     0.53422   0.14576   0.37787   0.00000  Uiso   1.00
H827   H     0.54232   0.13123   0.41218   0.00000  Uiso   1.00
H828   H     0.56145   0.16501   0.36468   0.00000  Uiso   1.00
H829   H     0.52841   0.11707   0.35457   0.00000  Uiso   1.00
O830   O     0.99767   0.32867   0.61663   0.00000  Uiso   1.00
C831   C     0.53424   0.35423   0.62213   0.00000  Uiso   1.00
H832   H     0.54234   0.36877   0.58783   0.00000  Uiso   1.00
H833   H     0.56147   0.33498   0.63530   0.00000  Uiso   1.00
H834   H     0.52844   0.38291   0.64544   0.00000  Uiso   1.00
O835   O     0.50236   0.32867   0.38336   0.00000  Uiso   1.00
C836   C     0.96580   0.35425   0.37786   0.00000  Uiso   1.00
H837   H     0.95770   0.36878   0.41217   0.00000  Uiso   1.00
H838   H     0.93857   0.33501   0.36468   0.00000  Uiso   1.00
H839   H     0.97161   0.38293   0.35456   0.00000  Uiso   1.00
O840   O     0.50235   0.17133   0.61664   0.00000  Uiso   1.00
C841   C     0.96579   0.14576   0.62214   0.00000  Uiso   1.00
H842   H     0.95769   0.13123   0.58783   0.00000  Uiso   1.00
H843   H     0.93856   0.16500   0.63532   0.00000  Uiso   1.00
H844   H     0.97159   0.11707   0.64544   0.00000  Uiso   1.00
O845   O     0.74765   0.42133   0.38336   0.00000  Uiso   1.00
C846   C     0.78421   0.39576   0.37788   0.00000  Uiso   1.00
H847   H     0.79231   0.38123   0.41220   0.00000  Uiso   1.00
H848   H     0.81144   0.41500   0.36470   0.00000  Uiso   1.00
H849   H     0.77842   0.36707   0.35459   0.00000  Uiso   1.00
O850   O     0.74764   0.07867   0.61664   0.00000  Uiso   1.00
C851   C     0.78420   0.10424   0.62212   0.00000  Uiso   1.00
H852   H     0.79230   0.11877   0.58781   0.00000  Uiso   1.00
H853   H     0.81143   0.08500   0.63530   0.00000  Uiso   1.00
H854   H     0.77840   0.13294   0.64541   0.00000  Uiso   1.00
O855   O     0.75237   0.07867   0.38336   0.00000  Uiso   1.00
C856   C     0.71581   0.10425   0.37788   0.00000  Uiso   1.00
H857   H     0.70772   0.11878   0.41219   0.00000  Uiso   1.00
H858   H     0.68857   0.08500   0.36471   0.00000  Uiso   1.00
H859   H     0.72161   0.13293   0.35457   0.00000  Uiso   1.00
O860   O     0.75239   0.42133   0.61664   0.00000  Uiso   1.00
C861   C     0.71583   0.39575   0.62212   0.00000  Uiso   1.00
H862   H     0.70774   0.38122   0.58780   0.00000  Uiso   1.00
H863   H     0.68859   0.41498   0.63530   0.00000  Uiso   1.00
H864   H     0.72164   0.36705   0.64541   0.00000  Uiso   1.00
N865   N     0.90804   0.15385   0.41182   0.00000  Uiso   1.00
O866   O     0.89761   0.19194   0.39343   0.00000  Uiso   1.00
O867   O     0.92431   0.12326   0.38532   0.00000  Uiso   1.00
N868   N     0.62267   0.32256   0.57779   0.00000  Uiso   1.00
O869   O     0.62172   0.27994   0.56919   0.00000  Uiso   1.00
O870   O     0.64055   0.33527   0.61626   0.00000  Uiso   1.00
N871   N     0.59194   0.34618   0.41182   0.00000  Uiso   1.00
O872   O     0.60236   0.30811   0.39340   0.00000  Uiso   1.00
O873   O     0.57565   0.37679   0.38535   0.00000  Uiso   1.00
N874   N     0.87734   0.17741   0.57779   0.00000  Uiso   1.00
O875   O     0.85958   0.16467   0.61631   0.00000  Uiso   1.00
O876   O     0.87818   0.22002   0.56915   0.00000  Uiso   1.00
N877   N     0.59192   0.15380   0.58818   0.00000  Uiso   1.00
O878   O     0.60235   0.19187   0.60660   0.00000  Uiso   1.00
O879   O     0.57563   0.12319   0.61465   0.00000  Uiso   1.00
N880   N     0.87734   0.32260   0.42221   0.00000  Uiso   1.00
O881   O     0.85959   0.33534   0.38369   0.00000  Uiso   1.00
O882   O     0.87817   0.27999   0.43086   0.00000  Uiso   1.00
N883   N     0.90805   0.34616   0.58818   0.00000  Uiso   1.00
O884   O     0.89762   0.30808   0.60658   0.00000  Uiso   1.00
O885   O     0.92433   0.37675   0.61467   0.00000  Uiso   1.00
N886   N     0.62267   0.17742   0.42221   0.00000  Uiso   1.00
O887   O     0.62176   0.22004   0.43083   0.00000  Uiso   1.00
O888   O     0.64047   0.16470   0.38371   0.00000  Uiso   1.00
N889   N     0.65803   0.40387   0.41182   0.00000  Uiso   1.00
O890   O     0.64759   0.44196   0.39346   0.00000  Uiso   1.00
O891   O     0.67428   0.37329   0.38529   0.00000  Uiso   1.00
N892   N     0.87266   0.07259   0.57778   0.00000  Uiso   1.00
O893   O     0.89041   0.08533   0.61631   0.00000  Uiso   1.00
O894   O     0.87183   0.02998   0.56914   0.00000  Uiso   1.00
N895   N     0.84196   0.09616   0.41182   0.00000  Uiso   1.00
O896   O     0.85239   0.05807   0.39343   0.00000  Uiso   1.00
O897   O     0.82569   0.12675   0.38531   0.00000  Uiso   1.00
N898   N     0.62737   0.42736   0.57780   0.00000  Uiso   1.00
O899   O     0.60964   0.41460   0.61634   0.00000  Uiso   1.00
O900   O     0.62817   0.46997   0.56917   0.00000  Uiso   1.00
N901   N     0.84197   0.40386   0.58818   0.00000  Uiso   1.00
O902   O     0.85240   0.44194   0.60656   0.00000  Uiso   1.00
O903   O     0.82571   0.37327   0.61470   0.00000  Uiso   1.00
N904   N     0.62735   0.07262   0.42221   0.00000  Uiso   1.00
O905   O     0.60961   0.08537   0.38368   0.00000  Uiso   1.00
O906   O     0.62817   0.03000   0.43085   0.00000  Uiso   1.00
N907   N     0.65801   0.09611   0.58818   0.00000  Uiso   1.00
O908   O     0.64758   0.05802   0.60654   0.00000  Uiso   1.00
O909   O     0.67426   0.12669   0.61472   0.00000  Uiso   1.00
N910   N     0.87267   0.42742   0.42222   0.00000  Uiso   1.00
O911   O     0.89043   0.41468   0.38369   0.00000  Uiso   1.00
O912   O     0.87183   0.47002   0.43086   0.00000  Uiso   1.00
O913   O     0.04509   0.70491   0.53958   0.00000  Uiso   1.00
O914   O     0.45492   0.79509   0.46042   0.00000  Uiso   1.00
O915   O     0.45492   0.79509   0.53958   0.00000  Uiso   1.00
O916   O     0.04509   0.70491   0.46042   0.00000  Uiso   1.00
O917   O     0.45492   0.70491   0.46042   0.00000  Uiso   1.00
O918   O     0.04509   0.79509   0.53958   0.00000  Uiso   1.00
O919   O     0.04509   0.79509   0.46042   0.00000  Uiso   1.00
O920   O     0.45492   0.70491   0.53958   0.00000  Uiso   1.00
O921   O     0.29509   0.95491   0.53958   0.00000  Uiso   1.00
O922   O     0.20492   0.54509   0.46042   0.00000  Uiso   1.00
O923   O     0.20492   0.54509   0.53958   0.00000  Uiso   1.00
O924   O     0.29509   0.95491   0.46042   0.00000  Uiso   1.00
O925   O     0.20492   0.95491   0.46042   0.00000  Uiso   1.00
O926   O     0.29509   0.54509   0.53958   0.00000  Uiso   1.00
O927   O     0.29509   0.54509   0.46042   0.00000  Uiso   1.00
O928   O     0.20492   0.95491   0.53958   0.00000  Uiso   1.00
C929   C     0.06084   0.69206   0.50025   0.00000  Uiso   1.00
C930   C     0.43917   0.80794   0.50025   0.00000  Uiso   1.00
C931   C     0.43916   0.69206   0.49975   0.00000  Uiso   1.00
C932   C     0.06084   0.80793   0.49975   0.00000  Uiso   1.00
C933   C     0.31084   0.94206   0.50025   0.00000  Uiso   1.00
C934   C     0.18916   0.55794   0.50025   0.00000  Uiso   1.00
C935   C     0.18917   0.94206   0.49975   0.00000  Uiso   1.00
C936   C     0.31084   0.55794   0.49975   0.00000  Uiso   1.00
N937   N     0.00000   0.75000   0.61736   0.00000  Uiso   1.00
N938   N     0.00000   0.75000   0.38264   0.00000  Uiso   1.00
N939   N     0.25000   0.50000   0.61736   0.00000  Uiso   1.00
N940   N     0.25000   0.50000   0.38264   0.00000  Uiso   1.00
Cu941  Cu    0.00000   0.75000   0.54689   0.00000  Uiso   1.00
Cu942  Cu    0.00000   0.75000   0.45311   0.00000  Uiso   1.00
Cu943  Cu    0.25000   0.50000   0.54689   0.00000  Uiso   1.00
Cu944  Cu    0.25000   0.50000   0.45311   0.00000  Uiso   1.00
C945   C     0.00018   0.71067   0.35839   0.00000  Uiso   1.00
C946   C     0.00019   0.78933   0.64161   0.00000  Uiso   1.00
C947   C     0.49982   0.78933   0.35839   0.00000  Uiso   1.00
C948   C     0.49982   0.71067   0.64161   0.00000  Uiso   1.00
C949   C     0.25018   0.96067   0.35839   0.00000  Uiso   1.00
C950   C     0.25018   0.53933   0.64161   0.00000  Uiso   1.00
C951   C     0.24982   0.53933   0.35839   0.00000  Uiso   1.00
C952   C     0.24983   0.96067   0.64161   0.00000  Uiso   1.00
C953   C     0.39075   0.64101   0.45591   0.00000  Uiso   1.00
C954   C     0.11523   0.85393   0.54032   0.00000  Uiso   1.00
C955   C     0.10925   0.85899   0.45591   0.00000  Uiso   1.00
C956   C     0.38480   0.64603   0.54032   0.00000  Uiso   1.00
C957   C     0.10924   0.64099   0.54409   0.00000  Uiso   1.00
C958   C     0.38480   0.85397   0.45968   0.00000  Uiso   1.00
C959   C     0.39076   0.85900   0.54409   0.00000  Uiso   1.00
C960   C     0.11521   0.64605   0.45968   0.00000  Uiso   1.00
C961   C     0.14075   0.89101   0.45591   0.00000  Uiso   1.00
C962   C     0.36520   0.60397   0.54032   0.00000  Uiso   1.00
C963   C     0.35925   0.60900   0.45591   0.00000  Uiso   1.00
C964   C     0.13483   0.89600   0.54033   0.00000  Uiso   1.00
C965   C     0.35925   0.89101   0.54409   0.00000  Uiso   1.00
C966   C     0.13481   0.60398   0.45967   0.00000  Uiso   1.00
C967   C     0.14074   0.60898   0.54409   0.00000  Uiso   1.00
C968   C     0.36520   0.89604   0.45968   0.00000  Uiso   1.00
C969   C     0.09601   0.83981   0.49853   0.00000  Uiso   1.00
C970   C     0.40401   0.66017   0.49853   0.00000  Uiso   1.00
C971   C     0.40401   0.83983   0.50147   0.00000  Uiso   1.00
C972   C     0.09599   0.66017   0.50147   0.00000  Uiso   1.00
C973   C     0.34599   0.58983   0.49853   0.00000  Uiso   1.00
C974   C     0.15402   0.91016   0.49853   0.00000  Uiso   1.00
C975   C     0.15401   0.58983   0.50147   0.00000  Uiso   1.00
C976   C     0.34600   0.91018   0.50147   0.00000  Uiso   1.00
O977   O     0.49765   0.67133   0.38337   0.00000  Uiso   1.00
C978   C     0.03422   0.64576   0.37787   0.00000  Uiso   1.00
H979   H     0.04232   0.63123   0.41218   0.00000  Uiso   1.00
H980   H     0.06145   0.66501   0.36468   0.00000  Uiso   1.00
H981   H     0.02841   0.61707   0.35457   0.00000  Uiso   1.00
O982   O     0.49767   0.82867   0.61663   0.00000  Uiso   1.00
C983   C     0.03424   0.85423   0.62213   0.00000  Uiso   1.00
H984   H     0.04234   0.86877   0.58783   0.00000  Uiso   1.00
H985   H     0.06147   0.83498   0.63530   0.00000  Uiso   1.00
H986   H     0.02844   0.88291   0.64544   0.00000  Uiso   1.00
O987   O     0.00236   0.82867   0.38336   0.00000  Uiso   1.00
C988   C     0.46580   0.85425   0.37786   0.00000  Uiso   1.00
H989   H     0.45770   0.86878   0.41217   0.00000  Uiso   1.00
H990   H     0.43857   0.83501   0.36468   0.00000  Uiso   1.00
H991   H     0.47161   0.88293   0.35456   0.00000  Uiso   1.00
O992   O     0.00235   0.67133   0.61664   0.00000  Uiso   1.00
C993   C     0.46579   0.64576   0.62214   0.00000  Uiso   1.00
H994   H     0.45769   0.63123   0.58783   0.00000  Uiso   1.00
H995   H     0.43856   0.66500   0.63532   0.00000  Uiso   1.00
H996   H     0.47159   0.61707   0.64544   0.00000  Uiso   1.00
O997   O     0.24765   0.92133   0.38336   0.00000  Uiso   1.00
C998   C     0.28421   0.89576   0.37788   0.00000  Uiso   1.00
H999   H     0.29231   0.88123   0.41220   0.00000  Uiso   1.00
H1000  H     0.31144   0.91500   0.36470   0.00000  Uiso   1.00
H1001  H     0.27842   0.86707   0.35459   0.00000  Uiso   1.00
O1002  O     0.24764   0.57867   0.61664   0.00000  Uiso   1.00
C1003  C     0.28420   0.60424   0.62212   0.00000  Uiso   1.00
H1004  H     0.29230   0.61877   0.58781   0.00000  Uiso   1.00
H1005  H     0.31143   0.58500   0.63530   0.00000  Uiso   1.00
H1006  H     0.27840   0.63294   0.64541   0.00000  Uiso   1.00
O1007  O     0.25237   0.57867   0.38336   0.00000  Uiso   1.00
C1008  C     0.21581   0.60425   0.37788   0.00000  Uiso   1.00
H1009  H     0.20772   0.61878   0.41219   0.00000  Uiso   1.00
H1010  H     0.18857   0.58500   0.36471   0.00000  Uiso   1.00
H1011  H     0.22161   0.63293   0.35457   0.00000  Uiso   1.00
O1012  O     0.25239   0.92133   0.61664   0.00000  Uiso   1.00
C1013  C     0.21583   0.89575   0.62212   0.00000  Uiso   1.00
H1014  H     0.20774   0.88122   0.58780   0.00000  Uiso   1.00
H1015  H     0.18859   0.91498   0.63530   0.00000  Uiso   1.00
H1016  H     0.22164   0.86705   0.64541   0.00000  Uiso   1.00
N1017  N     0.40804   0.65385   0.41182   0.00000  Uiso   1.00
O1018  O     0.39761   0.69194   0.39343   0.00000  Uiso   1.00
O1019  O     0.42431   0.62326   0.38532   0.00000  Uiso   1.00
N1020  N     0.12267   0.82256   0.57779   0.00000  Uiso   1.00
O1021  O     0.12172   0.77994   0.56919   0.00000  Uiso   1.00
O1022  O     0.14055   0.83527   0.61626   0.00000  Uiso   1.00
N1023  N     0.09194   0.84618   0.41182   0.00000  Uiso   1.00
O1024  O     0.10236   0.80811   0.39340   0.00000  Uiso   1.00
O1025  O     0.07565   0.87679   0.38535   0.00000  Uiso   1.00
N1026  N     0.37734   0.67741   0.57779   0.00000  Uiso   1.00
O1027  O     0.35958   0.66467   0.61631   0.00000  Uiso   1.00
O1028  O     0.37818   0.72002   0.56915   0.00000  Uiso   1.00
N1029  N     0.09192   0.65380   0.58818   0.00000  Uiso   1.00
O1030  O     0.10235   0.69187   0.60660   0.00000  Uiso   1.00
O1031  O     0.07563   0.62319   0.61465   0.00000  Uiso   1.00
N1032  N     0.37734   0.82260   0.42221   0.00000  Uiso   1.00
O1033  O     0.35959   0.83534   0.38369   0.00000  Uiso   1.00
O1034  O     0.37817   0.77999   0.43086   0.00000  Uiso   1.00
N1035  N     0.40805   0.84616   0.58818   0.00000  Uiso   1.00
O1036  O     0.39762   0.80808   0.60658   0.00000  Uiso   1.00
O1037  O     0.42433   0.87675   0.61467   0.00000  Uiso   1.00
N1038  N     0.12267   0.67742   0.42221   0.00000  Uiso   1.00
O1039  O     0.12176   0.72004   0.43083   0.00000  Uiso   1.00
O1040  O     0.14047   0.66470   0.38371   0.00000  Uiso   1.00
N1041  N     0.15803   0.90387   0.41182   0.00000  Uiso   1.00
O1042  O     0.14759   0.94196   0.39346   0.00000  Uiso   1.00
O1043  O     0.17428   0.87329   0.38529   0.00000  Uiso   1.00
N1044  N     0.37266   0.57259   0.57778   0.00000  Uiso   1.00
O1045  O     0.39041   0.58533   0.61631   0.00000  Uiso   1.00
O1046  O     0.37183   0.52998   0.56914   0.00000  Uiso   1.00
N1047  N     0.34196   0.59616   0.41182   0.00000  Uiso   1.00
O1048  O     0.35239   0.55807   0.39343   0.00000  Uiso   1.00
O1049  O     0.32569   0.62675   0.38531   0.00000  Uiso   1.00
N1050  N     0.12737   0.92736   0.57780   0.00000  Uiso   1.00
O1051  O     0.10964   0.91460   0.61634   0.00000  Uiso   1.00
O1052  O     0.12817   0.96997   0.56917   0.00000  Uiso   1.00
N1053  N     0.34197   0.90386   0.58818   0.00000  Uiso   1.00
O1054  O     0.35240   0.94194   0.60656   0.00000  Uiso   1.00
O1055  O     0.32571   0.87327   0.61470   0.00000  Uiso   1.00
N1056  N     0.12735   0.57262   0.42221   0.00000  Uiso   1.00
O1057  O     0.10961   0.58537   0.38368   0.00000  Uiso   1.00
O1058  O     0.12817   0.53000   0.43085   0.00000  Uiso   1.00
N1059  N     0.15801   0.59611   0.58818   0.00000  Uiso   1.00
O1060  O     0.14758   0.55802   0.60654   0.00000  Uiso   1.00
O1061  O     0.17426   0.62669   0.61472   0.00000  Uiso   1.00
N1062  N     0.37267   0.92742   0.42222   0.00000  Uiso   1.00
O1063  O     0.39043   0.91468   0.38369   0.00000  Uiso   1.00
O1064  O     0.37183   0.97002   0.43086   0.00000  Uiso   1.00
O1065  O     0.54509   0.70491   0.53958   0.00000  Uiso   1.00
O1066  O     0.95492   0.79509   0.46042   0.00000  Uiso   1.00
O1067  O     0.95492   0.79509   0.53958   0.00000  Uiso   1.00
O1068  O     0.54509   0.70491   0.46042   0.00000  Uiso   1.00
O1069  O     0.95492   0.70491   0.46042   0.00000  Uiso   1.00
O1070  O     0.54509   0.79509   0.53958   0.00000  Uiso   1.00
O1071  O     0.54509   0.79509   0.46042   0.00000  Uiso   1.00
O1072  O     0.95492   0.70491   0.53958   0.00000  Uiso   1.00
O1073  O     0.79509   0.95491   0.53958   0.00000  Uiso   1.00
O1074  O     0.70492   0.54509   0.46042   0.00000  Uiso   1.00
O1075  O     0.70492   0.54509   0.53958   0.00000  Uiso   1.00
O1076  O     0.79509   0.95491   0.46042   0.00000  Uiso   1.00
O1077  O     0.70492   0.95491   0.46042   0.00000  Uiso   1.00
O1078  O     0.79509   0.54509   0.53958   0.00000  Uiso   1.00
O1079  O     0.79509   0.54509   0.46042   0.00000  Uiso   1.00
O1080  O     0.70492   0.95491   0.53958   0.00000  Uiso   1.00
C1081  C     0.56084   0.69206   0.50025   0.00000  Uiso   1.00
C1082  C     0.93917   0.80794   0.50025   0.00000  Uiso   1.00
C1083  C     0.93916   0.69206   0.49975   0.00000  Uiso   1.00
C1084  C     0.56084   0.80793   0.49975   0.00000  Uiso   1.00
C1085  C     0.81084   0.94206   0.50025   0.00000  Uiso   1.00
C1086  C     0.68916   0.55794   0.50025   0.00000  Uiso   1.00
C1087  C     0.68917   0.94206   0.49975   0.00000  Uiso   1.00
C1088  C     0.81084   0.55794   0.49975   0.00000  Uiso   1.00
N1089  N     0.50000   0.75000   0.61736   0.00000  Uiso   1.00
N1090  N     0.50000   0.75000   0.38264   0.00000  Uiso   1.00
N1091  N     0.75000   0.50000   0.61736   0.00000  Uiso   1.00
N1092  N     0.75000   0.50000   0.38264   0.00000  Uiso   1.00
Cu1093 Cu    0.50000   0.75000   0.54689   0.00000  Uiso   1.00
Cu1094 Cu    0.50000   0.75000   0.45311   0.00000  Uiso   1.00
Cu1095 Cu    0.75000   0.50000   0.54689   0.00000  Uiso   1.00
Cu1096 Cu    0.75000   0.50000   0.45311   0.00000  Uiso   1.00
C1097  C     0.50018   0.71067   0.35839   0.00000  Uiso   1.00
C1098  C     0.50019   0.78933   0.64161   0.00000  Uiso   1.00
C1099  C     0.99982   0.78933   0.35839   0.00000  Uiso   1.00
C1100  C     0.99982   0.71067   0.64161   0.00000  Uiso   1.00
C1101  C     0.75018   0.96067   0.35839   0.00000  Uiso   1.00
C1102  C     0.75018   0.53933   0.64161   0.00000  Uiso   1.00
C1103  C     0.74982   0.53933   0.35839   0.00000  Uiso   1.00
C1104  C     0.74983   0.96067   0.64161   0.00000  Uiso   1.00
C1105  C     0.89075   0.64101   0.45591   0.00000  Uiso   1.00
C1106  C     0.61523   0.85393   0.54032   0.00000  Uiso   1.00
C1107  C     0.60925   0.85899   0.45591   0.00000  Uiso   1.00
C1108  C     0.88480   0.64603   0.54032   0.00000  Uiso   1.00
C1109  C     0.60924   0.64099   0.54409   0.00000  Uiso   1.00
C1110  C     0.88480   0.85397   0.45968   0.00000  Uiso   1.00
C1111  C     0.89076   0.85900   0.54409   0.00000  Uiso   1.00
C1112  C     0.61521   0.64605   0.45968   0.00000  Uiso   1.00
C1113  C     0.64075   0.89101   0.45591   0.00000  Uiso   1.00
C1114  C     0.86520   0.60397   0.54032   0.00000  Uiso   1.00
C1115  C     0.85925   0.60900   0.45591   0.00000  Uiso   1.00
C1116  C     0.63483   0.89600   0.54033   0.00000  Uiso   1.00
C1117  C     0.85925   0.89101   0.54409   0.00000  Uiso   1.00
C1118  C     0.63481   0.60398   0.45967   0.00000  Uiso   1.00
C1119  C     0.64074   0.60898   0.54409   0.00000  Uiso   1.00
C1120  C     0.86520   0.89604   0.45968   0.00000  Uiso   1.00
C1121  C     0.59601   0.83981   0.49853   0.00000  Uiso   1.00
C1122  C     0.90401   0.66017   0.49853   0.00000  Uiso   1.00
C1123  C     0.90401   0.83983   0.50147   0.00000  Uiso   1.00
C1124  C     0.59599   0.66017   0.50147   0.00000  Uiso   1.00
C1125  C     0.84599   0.58983   0.49853   0.00000  Uiso   1.00
C1126  C     0.65402   0.91016   0.49853   0.00000  Uiso   1.00
C1127  C     0.65401   0.58983   0.50147   0.00000  Uiso   1.00
C1128  C     0.84600   0.91018   0.50147   0.00000  Uiso   1.00
O1129  O     0.99765   0.67133   0.38337   0.00000  Uiso   1.00
C1130  C     0.53422   0.64576   0.37787   0.00000  Uiso   1.00
H1131  H     0.54232   0.63123   0.41218   0.00000  Uiso   1.00
H1132  H     0.56145   0.66501   0.36468   0.00000  Uiso   1.00
H1133  H     0.52841   0.61707   0.35457   0.00000  Uiso   1.00
O1134  O     0.99767   0.82867   0.61663   0.00000  Uiso   1.00
C1135  C     0.53424   0.85423   0.62213   0.00000  Uiso   1.00
H1136  H     0.54234   0.86877   0.58783   0.00000  Uiso   1.00
H1137  H     0.56147   0.83498   0.63530   0.00000  Uiso   1.00
H1138  H     0.52844   0.88291   0.64544   0.00000  Uiso   1.00
O1139  O     0.50236   0.82867   0.38336   0.00000  Uiso   1.00
C1140  C     0.96580   0.85425   0.37786   0.00000  Uiso   1.00
H1141  H     0.95770   0.86878   0.41217   0.00000  Uiso   1.00
H1142  H     0.93857   0.83501   0.36468   0.00000  Uiso   1.00
H1143  H     0.97161   0.88293   0.35456   0.00000  Uiso   1.00
O1144  O     0.50235   0.67133   0.61664   0.00000  Uiso   1.00
C1145  C     0.96579   0.64576   0.62214   0.00000  Uiso   1.00
H1146  H     0.95769   0.63123   0.58783   0.00000  Uiso   1.00
H1147  H     0.93856   0.66500   0.63532   0.00000  Uiso   1.00
H1148  H     0.97159   0.61707   0.64544   0.00000  Uiso   1.00
O1149  O     0.74765   0.92133   0.38336   0.00000  Uiso   1.00
C1150  C     0.78421   0.89576   0.37788   0.00000  Uiso   1.00
H1151  H     0.79231   0.88123   0.41220   0.00000  Uiso   1.00
H1152  H     0.81144   0.91500   0.36470   0.00000  Uiso   1.00
H1153  H     0.77842   0.86707   0.35459   0.00000  Uiso   1.00
O1154  O     0.74764   0.57867   0.61664   0.00000  Uiso   1.00
C1155  C     0.78420   0.60424   0.62212   0.00000  Uiso   1.00
H1156  H     0.79230   0.61877   0.58781   0.00000  Uiso   1.00
H1157  H     0.81143   0.58500   0.63530   0.00000  Uiso   1.00
H1158  H     0.77840   0.63294   0.64541   0.00000  Uiso   1.00
O1159  O     0.75237   0.57867   0.38336   0.00000  Uiso   1.00
C1160  C     0.71581   0.60425   0.37788   0.00000  Uiso   1.00
H1161  H     0.70772   0.61878   0.41219   0.00000  Uiso   1.00
H1162  H     0.68857   0.58500   0.36471   0.00000  Uiso   1.00
H1163  H     0.72161   0.63293   0.35457   0.00000  Uiso   1.00
O1164  O     0.75239   0.92133   0.61664   0.00000  Uiso   1.00
C1165  C     0.71583   0.89575   0.62212   0.00000  Uiso   1.00
H1166  H     0.70774   0.88122   0.58780   0.00000  Uiso   1.00
H1167  H     0.68859   0.91498   0.63530   0.00000  Uiso   1.00
H1168  H     0.72164   0.86705   0.64541   0.00000  Uiso   1.00
N1169  N     0.90804   0.65385   0.41182   0.00000  Uiso   1.00
O1170  O     0.89761   0.69194   0.39343   0.00000  Uiso   1.00
O1171  O     0.92431   0.62326   0.38532   0.00000  Uiso   1.00
N1172  N     0.62267   0.82256   0.57779   0.00000  Uiso   1.00
O1173  O     0.62172   0.77994   0.56919   0.00000  Uiso   1.00
O1174  O     0.64055   0.83527   0.61626   0.00000  Uiso   1.00
N1175  N     0.59194   0.84618   0.41182   0.00000  Uiso   1.00
O1176  O     0.60236   0.80811   0.39340   0.00000  Uiso   1.00
O1177  O     0.57565   0.87679   0.38535   0.00000  Uiso   1.00
N1178  N     0.87734   0.67741   0.57779   0.00000  Uiso   1.00
O1179  O     0.85958   0.66467   0.61631   0.00000  Uiso   1.00
O1180  O     0.87818   0.72002   0.56915   0.00000  Uiso   1.00
N1181  N     0.59192   0.65380   0.58818   0.00000  Uiso   1.00
O1182  O     0.60235   0.69187   0.60660   0.00000  Uiso   1.00
O1183  O     0.57563   0.62319   0.61465   0.00000  Uiso   1.00
N1184  N     0.87734   0.82260   0.42221   0.00000  Uiso   1.00
O1185  O     0.85959   0.83534   0.38369   0.00000  Uiso   1.00
O1186  O     0.87817   0.77999   0.43086   0.00000  Uiso   1.00
N1187  N     0.90805   0.84616   0.58818   0.00000  Uiso   1.00
O1188  O     0.89762   0.80808   0.60658   0.00000  Uiso   1.00
O1189  O     0.92433   0.87675   0.61467   0.00000  Uiso   1.00
N1190  N     0.62267   0.67742   0.42221   0.00000  Uiso   1.00
O1191  O     0.62176   0.72004   0.43083   0.00000  Uiso   1.00
O1192  O     0.64047   0.66470   0.38371   0.00000  Uiso   1.00
N1193  N     0.65803   0.90387   0.41182   0.00000  Uiso   1.00
O1194  O     0.64759   0.94196   0.39346   0.00000  Uiso   1.00
O1195  O     0.67428   0.87329   0.38529   0.00000  Uiso   1.00
N1196  N     0.87266   0.57259   0.57778   0.00000  Uiso   1.00
O1197  O     0.89041   0.58533   0.61631   0.00000  Uiso   1.00
O1198  O     0.87183   0.52998   0.56914   0.00000  Uiso   1.00
N1199  N     0.84196   0.59616   0.41182   0.00000  Uiso   1.00
O1200  O     0.85239   0.55807   0.39343   0.00000  Uiso   1.00
O1201  O     0.82569   0.62675   0.38531   0.00000  Uiso   1.00
N1202  N     0.62737   0.92736   0.57780   0.00000  Uiso   1.00
O1203  O     0.60964   0.91460   0.61634   0.00000  Uiso   1.00
O1204  O     0.62817   0.96997   0.56917   0.00000  Uiso   1.00
N1205  N     0.84197   0.90386   0.58818   0.00000  Uiso   1.00
O1206  O     0.85240   0.94194   0.60656   0.00000  Uiso   1.00
O1207  O     0.82571   0.87327   0.61470   0.00000  Uiso   1.00
N1208  N     0.62735   0.57262   0.42221   0.00000  Uiso   1.00
O1209  O     0.60961   0.58537   0.38368   0.00000  Uiso   1.00
O1210  O     0.62817   0.53000   0.43085   0.00000  Uiso   1.00
N1211  N     0.65801   0.59611   0.58818   0.00000  Uiso   1.00
O1212  O     0.64758   0.55802   0.60654   0.00000  Uiso   1.00
O1213  O     0.67426   0.62669   0.61472   0.00000  Uiso   1.00
N1214  N     0.87267   0.92742   0.42222   0.00000  Uiso   1.00
O1215  O     0.89043   0.91468   0.38369   0.00000  Uiso   1.00
O1216  O     0.87183   0.97002   0.43086   0.00000  Uiso   1.00
O1217  O     0.04509   0.20491   0.87291   0.00000  Uiso   1.00
O1218  O     0.45492   0.29509   0.79375   0.00000  Uiso   1.00
O1219  O     0.45492   0.29509   0.87291   0.00000  Uiso   1.00
O1220  O     0.04509   0.20491   0.79375   0.00000  Uiso   1.00
O1221  O     0.45492   0.20491   0.79375   0.00000  Uiso   1.00
O1222  O     0.04509   0.29509   0.87291   0.00000  Uiso   1.00
O1223  O     0.04509   0.29509   0.79375   0.00000  Uiso   1.00
O1224  O     0.45492   0.20491   0.87291   0.00000  Uiso   1.00
O1225  O     0.29509   0.45491   0.87291   0.00000  Uiso   1.00
O1226  O     0.20492   0.04509   0.79375   0.00000  Uiso   1.00
O1227  O     0.20492   0.04509   0.87291   0.00000  Uiso   1.00
O1228  O     0.29509   0.45491   0.79375   0.00000  Uiso   1.00
O1229  O     0.20492   0.45491   0.79375   0.00000  Uiso   1.00
O1230  O     0.29509   0.04509   0.87291   0.00000  Uiso   1.00
O1231  O     0.29509   0.04509   0.79375   0.00000  Uiso   1.00
O1232  O     0.20492   0.45491   0.87291   0.00000  Uiso   1.00
C1233  C     0.06084   0.19206   0.83358   0.00000  Uiso   1.00
C1234  C     0.43917   0.30794   0.83358   0.00000  Uiso   1.00
C1235  C     0.43916   0.19206   0.83308   0.00000  Uiso   1.00
C1236  C     0.06084   0.30793   0.83308   0.00000  Uiso   1.00
C1237  C     0.31084   0.44206   0.83358   0.00000  Uiso   1.00
C1238  C     0.18916   0.05794   0.83358   0.00000  Uiso   1.00
C1239  C     0.18917   0.44206   0.83308   0.00000  Uiso   1.00
C1240  C     0.31084   0.05794   0.83308   0.00000  Uiso   1.00
N1241  N     0.00000   0.25000   0.95069   0.00000  Uiso   1.00
N1242  N     0.00000   0.25000   0.71598   0.00000  Uiso   1.00
N1243  N     0.25000  -0.00000   0.95069   0.00000  Uiso   1.00
N1244  N     0.25000  -0.00000   0.71598   0.00000  Uiso   1.00
Cu1245 Cu    0.00000   0.25000   0.88022   0.00000  Uiso   1.00
Cu1246 Cu    0.00000   0.25000   0.78645   0.00000  Uiso   1.00
Cu1247 Cu    0.25000  -0.00000   0.88022   0.00000  Uiso   1.00
Cu1248 Cu    0.25000  -0.00000   0.78645   0.00000  Uiso   1.00
C1249  C     0.00018   0.21067   0.69173   0.00000  Uiso   1.00
C1250  C     0.00019   0.28933   0.97494   0.00000  Uiso   1.00
C1251  C     0.49982   0.28933   0.69172   0.00000  Uiso   1.00
C1252  C     0.49982   0.21067   0.97494   0.00000  Uiso   1.00
C1253  C     0.25018   0.46067   0.69173   0.00000  Uiso   1.00
C1254  C     0.25018   0.03933   0.97494   0.00000  Uiso   1.00
C1255  C     0.24982   0.03933   0.69172   0.00000  Uiso   1.00
C1256  C     0.24983   0.46067   0.97494   0.00000  Uiso   1.00
C1257  C     0.39075   0.14101   0.78925   0.00000  Uiso   1.00
C1258  C     0.11523   0.35393   0.87366   0.00000  Uiso   1.00
C1259  C     0.10925   0.35899   0.78925   0.00000  Uiso   1.00
C1260  C     0.38480   0.14603   0.87366   0.00000  Uiso   1.00
C1261  C     0.10924   0.14099   0.87742   0.00000  Uiso   1.00
C1262  C     0.38480   0.35397   0.79301   0.00000  Uiso   1.00
C1263  C     0.39076   0.35900   0.87742   0.00000  Uiso   1.00
C1264  C     0.11521   0.14605   0.79301   0.00000  Uiso   1.00
C1265  C     0.14075   0.39101   0.78925   0.00000  Uiso   1.00
C1266  C     0.36520   0.10397   0.87366   0.00000  Uiso   1.00
C1267  C     0.35925   0.10900   0.78924   0.00000  Uiso   1.00
C1268  C     0.13483   0.39600   0.87366   0.00000  Uiso   1.00
C1269  C     0.35925   0.39101   0.87742   0.00000  Uiso   1.00
C1270  C     0.13481   0.10398   0.79301   0.00000  Uiso   1.00
C1271  C     0.14074   0.10898   0.87742   0.00000  Uiso   1.00
C1272  C     0.36520   0.39604   0.79301   0.00000  Uiso   1.00
C1273  C     0.09601   0.33981   0.83186   0.00000  Uiso   1.00
C1274  C     0.40401   0.16017   0.83186   0.00000  Uiso   1.00
C1275  C     0.40401   0.33983   0.83480   0.00000  Uiso   1.00
C1276  C     0.09599   0.16017   0.83481   0.00000  Uiso   1.00
C1277  C     0.34599   0.08983   0.83186   0.00000  Uiso   1.00
C1278  C     0.15402   0.41016   0.83186   0.00000  Uiso   1.00
C1279  C     0.15401   0.08983   0.83480   0.00000  Uiso   1.00
C1280  C     0.34600   0.41018   0.83481   0.00000  Uiso   1.00
O1281  O     0.49765   0.17133   0.71670   0.00000  Uiso   1.00
C1282  C     0.03422   0.14576   0.71120   0.00000  Uiso   1.00
H1283  H     0.04232   0.13123   0.74551   0.00000  Uiso   1.00
H1284  H     0.06145   0.16501   0.69802   0.00000  Uiso   1.00
H1285  H     0.02841   0.11707   0.68791   0.00000  Uiso   1.00
O1286  O     0.49767   0.32867   0.94997   0.00000  Uiso   1.00
C1287  C     0.03424   0.35423   0.95547   0.00000  Uiso   1.00
H1288  H     0.04234   0.36877   0.92116   0.00000  Uiso   1.00
H1289  H     0.06147   0.33498   0.96863   0.00000  Uiso   1.00
H1290  H     0.02844   0.38291   0.97877   0.00000  Uiso   1.00
O1291  O     0.00236   0.32867   0.71669   0.00000  Uiso   1.00
C1292  C     0.46580   0.35425   0.71119   0.00000  Uiso   1.00
H1293  H     0.45770   0.36878   0.74550   0.00000  Uiso   1.00
H1294  H     0.43857   0.33501   0.69801   0.00000  Uiso   1.00
H1295  H     0.47161   0.38293   0.68790   0.00000  Uiso   1.00
O1296  O     0.00235   0.17133   0.94997   0.00000  Uiso   1.00
C1297  C     0.46579   0.14576   0.95547   0.00000  Uiso   1.00
H1298  H     0.45769   0.13123   0.92116   0.00000  Uiso   1.00
H1299  H     0.43856   0.16500   0.96865   0.00000  Uiso   1.00
H1300  H     0.47159   0.11707   0.97877   0.00000  Uiso   1.00
O1301  O     0.24765   0.42133   0.71670   0.00000  Uiso   1.00
C1302  C     0.28421   0.39576   0.71122   0.00000  Uiso   1.00
H1303  H     0.29231   0.38123   0.74553   0.00000  Uiso   1.00
H1304  H     0.31144   0.41500   0.69804   0.00000  Uiso   1.00
H1305  H     0.27842   0.36707   0.68792   0.00000  Uiso   1.00
O1306  O     0.24764   0.07867   0.94997   0.00000  Uiso   1.00
C1307  C     0.28420   0.10424   0.95545   0.00000  Uiso   1.00
H1308  H     0.29230   0.11877   0.92114   0.00000  Uiso   1.00
H1309  H     0.31143   0.08500   0.96863   0.00000  Uiso   1.00
H1310  H     0.27840   0.13294   0.97874   0.00000  Uiso   1.00
O1311  O     0.25237   0.07867   0.71669   0.00000  Uiso   1.00
C1312  C     0.21581   0.10425   0.71121   0.00000  Uiso   1.00
H1313  H     0.20772   0.11878   0.74552   0.00000  Uiso   1.00
H1314  H     0.18857   0.08500   0.69804   0.00000  Uiso   1.00
H1315  H     0.22161   0.13293   0.68791   0.00000  Uiso   1.00
O1316  O     0.25239   0.42133   0.94998   0.00000  Uiso   1.00
C1317  C     0.21583   0.39575   0.95545   0.00000  Uiso   1.00
H1318  H     0.20774   0.38122   0.92114   0.00000  Uiso   1.00
H1319  H     0.18859   0.41498   0.96863   0.00000  Uiso   1.00
H1320  H     0.22164   0.36705   0.97874   0.00000  Uiso   1.00
N1321  N     0.40804   0.15385   0.74515   0.00000  Uiso   1.00
O1322  O     0.39761   0.19194   0.72676   0.00000  Uiso   1.00
O1323  O     0.42431   0.12326   0.71865   0.00000  Uiso   1.00
N1324  N     0.12267   0.32256   0.91112   0.00000  Uiso   1.00
O1325  O     0.12172   0.27994   0.90252   0.00000  Uiso   1.00
O1326  O     0.14055   0.33527   0.94959   0.00000  Uiso   1.00
N1327  N     0.09194   0.34618   0.74516   0.00000  Uiso   1.00
O1328  O     0.10236   0.30811   0.72674   0.00000  Uiso   1.00
O1329  O     0.07565   0.37679   0.71869   0.00000  Uiso   1.00
N1330  N     0.37734   0.17741   0.91112   0.00000  Uiso   1.00
O1331  O     0.35958   0.16467   0.94964   0.00000  Uiso   1.00
O1332  O     0.37818   0.22002   0.90248   0.00000  Uiso   1.00
N1333  N     0.09192   0.15380   0.92151   0.00000  Uiso   1.00
O1334  O     0.10235   0.19187   0.93994   0.00000  Uiso   1.00
O1335  O     0.07563   0.12319   0.94798   0.00000  Uiso   1.00
N1336  N     0.37734   0.32260   0.75555   0.00000  Uiso   1.00
O1337  O     0.35959   0.33534   0.71702   0.00000  Uiso   1.00
O1338  O     0.37817   0.27999   0.76419   0.00000  Uiso   1.00
N1339  N     0.40805   0.34616   0.92151   0.00000  Uiso   1.00
O1340  O     0.39762   0.30808   0.93991   0.00000  Uiso   1.00
O1341  O     0.42433   0.37675   0.94801   0.00000  Uiso   1.00
N1342  N     0.12267   0.17742   0.75555   0.00000  Uiso   1.00
O1343  O     0.12176   0.22004   0.76417   0.00000  Uiso   1.00
O1344  O     0.14047   0.16470   0.71705   0.00000  Uiso   1.00
N1345  N     0.15803   0.40387   0.74515   0.00000  Uiso   1.00
O1346  O     0.14759   0.44196   0.72679   0.00000  Uiso   1.00
O1347  O     0.17428   0.37329   0.71862   0.00000  Uiso   1.00
N1348  N     0.37266   0.07259   0.91112   0.00000  Uiso   1.00
O1349  O     0.39041   0.08533   0.94964   0.00000  Uiso   1.00
O1350  O     0.37183   0.02998   0.90247   0.00000  Uiso   1.00
N1351  N     0.34196   0.09616   0.74515   0.00000  Uiso   1.00
O1352  O     0.35239   0.05807   0.72677   0.00000  Uiso   1.00
O1353  O     0.32569   0.12675   0.71865   0.00000  Uiso   1.00
N1354  N     0.12737   0.42736   0.91114   0.00000  Uiso   1.00
O1355  O     0.10964   0.41460   0.94967   0.00000  Uiso   1.00
O1356  O     0.12817   0.46997   0.90250   0.00000  Uiso   1.00
N1357  N     0.34197   0.40386   0.92152   0.00000  Uiso   1.00
O1358  O     0.35240   0.44194   0.93989   0.00000  Uiso   1.00
O1359  O     0.32571   0.37327   0.94803   0.00000  Uiso   1.00
N1360  N     0.12735   0.07262   0.75554   0.00000  Uiso   1.00
O1361  O     0.10961   0.08537   0.71701   0.00000  Uiso   1.00
O1362  O     0.12817   0.03000   0.76418   0.00000  Uiso   1.00
N1363  N     0.15801   0.09611   0.92152   0.00000  Uiso   1.00
O1364  O     0.14758   0.05802   0.93988   0.00000  Uiso   1.00
O1365  O     0.17426   0.12669   0.94805   0.00000  Uiso   1.00
N1366  N     0.37267   0.42742   0.75555   0.00000  Uiso   1.00
O1367  O     0.39043   0.41468   0.71703   0.00000  Uiso   1.00
O1368  O     0.37183   0.47002   0.76419   0.00000  Uiso   1.00
O1369  O     0.54509   0.20491   0.87291   0.00000  Uiso   1.00
O1370  O     0.95492   0.29509   0.79375   0.00000  Uiso   1.00
O1371  O     0.95492   0.29509   0.87291   0.00000  Uiso   1.00
O1372  O     0.54509   0.20491   0.79375   0.00000  Uiso   1.00
O1373  O     0.95492   0.20491   0.79375   0.00000  Uiso   1.00
O1374  O     0.54509   0.29509   0.87291   0.00000  Uiso   1.00
O1375  O     0.54509   0.29509   0.79375   0.00000  Uiso   1.00
O1376  O     0.95492   0.20491   0.87291   0.00000  Uiso   1.00
O1377  O     0.79509   0.45491   0.87291   0.00000  Uiso   1.00
O1378  O     0.70492   0.04509   0.79375   0.00000  Uiso   1.00
O1379  O     0.70492   0.04509   0.87291   0.00000  Uiso   1.00
O1380  O     0.79509   0.45491   0.79375   0.00000  Uiso   1.00
O1381  O     0.70492   0.45491   0.79375   0.00000  Uiso   1.00
O1382  O     0.79509   0.04509   0.87291   0.00000  Uiso   1.00
O1383  O     0.79509   0.04509   0.79375   0.00000  Uiso   1.00
O1384  O     0.70492   0.45491   0.87291   0.00000  Uiso   1.00
C1385  C     0.56084   0.19206   0.83358   0.00000  Uiso   1.00
C1386  C     0.93917   0.30794   0.83358   0.00000  Uiso   1.00
C1387  C     0.93916   0.19206   0.83308   0.00000  Uiso   1.00
C1388  C     0.56084   0.30793   0.83308   0.00000  Uiso   1.00
C1389  C     0.81084   0.44206   0.83358   0.00000  Uiso   1.00
C1390  C     0.68916   0.05794   0.83358   0.00000  Uiso   1.00
C1391  C     0.68917   0.44206   0.83308   0.00000  Uiso   1.00
C1392  C     0.81084   0.05794   0.83308   0.00000  Uiso   1.00
N1393  N     0.50000   0.25000   0.95069   0.00000  Uiso   1.00
N1394  N     0.50000   0.25000   0.71598   0.00000  Uiso   1.00
N1395  N     0.75000  -0.00000   0.95069   0.00000  Uiso   1.00
N1396  N     0.75000  -0.00000   0.71598   0.00000  Uiso   1.00
Cu1397 Cu    0.50000   0.25000   0.88022   0.00000  Uiso   1.00
Cu1398 Cu    0.50000   0.25000   0.78645   0.00000  Uiso   1.00
Cu1399 Cu    0.75000  -0.00000   0.88022   0.00000  Uiso   1.00
Cu1400 Cu    0.75000  -0.00000   0.78645   0.00000  Uiso   1.00
C1401  C     0.50018   0.21067   0.69173   0.00000  Uiso   1.00
C1402  C     0.50019   0.28933   0.97494   0.00000  Uiso   1.00
C1403  C     0.99982   0.28933   0.69172   0.00000  Uiso   1.00
C1404  C     0.99982   0.21067   0.97494   0.00000  Uiso   1.00
C1405  C     0.75018   0.46067   0.69173   0.00000  Uiso   1.00
C1406  C     0.75018   0.03933   0.97494   0.00000  Uiso   1.00
C1407  C     0.74982   0.03933   0.69172   0.00000  Uiso   1.00
C1408  C     0.74983   0.46067   0.97494   0.00000  Uiso   1.00
C1409  C     0.89075   0.14101   0.78925   0.00000  Uiso   1.00
C1410  C     0.61523   0.35393   0.87366   0.00000  Uiso   1.00
C1411  C     0.60925   0.35899   0.78925   0.00000  Uiso   1.00
C1412  C     0.88480   0.14603   0.87366   0.00000  Uiso   1.00
C1413  C     0.60924   0.14099   0.87742   0.00000  Uiso   1.00
C1414  C     0.88480   0.35397   0.79301   0.00000  Uiso   1.00
C1415  C     0.89076   0.35900   0.87742   0.00000  Uiso   1.00
C1416  C     0.61521   0.14605   0.79301   0.00000  Uiso   1.00
C1417  C     0.64075   0.39101   0.78925   0.00000  Uiso   1.00
C1418  C     0.86520   0.10397   0.87366   0.00000  Uiso   1.00
C1419  C     0.85925   0.10900   0.78924   0.00000  Uiso   1.00
C1420  C     0.63483   0.39600   0.87366   0.00000  Uiso   1.00
C1421  C     0.85925   0.39101   0.87742   0.00000  Uiso   1.00
C1422  C     0.63481   0.10398   0.79301   0.00000  Uiso   1.00
C1423  C     0.64074   0.10898   0.87742   0.00000  Uiso   1.00
C1424  C     0.86520   0.39604   0.79301   0.00000  Uiso   1.00
C1425  C     0.59601   0.33981   0.83186   0.00000  Uiso   1.00
C1426  C     0.90401   0.16017   0.83186   0.00000  Uiso   1.00
C1427  C     0.90401   0.33983   0.83480   0.00000  Uiso   1.00
C1428  C     0.59599   0.16017   0.83481   0.00000  Uiso   1.00
C1429  C     0.84599   0.08983   0.83186   0.00000  Uiso   1.00
C1430  C     0.65402   0.41016   0.83186   0.00000  Uiso   1.00
C1431  C     0.65401   0.08983   0.83480   0.00000  Uiso   1.00
C1432  C     0.84600   0.41018   0.83481   0.00000  Uiso   1.00
O1433  O     0.99765   0.17133   0.71670   0.00000  Uiso   1.00
C1434  C     0.53422   0.14576   0.71120   0.00000  Uiso   1.00
H1435  H     0.54232   0.13123   0.74551   0.00000  Uiso   1.00
H1436  H     0.56145   0.16501   0.69802   0.00000  Uiso   1.00
H1437  H     0.52841   0.11707   0.68791   0.00000  Uiso   1.00
O1438  O     0.99767   0.32867   0.94997   0.00000  Uiso   1.00
C1439  C     0.53424   0.35423   0.95547   0.00000  Uiso   1.00
H1440  H     0.54234   0.36877   0.92116   0.00000  Uiso   1.00
H1441  H     0.56147   0.33498   0.96863   0.00000  Uiso   1.00
H1442  H     0.52844   0.38291   0.97877   0.00000  Uiso   1.00
O1443  O     0.50236   0.32867   0.71669   0.00000  Uiso   1.00
C1444  C     0.96580   0.35425   0.71119   0.00000  Uiso   1.00
H1445  H     0.95770   0.36878   0.74550   0.00000  Uiso   1.00
H1446  H     0.93857   0.33501   0.69801   0.00000  Uiso   1.00
H1447  H     0.97161   0.38293   0.68790   0.00000  Uiso   1.00
O1448  O     0.50235   0.17133   0.94997   0.00000  Uiso   1.00
C1449  C     0.96579   0.14576   0.95547   0.00000  Uiso   1.00
H1450  H     0.95769   0.13123   0.92116   0.00000  Uiso   1.00
H1451  H     0.93856   0.16500   0.96865   0.00000  Uiso   1.00
H1452  H     0.97159   0.11707   0.97877   0.00000  Uiso   1.00
O1453  O     0.74765   0.42133   0.71670   0.00000  Uiso   1.00
C1454  C     0.78421   0.39576   0.71122   0.00000  Uiso   1.00
H1455  H     0.79231   0.38123   0.74553   0.00000  Uiso   1.00
H1456  H     0.81144   0.41500   0.69804   0.00000  Uiso   1.00
H1457  H     0.77842   0.36707   0.68792   0.00000  Uiso   1.00
O1458  O     0.74764   0.07867   0.94997   0.00000  Uiso   1.00
C1459  C     0.78420   0.10424   0.95545   0.00000  Uiso   1.00
H1460  H     0.79230   0.11877   0.92114   0.00000  Uiso   1.00
H1461  H     0.81143   0.08500   0.96863   0.00000  Uiso   1.00
H1462  H     0.77840   0.13294   0.97874   0.00000  Uiso   1.00
O1463  O     0.75237   0.07867   0.71669   0.00000  Uiso   1.00
C1464  C     0.71581   0.10425   0.71121   0.00000  Uiso   1.00
H1465  H     0.70772   0.11878   0.74552   0.00000  Uiso   1.00
H1466  H     0.68857   0.08500   0.69804   0.00000  Uiso   1.00
H1467  H     0.72161   0.13293   0.68791   0.00000  Uiso   1.00
O1468  O     0.75239   0.42133   0.94998   0.00000  Uiso   1.00
C1469  C     0.71583   0.39575   0.95545   0.00000  Uiso   1.00
H1470  H     0.70774   0.38122   0.92114   0.00000  Uiso   1.00
H1471  H     0.68859   0.41498   0.96863   0.00000  Uiso   1.00
H1472  H     0.72164   0.36705   0.97874   0.00000  Uiso   1.00
N1473  N     0.90804   0.15385   0.74515   0.00000  Uiso   1.00
O1474  O     0.89761   0.19194   0.72676   0.00000  Uiso   1.00
O1475  O     0.92431   0.12326   0.71865   0.00000  Uiso   1.00
N1476  N     0.62267   0.32256   0.91112   0.00000  Uiso   1.00
O1477  O     0.62172   0.27994   0.90252   0.00000  Uiso   1.00
O1478  O     0.64055   0.33527   0.94959   0.00000  Uiso   1.00
N1479  N     0.59194   0.34618   0.74516   0.00000  Uiso   1.00
O1480  O     0.60236   0.30811   0.72674   0.00000  Uiso   1.00
O1481  O     0.57565   0.37679   0.71869   0.00000  Uiso   1.00
N1482  N     0.87734   0.17741   0.91112   0.00000  Uiso   1.00
O1483  O     0.85958   0.16467   0.94964   0.00000  Uiso   1.00
O1484  O     0.87818   0.22002   0.90248   0.00000  Uiso   1.00
N1485  N     0.59192   0.15380   0.92151   0.00000  Uiso   1.00
O1486  O     0.60235   0.19187   0.93994   0.00000  Uiso   1.00
O1487  O     0.57563   0.12319   0.94798   0.00000  Uiso   1.00
N1488  N     0.87734   0.32260   0.75555   0.00000  Uiso   1.00
O1489  O     0.85959   0.33534   0.71702   0.00000  Uiso   1.00
O1490  O     0.87817   0.27999   0.76419   0.00000  Uiso   1.00
N1491  N     0.90805   0.34616   0.92151   0.00000  Uiso   1.00
O1492  O     0.89762   0.30808   0.93991   0.00000  Uiso   1.00
O1493  O     0.92433   0.37675   0.94801   0.00000  Uiso   1.00
N1494  N     0.62267   0.17742   0.75555   0.00000  Uiso   1.00
O1495  O     0.62176   0.22004   0.76417   0.00000  Uiso   1.00
O1496  O     0.64047   0.16470   0.71705   0.00000  Uiso   1.00
N1497  N     0.65803   0.40387   0.74515   0.00000  Uiso   1.00
O1498  O     0.64759   0.44196   0.72679   0.00000  Uiso   1.00
O1499  O     0.67428   0.37329   0.71862   0.00000  Uiso   1.00
N1500  N     0.87266   0.07259   0.91112   0.00000  Uiso   1.00
O1501  O     0.89041   0.08533   0.94964   0.00000  Uiso   1.00
O1502  O     0.87183   0.02998   0.90247   0.00000  Uiso   1.00
N1503  N     0.84196   0.09616   0.74515   0.00000  Uiso   1.00
O1504  O     0.85239   0.05807   0.72677   0.00000  Uiso   1.00
O1505  O     0.82569   0.12675   0.71865   0.00000  Uiso   1.00
N1506  N     0.62737   0.42736   0.91114   0.00000  Uiso   1.00
O1507  O     0.60964   0.41460   0.94967   0.00000  Uiso   1.00
O1508  O     0.62817   0.46997   0.90250   0.00000  Uiso   1.00
N1509  N     0.84197   0.40386   0.92152   0.00000  Uiso   1.00
O1510  O     0.85240   0.44194   0.93989   0.00000  Uiso   1.00
O1511  O     0.82571   0.37327   0.94803   0.00000  Uiso   1.00
N1512  N     0.62735   0.07262   0.75554   0.00000  Uiso   1.00
O1513  O     0.60961   0.08537   0.71701   0.00000  Uiso   1.00
O1514  O     0.62817   0.03000   0.76418   0.00000  Uiso   1.00
N1515  N     0.65801   0.09611   0.92152   0.00000  Uiso   1.00
O1516  O     0.64758   0.05802   0.93988   0.00000  Uiso   1.00
O1517  O     0.67426   0.12669   0.94805   0.00000  Uiso   1.00
N1518  N     0.87267   0.42742   0.75555   0.00000  Uiso   1.00
O1519  O     0.89043   0.41468   0.71703   0.00000  Uiso   1.00
O1520  O     0.87183   0.47002   0.76419   0.00000  Uiso   1.00
O1521  O     0.04509   0.70491   0.87291   0.00000  Uiso   1.00
O1522  O     0.45492   0.79509   0.79375   0.00000  Uiso   1.00
O1523  O     0.45492   0.79509   0.87291   0.00000  Uiso   1.00
O1524  O     0.04509   0.70491   0.79375   0.00000  Uiso   1.00
O1525  O     0.45492   0.70491   0.79375   0.00000  Uiso   1.00
O1526  O     0.04509   0.79509   0.87291   0.00000  Uiso   1.00
O1527  O     0.04509   0.79509   0.79375   0.00000  Uiso   1.00
O1528  O     0.45492   0.70491   0.87291   0.00000  Uiso   1.00
O1529  O     0.29509   0.95491   0.87291   0.00000  Uiso   1.00
O1530  O     0.20492   0.54509   0.79375   0.00000  Uiso   1.00
O1531  O     0.20492   0.54509   0.87291   0.00000  Uiso   1.00
O1532  O     0.29509   0.95491   0.79375   0.00000  Uiso   1.00
O1533  O     0.20492   0.95491   0.79375   0.00000  Uiso   1.00
O1534  O     0.29509   0.54509   0.87291   0.00000  Uiso   1.00
O1535  O     0.29509   0.54509   0.79375   0.00000  Uiso   1.00
O1536  O     0.20492   0.95491   0.87291   0.00000  Uiso   1.00
C1537  C     0.06084   0.69206   0.83358   0.00000  Uiso   1.00
C1538  C     0.43917   0.80794   0.83358   0.00000  Uiso   1.00
C1539  C     0.43916   0.69206   0.83308   0.00000  Uiso   1.00
C1540  C     0.06084   0.80793   0.83308   0.00000  Uiso   1.00
C1541  C     0.31084   0.94206   0.83358   0.00000  Uiso   1.00
C1542  C     0.18916   0.55794   0.83358   0.00000  Uiso   1.00
C1543  C     0.18917   0.94206   0.83308   0.00000  Uiso   1.00
C1544  C     0.31084   0.55794   0.83308   0.00000  Uiso   1.00
N1545  N     0.00000   0.75000   0.95069   0.00000  Uiso   1.00
N1546  N     0.00000   0.75000   0.71598   0.00000  Uiso   1.00
N1547  N     0.25000   0.50000   0.95069   0.00000  Uiso   1.00
N1548  N     0.25000   0.50000   0.71598   0.00000  Uiso   1.00
Cu1549 Cu    0.00000   0.75000   0.88022   0.00000  Uiso   1.00
Cu1550 Cu    0.00000   0.75000   0.78645   0.00000  Uiso   1.00
Cu1551 Cu    0.25000   0.50000   0.88022   0.00000  Uiso   1.00
Cu1552 Cu    0.25000   0.50000   0.78645   0.00000  Uiso   1.00
C1553  C     0.00018   0.71067   0.69173   0.00000  Uiso   1.00
C1554  C     0.00019   0.78933   0.97494   0.00000  Uiso   1.00
C1555  C     0.49982   0.78933   0.69172   0.00000  Uiso   1.00
C1556  C     0.49982   0.71067   0.97494   0.00000  Uiso   1.00
C1557  C     0.25018   0.96067   0.69173   0.00000  Uiso   1.00
C1558  C     0.25018   0.53933   0.97494   0.00000  Uiso   1.00
C1559  C     0.24982   0.53933   0.69172   0.00000  Uiso   1.00
C1560  C     0.24983   0.96067   0.97494   0.00000  Uiso   1.00
C1561  C     0.39075   0.64101   0.78925   0.00000  Uiso   1.00
C1562  C     0.11523   0.85393   0.87366   0.00000  Uiso   1.00
C1563  C     0.10925   0.85899   0.78925   0.00000  Uiso   1.00
C1564  C     0.38480   0.64603   0.87366   0.00000  Uiso   1.00
C1565  C     0.10924   0.64099   0.87742   0.00000  Uiso   1.00
C1566  C     0.38480   0.85397   0.79301   0.00000  Uiso   1.00
C1567  C     0.39076   0.85900   0.87742   0.00000  Uiso   1.00
C1568  C     0.11521   0.64605   0.79301   0.00000  Uiso   1.00
C1569  C     0.14075   0.89101   0.78925   0.00000  Uiso   1.00
C1570  C     0.36520   0.60397   0.87366   0.00000  Uiso   1.00
C1571  C     0.35925   0.60900   0.78924   0.00000  Uiso   1.00
C1572  C     0.13483   0.89600   0.87366   0.00000  Uiso   1.00
C1573  C     0.35925   0.89101   0.87742   0.00000  Uiso   1.00
C1574  C     0.13481   0.60398   0.79301   0.00000  Uiso   1.00
C1575  C     0.14074   0.60898   0.87742   0.00000  Uiso   1.00
C1576  C     0.36520   0.89604   0.79301   0.00000  Uiso   1.00
C1577  C     0.09601   0.83981   0.83186   0.00000  Uiso   1.00
C1578  C     0.40401   0.66017   0.83186   0.00000  Uiso   1.00
C1579  C     0.40401   0.83983   0.83480   0.00000  Uiso   1.00
C1580  C     0.09599   0.66017   0.83481   0.00000  Uiso   1.00
C1581  C     0.34599   0.58983   0.83186   0.00000  Uiso   1.00
C1582  C     0.15402   0.91016   0.83186   0.00000  Uiso   1.00
C1583  C     0.15401   0.58983   0.83480   0.00000  Uiso   1.00
C1584  C     0.34600   0.91018   0.83481   0.00000  Uiso   1.00
O1585  O     0.49765   0.67133   0.71670   0.00000  Uiso   1.00
C1586  C     0.03422   0.64576   0.71120   0.00000  Uiso   1.00
H1587  H     0.04232   0.63123   0.74551   0.00000  Uiso   1.00
H1588  H     0.06145   0.66501   0.69802   0.00000  Uiso   1.00
H1589  H     0.02841   0.61707   0.68791   0.00000  Uiso   1.00
O1590  O     0.49767   0.82867   0.94997   0.00000  Uiso   1.00
C1591  C     0.03424   0.85423   0.95547   0.00000  Uiso   1.00
H1592  H     0.04234   0.86877   0.92116   0.00000  Uiso   1.00
H1593  H     0.06147   0.83498   0.96863   0.00000  Uiso   1.00
H1594  H     0.02844   0.88291   0.97877   0.00000  Uiso   1.00
O1595  O     0.00236   0.82867   0.71669   0.00000  Uiso   1.00
C1596  C     0.46580   0.85425   0.71119   0.00000  Uiso   1.00
H1597  H     0.45770   0.86878   0.74550   0.00000  Uiso   1.00
H1598  H     0.43857   0.83501   0.69801   0.00000  Uiso   1.00
H1599  H     0.47161   0.88293   0.68790   0.00000  Uiso   1.00
O1600  O     0.00235   0.67133   0.94997   0.00000  Uiso   1.00
C1601  C     0.46579   0.64576   0.95547   0.00000  Uiso   1.00
H1602  H     0.45769   0.63123   0.92116   0.00000  Uiso   1.00
H1603  H     0.43856   0.66500   0.96865   0.00000  Uiso   1.00
H1604  H     0.47159   0.61707   0.97877   0.00000  Uiso   1.00
O1605  O     0.24765   0.92133   0.71670   0.00000  Uiso   1.00
C1606  C     0.28421   0.89576   0.71122   0.00000  Uiso   1.00
H1607  H     0.29231   0.88123   0.74553   0.00000  Uiso   1.00
H1608  H     0.31144   0.91500   0.69804   0.00000  Uiso   1.00
H1609  H     0.27842   0.86707   0.68792   0.00000  Uiso   1.00
O1610  O     0.24764   0.57867   0.94997   0.00000  Uiso   1.00
C1611  C     0.28420   0.60424   0.95545   0.00000  Uiso   1.00
H1612  H     0.29230   0.61877   0.92114   0.00000  Uiso   1.00
H1613  H     0.31143   0.58500   0.96863   0.00000  Uiso   1.00
H1614  H     0.27840   0.63294   0.97874   0.00000  Uiso   1.00
O1615  O     0.25237   0.57867   0.71669   0.00000  Uiso   1.00
C1616  C     0.21581   0.60425   0.71121   0.00000  Uiso   1.00
H1617  H     0.20772   0.61878   0.74552   0.00000  Uiso   1.00
H1618  H     0.18857   0.58500   0.69804   0.00000  Uiso   1.00
H1619  H     0.22161   0.63293   0.68791   0.00000  Uiso   1.00
O1620  O     0.25239   0.92133   0.94998   0.00000  Uiso   1.00
C1621  C     0.21583   0.89575   0.95545   0.00000  Uiso   1.00
H1622  H     0.20774   0.88122   0.92114   0.00000  Uiso   1.00
H1623  H     0.18859   0.91498   0.96863   0.00000  Uiso   1.00
H1624  H     0.22164   0.86705   0.97874   0.00000  Uiso   1.00
N1625  N     0.40804   0.65385   0.74515   0.00000  Uiso   1.00
O1626  O     0.39761   0.69194   0.72676   0.00000  Uiso   1.00
O1627  O     0.42431   0.62326   0.71865   0.00000  Uiso   1.00
N1628  N     0.12267   0.82256   0.91112   0.00000  Uiso   1.00
O1629  O     0.12172   0.77994   0.90252   0.00000  Uiso   1.00
O1630  O     0.14055   0.83527   0.94959   0.00000  Uiso   1.00
N1631  N     0.09194   0.84618   0.74516   0.00000  Uiso   1.00
O1632  O     0.10236   0.80811   0.72674   0.00000  Uiso   1.00
O1633  O     0.07565   0.87679   0.71869   0.00000  Uiso   1.00
N1634  N     0.37734   0.67741   0.91112   0.00000  Uiso   1.00
O1635  O     0.35958   0.66467   0.94964   0.00000  Uiso   1.00
O1636  O     0.37818   0.72002   0.90248   0.00000  Uiso   1.00
N1637  N     0.09192   0.65380   0.92151   0.00000  Uiso   1.00
O1638  O     0.10235   0.69187   0.93994   0.00000  Uiso   1.00
O1639  O     0.07563   0.62319   0.94798   0.00000  Uiso   1.00
N1640  N     0.37734   0.82260   0.75555   0.00000  Uiso   1.00
O1641  O     0.35959   0.83534   0.71702   0.00000  Uiso   1.00
O1642  O     0.37817   0.77999   0.76419   0.00000  Uiso   1.00
N1643  N     0.40805   0.84616   0.92151   0.00000  Uiso   1.00
O1644  O     0.39762   0.80808   0.93991   0.00000  Uiso   1.00
O1645  O     0.42433   0.87675   0.94801   0.00000  Uiso   1.00
N1646  N     0.12267   0.67742   0.75555   0.00000  Uiso   1.00
O1647  O     0.12176   0.72004   0.76417   0.00000  Uiso   1.00
O1648  O     0.14047   0.66470   0.71705   0.00000  Uiso   1.00
N1649  N     0.15803   0.90387   0.74515   0.00000  Uiso   1.00
O1650  O     0.14759   0.94196   0.72679   0.00000  Uiso   1.00
O1651  O     0.17428   0.87329   0.71862   0.00000  Uiso   1.00
N1652  N     0.37266   0.57259   0.91112   0.00000  Uiso   1.00
O1653  O     0.39041   0.58533   0.94964   0.00000  Uiso   1.00
O1654  O     0.37183   0.52998   0.90247   0.00000  Uiso   1.00
N1655  N     0.34196   0.59616   0.74515   0.00000  Uiso   1.00
O1656  O     0.35239   0.55807   0.72677   0.00000  Uiso   1.00
O1657  O     0.32569   0.62675   0.71865   0.00000  Uiso   1.00
N1658  N     0.12737   0.92736   0.91114   0.00000  Uiso   1.00
O1659  O     0.10964   0.91460   0.94967   0.00000  Uiso   1.00
O1660  O     0.12817   0.96997   0.90250   0.00000  Uiso   1.00
N1661  N     0.34197   0.90386   0.92152   0.00000  Uiso   1.00
O1662  O     0.35240   0.94194   0.93989   0.00000  Uiso   1.00
O1663  O     0.32571   0.87327   0.94803   0.00000  Uiso   1.00
N1664  N     0.12735   0.57262   0.75554   0.00000  Uiso   1.00
O1665  O     0.10961   0.58537   0.71701   0.00000  Uiso   1.00
O1666  O     0.12817   0.53000   0.76418   0.00000  Uiso   1.00
N1667  N     0.15801   0.59611   0.92152   0.00000  Uiso   1.00
O1668  O     0.14758   0.55802   0.93988   0.00000  Uiso   1.00
O1669  O     0.17426   0.62669   0.94805   0.00000  Uiso   1.00
N1670  N     0.37267   0.92742   0.75555   0.00000  Uiso   1.00
O1671  O     0.39043   0.91468   0.71703   0.00000  Uiso   1.00
O1672  O     0.37183   0.97002   0.76419   0.00000  Uiso   1.00
O1673  O     0.54509   0.70491   0.87291   0.00000  Uiso   1.00
O1674  O     0.95492   0.79509   0.79375   0.00000  Uiso   1.00
O1675  O     0.95492   0.79509   0.87291   0.00000  Uiso   1.00
O1676  O     0.54509   0.70491   0.79375   0.00000  Uiso   1.00
O1677  O     0.95492   0.70491   0.79375   0.00000  Uiso   1.00
O1678  O     0.54509   0.79509   0.87291   0.00000  Uiso   1.00
O1679  O     0.54509   0.79509   0.79375   0.00000  Uiso   1.00
O1680  O     0.95492   0.70491   0.87291   0.00000  Uiso   1.00
O1681  O     0.79509   0.95491   0.87291   0.00000  Uiso   1.00
O1682  O     0.70492   0.54509   0.79375   0.00000  Uiso   1.00
O1683  O     0.70492   0.54509   0.87291   0.00000  Uiso   1.00
O1684  O     0.79509   0.95491   0.79375   0.00000  Uiso   1.00
O1685  O     0.70492   0.95491   0.79375   0.00000  Uiso   1.00
O1686  O     0.79509   0.54509   0.87291   0.00000  Uiso   1.00
O1687  O     0.79509   0.54509   0.79375   0.00000  Uiso   1.00
O1688  O     0.70492   0.95491   0.87291   0.00000  Uiso   1.00
C1689  C     0.56084   0.69206   0.83358   0.00000  Uiso   1.00
C1690  C     0.93917   0.80794   0.83358   0.00000  Uiso   1.00
C1691  C     0.93916   0.69206   0.83308   0.00000  Uiso   1.00
C1692  C     0.56084   0.80793   0.83308   0.00000  Uiso   1.00
C1693  C     0.81084   0.94206   0.83358   0.00000  Uiso   1.00
C1694  C     0.68916   0.55794   0.83358   0.00000  Uiso   1.00
C1695  C     0.68917   0.94206   0.83308   0.00000  Uiso   1.00
C1696  C     0.81084   0.55794   0.83308   0.00000  Uiso   1.00
N1697  N     0.50000   0.75000   0.95069   0.00000  Uiso   1.00
N1698  N     0.50000   0.75000   0.71598   0.00000  Uiso   1.00
N1699  N     0.75000   0.50000   0.95069   0.00000  Uiso   1.00
N1700  N     0.75000   0.50000   0.71598   0.00000  Uiso   1.00
Cu1701 Cu    0.50000   0.75000   0.88022   0.00000  Uiso   1.00
Cu1702 Cu    0.50000   0.75000   0.78645   0.00000  Uiso   1.00
Cu1703 Cu    0.75000   0.50000   0.88022   0.00000  Uiso   1.00
Cu1704 Cu    0.75000   0.50000   0.78645   0.00000  Uiso   1.00
C1705  C     0.50018   0.71067   0.69173   0.00000  Uiso   1.00
C1706  C     0.50019   0.78933   0.97494   0.00000  Uiso   1.00
C1707  C     0.99982   0.78933   0.69172   0.00000  Uiso   1.00
C1708  C     0.99982   0.71067   0.97494   0.00000  Uiso   1.00
C1709  C     0.75018   0.96067   0.69173   0.00000  Uiso   1.00
C1710  C     0.75018   0.53933   0.97494   0.00000  Uiso   1.00
C1711  C     0.74982   0.53933   0.69172   0.00000  Uiso   1.00
C1712  C     0.74983   0.96067   0.97494   0.00000  Uiso   1.00
C1713  C     0.89075   0.64101   0.78925   0.00000  Uiso   1.00
C1714  C     0.61523   0.85393   0.87366   0.00000  Uiso   1.00
C1715  C     0.60925   0.85899   0.78925   0.00000  Uiso   1.00
C1716  C     0.88480   0.64603   0.87366   0.00000  Uiso   1.00
C1717  C     0.60924   0.64099   0.87742   0.00000  Uiso   1.00
C1718  C     0.88480   0.85397   0.79301   0.00000  Uiso   1.00
C1719  C     0.89076   0.85900   0.87742   0.00000  Uiso   1.00
C1720  C     0.61521   0.64605   0.79301   0.00000  Uiso   1.00
C1721  C     0.64075   0.89101   0.78925   0.00000  Uiso   1.00
C1722  C     0.86520   0.60397   0.87366   0.00000  Uiso   1.00
C1723  C     0.85925   0.60900   0.78924   0.00000  Uiso   1.00
C1724  C     0.63483   0.89600   0.87366   0.00000  Uiso   1.00
C1725  C     0.85925   0.89101   0.87742   0.00000  Uiso   1.00
C1726  C     0.63481   0.60398   0.79301   0.00000  Uiso   1.00
C1727  C     0.64074   0.60898   0.87742   0.00000  Uiso   1.00
C1728  C     0.86520   0.89604   0.79301   0.00000  Uiso   1.00
C1729  C     0.59601   0.83981   0.83186   0.00000  Uiso   1.00
C1730  C     0.90401   0.66017   0.83186   0.00000  Uiso   1.00
C1731  C     0.90401   0.83983   0.83480   0.00000  Uiso   1.00
C1732  C     0.59599   0.66017   0.83481   0.00000  Uiso   1.00
C1733  C     0.84599   0.58983   0.83186   0.00000  Uiso   1.00
C1734  C     0.65402   0.91016   0.83186   0.00000  Uiso   1.00
C1735  C     0.65401   0.58983   0.83480   0.00000  Uiso   1.00
C1736  C     0.84600   0.91018   0.83481   0.00000  Uiso   1.00
O1737  O     0.99765   0.67133   0.71670   0.00000  Uiso   1.00
C1738  C     0.53422   0.64576   0.71120   0.00000  Uiso   1.00
H1739  H     0.54232   0.63123   0.74551   0.00000  Uiso   1.00
H1740  H     0.56145   0.66501   0.69802   0.00000  Uiso   1.00
H1741  H     0.52841   0.61707   0.68791   0.00000  Uiso   1.00
O1742  O     0.99767   0.82867   0.94997   0.00000  Uiso   1.00
C1743  C     0.53424   0.85423   0.95547   0.00000  Uiso   1.00
H1744  H     0.54234   0.86877   0.92116   0.00000  Uiso   1.00
H1745  H     0.56147   0.83498   0.96863   0.00000  Uiso   1.00
H1746  H     0.52844   0.88291   0.97877   0.00000  Uiso   1.00
O1747  O     0.50236   0.82867   0.71669   0.00000  Uiso   1.00
C1748  C     0.96580   0.85425   0.71119   0.00000  Uiso   1.00
H1749  H     0.95770   0.86878   0.74550   0.00000  Uiso   1.00
H1750  H     0.93857   0.83501   0.69801   0.00000  Uiso   1.00
H1751  H     0.97161   0.88293   0.68790   0.00000  Uiso   1.00
O1752  O     0.50235   0.67133   0.94997   0.00000  Uiso   1.00
C1753  C     0.96579   0.64576   0.95547   0.00000  Uiso   1.00
H1754  H     0.95769   0.63123   0.92116   0.00000  Uiso   1.00
H1755  H     0.93856   0.66500   0.96865   0.00000  Uiso   1.00
H1756  H     0.97159   0.61707   0.97877   0.00000  Uiso   1.00
O1757  O     0.74765   0.92133   0.71670   0.00000  Uiso   1.00
C1758  C     0.78421   0.89576   0.71122   0.00000  Uiso   1.00
H1759  H     0.79231   0.88123   0.74553   0.00000  Uiso   1.00
H1760  H     0.81144   0.91500   0.69804   0.00000  Uiso   1.00
H1761  H     0.77842   0.86707   0.68792   0.00000  Uiso   1.00
O1762  O     0.74764   0.57867   0.94997   0.00000  Uiso   1.00
C1763  C     0.78420   0.60424   0.95545   0.00000  Uiso   1.00
H1764  H     0.79230   0.61877   0.92114   0.00000  Uiso   1.00
H1765  H     0.81143   0.58500   0.96863   0.00000  Uiso   1.00
H1766  H     0.77840   0.63294   0.97874   0.00000  Uiso   1.00
O1767  O     0.75237   0.57867   0.71669   0.00000  Uiso   1.00
C1768  C     0.71581   0.60425   0.71121   0.00000  Uiso   1.00
H1769  H     0.70772   0.61878   0.74552   0.00000  Uiso   1.00
H1770  H     0.68857   0.58500   0.69804   0.00000  Uiso   1.00
H1771  H     0.72161   0.63293   0.68791   0.00000  Uiso   1.00
O1772  O     0.75239   0.92133   0.94998   0.00000  Uiso   1.00
C1773  C     0.71583   0.89575   0.95545   0.00000  Uiso   1.00
H1774  H     0.70774   0.88122   0.92114   0.00000  Uiso   1.00
H1775  H     0.68859   0.91498   0.96863   0.00000  Uiso   1.00
H1776  H     0.72164   0.86705   0.97874   0.00000  Uiso   1.00
N1777  N     0.90804   0.65385   0.74515   0.00000  Uiso   1.00
O1778  O     0.89761   0.69194   0.72676   0.00000  Uiso   1.00
O1779  O     0.92431   0.62326   0.71865   0.00000  Uiso   1.00
N1780  N     0.62267   0.82256   0.91112   0.00000  Uiso   1.00
O1781  O     0.62172   0.77994   0.90252   0.00000  Uiso   1.00
O1782  O     0.64055   0.83527   0.94959   0.00000  Uiso   1.00
N1783  N     0.59194   0.84618   0.74516   0.00000  Uiso   1.00
O1784  O     0.60236   0.80811   0.72674   0.00000  Uiso   1.00
O1785  O     0.57565   0.87679   0.71869   0.00000  Uiso   1.00
N1786  N     0.87734   0.67741   0.91112   0.00000  Uiso   1.00
O1787  O     0.85958   0.66467   0.94964   0.00000  Uiso   1.00
O1788  O     0.87818   0.72002   0.90248   0.00000  Uiso   1.00
N1789  N     0.59192   0.65380   0.92151   0.00000  Uiso   1.00
O1790  O     0.60235   0.69187   0.93994   0.00000  Uiso   1.00
O1791  O     0.57563   0.62319   0.94798   0.00000  Uiso   1.00
N1792  N     0.87734   0.82260   0.75555   0.00000  Uiso   1.00
O1793  O     0.85959   0.83534   0.71702   0.00000  Uiso   1.00
O1794  O     0.87817   0.77999   0.76419   0.00000  Uiso   1.00
N1795  N     0.90805   0.84616   0.92151   0.00000  Uiso   1.00
O1796  O     0.89762   0.80808   0.93991   0.00000  Uiso   1.00
O1797  O     0.92433   0.87675   0.94801   0.00000  Uiso   1.00
N1798  N     0.62267   0.67742   0.75555   0.00000  Uiso   1.00
O1799  O     0.62176   0.72004   0.76417   0.00000  Uiso   1.00
O1800  O     0.64047   0.66470   0.71705   0.00000  Uiso   1.00
N1801  N     0.65803   0.90387   0.74515   0.00000  Uiso   1.00
O1802  O     0.64759   0.94196   0.72679   0.00000  Uiso   1.00
O1803  O     0.67428   0.87329   0.71862   0.00000  Uiso   1.00
N1804  N     0.87266   0.57259   0.91112   0.00000  Uiso   1.00
O1805  O     0.89041   0.58533   0.94964   0.00000  Uiso   1.00
O1806  O     0.87183   0.52998   0.90247   0.00000  Uiso   1.00
N1807  N     0.84196   0.59616   0.74515   0.00000  Uiso   1.00
O1808  O     0.85239   0.55807   0.72677   0.00000  Uiso   1.00
O1809  O     0.82569   0.62675   0.71865   0.00000  Uiso   1.00
N1810  N     0.62737   0.92736   0.91114   0.00000  Uiso   1.00
O1811  O     0.60964   0.91460   0.94967   0.00000  Uiso   1.00
O1812  O     0.62817   0.96997   0.90250   0.00000  Uiso   1.00
N1813  N     0.84197   0.90386   0.92152   0.00000  Uiso   1.00
O1814  O     0.85240   0.94194   0.93989   0.00000  Uiso   1.00
O1815  O     0.82571   0.87327   0.94803   0.00000  Uiso   1.00
N1816  N     0.62735   0.57262   0.75554   0.00000  Uiso   1.00
O1817  O     0.60961   0.58537   0.71701   0.00000  Uiso   1.00
O1818  O     0.62817   0.53000   0.76418   0.00000  Uiso   1.00
N1819  N     0.65801   0.59611   0.92152   0.00000  Uiso   1.00
O1820  O     0.64758   0.55802   0.93988   0.00000  Uiso   1.00
O1821  O     0.67426   0.62669   0.94805   0.00000  Uiso   1.00
N1822  N     0.87267   0.92742   0.75555   0.00000  Uiso   1.00
O1823  O     0.89043   0.91468   0.71703   0.00000  Uiso   1.00
O1824  O     0.87183   0.97002   0.76419   0.00000  Uiso   1.00
loop_
_geom_bond_atom_site_label_1
_geom_bond_atom_site_label_2
_geom_bond_distance
_geom_bond_site_symmetry_2
_ccdc_geom_bond_type
O1     Cu29    1.990   .     S
O1     C17     1.294   .     A
O2     C18     1.307   .     A
O2     Cu182   1.990   .     S
O3     C18     1.294   .     A
O3     Cu181   1.990   .     S
O4     C17     1.307   .     A
O4     Cu30    1.990   .     S
O5     C19     1.294   .     A
O5     Cu182   1.990   .     S
O6     C20     1.307   .     A
O6     Cu29    1.990   .     S
O7     Cu30    1.990   .     S
O7     C20     1.294   .     A
O8     C19     1.307   .     A
O8     Cu181   1.990   .     S
O9     C21     1.294   .     A
O9     Cu335   1.990   .     S
O10    C22     1.307   .     A
O10    Cu32    1.990   .     S
O11    Cu31    1.990   .     S
O11    C22     1.294   .     A
O12    C21     1.307   .     A
O12    Cu336   1.990   .     S
O13    C23     1.294   .     A
O13    Cu336   1.990   .     S
O14    Cu31    1.990   .     S
O14    C24     1.307   .     A
O15    C24     1.294   .     A
O15    Cu32    1.990   .     S
O16    C23     1.307   .     A
O16    Cu335   1.990   .     S
C17    C60     1.478   .     S
C18    C59     1.478   .     S
C19    C58     1.478   .     S
C20    C57     1.478   .     S
C21    C64     1.478   .     S
C22    C63     1.478   .     S
C23    C62     1.478   .     S
C24    C61     1.478   .     S
N25    C34     1.369   .     A
N25    Cu29    2.020   .     S
N25    C188    1.369   1_455 S
N26    C33     1.369   .     A
N26    Cu30    2.020   .     S
N26    C187    1.369   1_455 S
N27    C38     1.369   .     A
N27    Cu31    2.020   .     S
N27    C344    1.369   1_545 S
N28    Cu32    2.020   .     S
N28    C39     1.369   .     A
N28    C341    1.369   1_545 S
Cu29   Cu30    2.689   .     S
Cu29   O160    1.990   1_455 S
Cu29   O155    1.990   1_455 S
Cu30   O157    1.990   1_455 S
Cu30   O154    1.990   1_455 S
Cu31   Cu32    2.689   .     S
Cu31   O320    1.990   1_545 S
Cu31   O313    1.990   1_545 S
Cu32   O317    1.990   1_545 S
Cu32   O316    1.990   1_545 S
C33    C1404   1.437   1_454 S
C33    O217    1.382   1_455 S
C34    C795    1.437   1_455 S
C34    O222    1.382   1_455 S
C35    N178    1.369   .     S
C35    C1402   1.437   1_554 S
C35    O227    1.382   .     S
C36    C793    1.437   .     S
C36    N177    1.369   .     S
C36    O232    1.382   .     S
C37    O85     1.382   .     S
C37    N332    1.369   .     S
C37    C1256   1.437   1_554 S
C38    O90     1.382   .     S
C38    C647    1.437   .     S
C39    O95     1.382   .     S
C39    C1254   1.437   1_554 S
C40    O100    1.382   .     S
C40    C645    1.437   .     S
C40    N331    1.369   .     S
C41    N105    1.433   .     S
C41    C58     1.416   .     A
C41    C51     1.393   .     A
C42    C57     1.412   .     A
C42    N108    1.448   .     S
C42    C52     1.409   .     A
C43    N111    1.433   .     S
C43    C49     1.393   .     A
C43    C57     1.416   .     A
C44    C50     1.409   .     A
C44    C58     1.412   .     A
C44    N114    1.448   .     S
C45    C60     1.416   .     A
C45    N117    1.433   .     S
C45    C55     1.393   .     A
C46    C59     1.412   .     A
C46    N120    1.448   .     S
C46    C56     1.409   .     A
C47    C53     1.393   .     A
C47    C59     1.416   .     A
C47    N123    1.433   .     S
C48    C54     1.409   .     A
C48    C60     1.412   .     A
C48    N126    1.448   .     S
C49    C62     1.416   .     A
C49    N129    1.433   .     S
C50    N132    1.447   .     S
C50    C61     1.412   .     A
C51    C61     1.416   .     A
C51    N135    1.433   .     S
C52    N138    1.447   .     S
C52    C62     1.412   .     A
C53    C64     1.416   .     A
C53    N141    1.433   .     S
C54    N144    1.448   .     S
C54    C63     1.412   .     A
C55    C63     1.416   .     A
C55    N147    1.433   .     S
C56    C64     1.412   .     A
C56    N150    1.448   .     S
O65    C185    1.382   .     S
O65    C218    1.409   .     S
C66    H68     1.113   .     S
C66    H69     1.105   .     S
C66    H67     1.107   .     S
C66    O217    1.409   1_455 S
O70    C186    1.382   .     S
O70    C223    1.409   .     S
C71    H73     1.113   .     S
C71    H74     1.105   .     S
C71    H72     1.107   .     S
C71    O222    1.409   1_455 S
O75    C187    1.382   1_455 S
O75    C228    1.409   1_455 S
C76    H79     1.105   .     S
C76    H78     1.113   .     S
C76    H77     1.107   .     S
C76    O227    1.409   .     S
O80    C188    1.382   1_455 S
O80    C233    1.409   1_455 S
C81    H82     1.107   .     S
C81    H83     1.113   .     S
C81    H84     1.105   .     S
C81    O232    1.409   .     S
O85    C86     1.409   .     S
C86    H88     1.113   .     S
C86    H87     1.107   .     S
C86    H89     1.105   .     S
O90    C91     1.409   .     S
C91    H92     1.107   .     S
C91    H93     1.112   .     S
C91    H94     1.105   .     S
O95    C96     1.409   .     S
C96    H99     1.105   .     S
C96    H98     1.112   .     S
C96    H97     1.107   .     S
O100   C101    1.409   .     S
C101   H102    1.107   .     S
C101   H103    1.112   .     S
C101   H104    1.105   .     S
N105   O107    1.300   .     A
N105   O106    1.301   .     A
N108   O109    1.301   .     A
N108   O110    1.300   .     A
N111   O112    1.301   .     A
N111   O113    1.300   .     A
N114   O116    1.301   .     A
N114   O115    1.300   .     A
N117   O119    1.300   .     A
N117   O118    1.301   .     A
N120   O122    1.301   .     A
N120   O121    1.300   .     A
N123   O124    1.301   .     A
N123   O125    1.300   .     A
N126   O128    1.300   .     A
N126   O127    1.301   .     A
N129   O130    1.301   .     A
N129   O131    1.300   .     A
N132   O133    1.300   .     A
N132   O134    1.301   .     A
N135   O136    1.301   .     A
N135   O137    1.300   .     A
N138   O140    1.301   .     A
N138   O139    1.300   .     A
N141   O143    1.300   .     A
N141   O142    1.301   .     A
N144   O146    1.301   .     A
N144   O145    1.300   .     A
N147   O149    1.300   .     A
N147   O148    1.301   .     A
N150   O152    1.301   .     A
N150   O151    1.300   .     A
O153   Cu181   1.990   .     S
O153   C169    1.294   .     A
O154   C170    1.307   .     A
O154   Cu30    1.990   1_655 S
O155   C170    1.294   .     A
O155   Cu29    1.990   1_655 S
O156   C169    1.307   .     A
O156   Cu182   1.990   .     S
O157   C171    1.294   .     A
O157   Cu30    1.990   1_655 S
O158   C172    1.307   .     A
O158   Cu181   1.990   .     S
O159   Cu182   1.990   .     S
O159   C172    1.294   .     A
O160   C171    1.307   .     A
O160   Cu29    1.990   1_655 S
O161   C173    1.294   .     A
O161   Cu487   1.990   .     S
O162   C174    1.307   .     A
O162   Cu184   1.990   .     S
O163   Cu183   1.990   .     S
O163   C174    1.294   .     A
O164   C173    1.307   .     A
O164   Cu488   1.990   .     S
O165   C175    1.294   .     A
O165   Cu488   1.990   .     S
O166   Cu183   1.990   .     S
O166   C176    1.307   .     A
O167   C176    1.294   .     A
O167   Cu184   1.990   .     S
O168   C175    1.307   .     A
O168   Cu487   1.990   .     S
C169   C212    1.478   .     S
C170   C211    1.478   .     S
C171   C210    1.478   .     S
C172   C209    1.478   .     S
C173   C216    1.478   .     S
C174   C215    1.478   .     S
C175   C214    1.478   .     S
C176   C213    1.478   .     S
N177   C186    1.369   .     A
N177   Cu181   2.020   .     S
N178   C185    1.369   .     A
N178   Cu182   2.020   .     S
N179   C190    1.369   .     A
N179   Cu183   2.020   .     S
N179   C496    1.369   1_545 S
N180   Cu184   2.020   .     S
N180   C191    1.369   .     A
N180   C493    1.369   1_545 S
Cu181  Cu182   2.689   .     S
Cu183  Cu184   2.689   .     S
Cu183  O472    1.990   1_545 S
Cu183  O465    1.990   1_545 S
Cu184  O469    1.990   1_545 S
Cu184  O468    1.990   1_545 S
C185   C1252   1.437   1_554 S
C186   C643    1.437   .     S
C187   N26     1.369   1_655 S
C187   C1250   1.437   1_654 S
C187   O75     1.382   1_655 S
C188   C641    1.437   1_655 S
C188   N25     1.369   1_655 S
C188   O80     1.382   1_655 S
C189   O237    1.382   .     S
C189   N484    1.369   .     S
C189   C1408   1.437   1_554 S
C190   O242    1.382   .     S
C190   C799    1.437   .     S
C191   O247    1.382   .     S
C191   C1406   1.437   1_554 S
C192   O252    1.382   .     S
C192   C797    1.437   .     S
C192   N483    1.369   .     S
C193   N257    1.433   .     S
C193   C210    1.416   .     A
C193   C203    1.393   .     A
C194   C209    1.412   .     A
C194   N260    1.448   .     S
C194   C204    1.409   .     A
C195   N263    1.433   .     S
C195   C201    1.393   .     A
C195   C209    1.416   .     A
C196   C202    1.409   .     A
C196   C210    1.412   .     A
C196   N266    1.448   .     S
C197   C212    1.416   .     A
C197   N269    1.433   .     S
C197   C207    1.393   .     A
C198   C211    1.412   .     A
C198   N272    1.448   .     S
C198   C208    1.409   .     A
C199   C205    1.393   .     A
C199   C211    1.416   .     A
C199   N275    1.433   .     S
C200   C206    1.409   .     A
C200   C212    1.412   .     A
C200   N278    1.448   .     S
C201   C214    1.416   .     A
C201   N281    1.433   .     S
C202   N284    1.447   .     S
C202   C213    1.412   .     A
C203   C213    1.416   .     A
C203   N287    1.433   .     S
C204   N290    1.447   .     S
C204   C214    1.412   .     A
C205   C216    1.416   .     A
C205   N293    1.433   .     S
C206   N296    1.448   .     S
C206   C215    1.412   .     A
C207   C215    1.416   .     A
C207   N299    1.433   .     S
C208   C216    1.412   .     A
C208   N302    1.448   .     S
O217   C33     1.382   1_655 S
O217   C66     1.409   1_655 S
C218   H220    1.113   .     S
C218   H221    1.105   .     S
C218   H219    1.107   .     S
O222   C34     1.382   1_655 S
O222   C71     1.409   1_655 S
C223   H225    1.113   .     S
C223   H226    1.105   .     S
C223   H224    1.107   .     S
C228   H231    1.105   .     S
C228   H230    1.113   .     S
C228   H229    1.107   .     S
C228   O75     1.409   1_655 S
C233   H234    1.107   .     S
C233   H235    1.113   .     S
C233   H236    1.105   .     S
C233   O80     1.409   1_655 S
O237   C238    1.409   .     S
C238   H240    1.113   .     S
C238   H239    1.107   .     S
C238   H241    1.105   .     S
O242   C243    1.409   .     S
C243   H244    1.107   .     S
C243   H245    1.112   .     S
C243   H246    1.105   .     S
O247   C248    1.409   .     S
C248   H251    1.105   .     S
C248   H250    1.112   .     S
C248   H249    1.107   .     S
O252   C253    1.409   .     S
C253   H254    1.107   .     S
C253   H255    1.112   .     S
C253   H256    1.105   .     S
N257   O259    1.300   .     A
N257   O258    1.301   .     A
N260   O261    1.301   .     A
N260   O262    1.300   .     A
N263   O264    1.301   .     A
N263   O265    1.300   .     A
N266   O268    1.301   .     A
N266   O267    1.300   .     A
N269   O271    1.300   .     A
N269   O270    1.301   .     A
N272   O274    1.301   .     A
N272   O273    1.300   .     A
N275   O276    1.301   .     A
N275   O277    1.300   .     A
N278   O280    1.300   .     A
N278   O279    1.301   .     A
N281   O282    1.301   .     A
N281   O283    1.300   .     A
N284   O285    1.300   .     A
N284   O286    1.301   .     A
N287   O288    1.301   .     A
N287   O289    1.300   .     A
N290   O292    1.301   .     A
N290   O291    1.300   .     A
N293   O295    1.300   .     A
N293   O294    1.301   .     A
N296   O298    1.301   .     A
N296   O297    1.300   .     A
N299   O301    1.300   .     A
N299   O300    1.301   .     A
N302   O304    1.301   .     A
N302   O303    1.300   .     A
O305   Cu333   1.990   .     S
O305   C321    1.294   .     A
O306   C322    1.307   .     A
O306   Cu486   1.990   .     S
O307   C322    1.294   .     A
O307   Cu485   1.990   .     S
O308   C321    1.307   .     A
O308   Cu334   1.990   .     S
O309   C323    1.294   .     A
O309   Cu486   1.990   .     S
O310   C324    1.307   .     A
O310   Cu333   1.990   .     S
O311   Cu334   1.990   .     S
O311   C324    1.294   .     A
O312   C323    1.307   .     A
O312   Cu485   1.990   .     S
O313   C325    1.294   .     A
O313   Cu31    1.990   1_565 S
O314   C326    1.307   .     A
O314   Cu336   1.990   .     S
O315   Cu335   1.990   .     S
O315   C326    1.294   .     A
O316   C325    1.307   .     A
O316   Cu32    1.990   1_565 S
O317   C327    1.294   .     A
O317   Cu32    1.990   1_565 S
O318   Cu335   1.990   .     S
O318   C328    1.307   .     A
O319   C328    1.294   .     A
O319   Cu336   1.990   .     S
O320   C327    1.307   .     A
O320   Cu31    1.990   1_565 S
C321   C364    1.478   .     S
C322   C363    1.478   .     S
C323   C362    1.478   .     S
C324   C361    1.478   .     S
C325   C368    1.478   .     S
C326   C367    1.478   .     S
C327   C366    1.478   .     S
C328   C365    1.478   .     S
N329   C338    1.369   .     A
N329   Cu333   2.020   .     S
N329   C492    1.369   1_455 S
N330   C337    1.369   .     A
N330   Cu334   2.020   .     S
N330   C491    1.369   1_455 S
N331   C342    1.369   .     A
N331   Cu335   2.020   .     S
N332   Cu336   2.020   .     S
N332   C343    1.369   .     A
Cu333  Cu334   2.689   .     S
Cu333  O464    1.990   1_455 S
Cu333  O459    1.990   1_455 S
Cu334  O461    1.990   1_455 S
Cu334  O458    1.990   1_455 S
Cu335  Cu336   2.689   .     S
C337   C1708   1.437   1_454 S
C337   O521    1.382   1_455 S
C338   C1099   1.437   1_455 S
C338   O526    1.382   1_455 S
C339   N482    1.369   .     S
C339   C1706   1.437   1_554 S
C339   O531    1.382   .     S
C340   C1097   1.437   .     S
C340   N481    1.369   .     S
C340   O536    1.382   .     S
C341   O389    1.382   .     S
C341   N28     1.369   1_565 S
C341   C1560   1.437   1_554 S
C342   O394    1.382   .     S
C342   C951    1.437   .     S
C343   O399    1.382   .     S
C343   C1558   1.437   1_554 S
C344   O404    1.382   .     S
C344   C949    1.437   .     S
C344   N27     1.369   1_565 S
C345   N409    1.433   .     S
C345   C362    1.416   .     A
C345   C355    1.393   .     A
C346   C361    1.412   .     A
C346   N412    1.448   .     S
C346   C356    1.409   .     A
C347   N415    1.433   .     S
C347   C353    1.393   .     A
C347   C361    1.416   .     A
C348   C354    1.409   .     A
C348   C362    1.412   .     A
C348   N418    1.448   .     S
C349   C364    1.416   .     A
C349   N421    1.433   .     S
C349   C359    1.393   .     A
C350   C363    1.412   .     A
C350   N424    1.448   .     S
C350   C360    1.409   .     A
C351   C357    1.393   .     A
C351   C363    1.416   .     A
C351   N427    1.433   .     S
C352   C358    1.409   .     A
C352   C364    1.412   .     A
C352   N430    1.448   .     S
C353   C366    1.416   .     A
C353   N433    1.433   .     S
C354   N436    1.447   .     S
C354   C365    1.412   .     A
C355   C365    1.416   .     A
C355   N439    1.433   .     S
C356   N442    1.447   .     S
C356   C366    1.412   .     A
C357   C368    1.416   .     A
C357   N445    1.433   .     S
C358   N448    1.448   .     S
C358   C367    1.412   .     A
C359   C367    1.416   .     A
C359   N451    1.433   .     S
C360   C368    1.412   .     A
C360   N454    1.448   .     S
O369   C489    1.382   .     S
O369   C522    1.409   .     S
C370   H372    1.113   .     S
C370   H373    1.105   .     S
C370   H371    1.107   .     S
C370   O521    1.409   1_455 S
O374   C490    1.382   .     S
O374   C527    1.409   .     S
C375   H377    1.113   .     S
C375   H378    1.105   .     S
C375   H376    1.107   .     S
C375   O526    1.409   1_455 S
O379   C491    1.382   1_455 S
O379   C532    1.409   1_455 S
C380   H383    1.105   .     S
C380   H382    1.113   .     S
C380   H381    1.107   .     S
C380   O531    1.409   .     S
O384   C492    1.382   1_455 S
O384   C537    1.409   1_455 S
C385   H386    1.107   .     S
C385   H387    1.113   .     S
C385   H388    1.105   .     S
C385   O536    1.409   .     S
O389   C390    1.409   .     S
C390   H392    1.113   .     S
C390   H391    1.107   .     S
C390   H393    1.105   .     S
O394   C395    1.409   .     S
C395   H396    1.107   .     S
C395   H397    1.112   .     S
C395   H398    1.105   .     S
O399   C400    1.409   .     S
C400   H403    1.105   .     S
C400   H402    1.112   .     S
C400   H401    1.107   .     S
O404   C405    1.409   .     S
C405   H406    1.107   .     S
C405   H407    1.112   .     S
C405   H408    1.105   .     S
N409   O411    1.300   .     A
N409   O410    1.301   .     A
N412   O413    1.301   .     A
N412   O414    1.300   .     A
N415   O416    1.301   .     A
N415   O417    1.300   .     A
N418   O420    1.301   .     A
N418   O419    1.300   .     A
N421   O423    1.300   .     A
N421   O422    1.301   .     A
N424   O426    1.301   .     A
N424   O425    1.300   .     A
N427   O428    1.301   .     A
N427   O429    1.300   .     A
N430   O432    1.300   .     A
N430   O431    1.301   .     A
N433   O434    1.301   .     A
N433   O435    1.300   .     A
N436   O437    1.300   .     A
N436   O438    1.301   .     A
N439   O440    1.301   .     A
N439   O441    1.300   .     A
N442   O444    1.301   .     A
N442   O443    1.300   .     A
N445   O447    1.300   .     A
N445   O446    1.301   .     A
N448   O450    1.301   .     A
N448   O449    1.300   .     A
N451   O453    1.300   .     A
N451   O452    1.301   .     A
N454   O456    1.301   .     A
N454   O455    1.300   .     A
O457   Cu485   1.990   .     S
O457   C473    1.294   .     A
O458   C474    1.307   .     A
O458   Cu334   1.990   1_655 S
O459   C474    1.294   .     A
O459   Cu333   1.990   1_655 S
O460   C473    1.307   .     A
O460   Cu486   1.990   .     S
O461   C475    1.294   .     A
O461   Cu334   1.990   1_655 S
O462   C476    1.307   .     A
O462   Cu485   1.990   .     S
O463   Cu486   1.990   .     S
O463   C476    1.294   .     A
O464   C475    1.307   .     A
O464   Cu333   1.990   1_655 S
O465   C477    1.294   .     A
O465   Cu183   1.990   1_565 S
O466   C478    1.307   .     A
O466   Cu488   1.990   .     S
O467   Cu487   1.990   .     S
O467   C478    1.294   .     A
O468   C477    1.307   .     A
O468   Cu184   1.990   1_565 S
O469   C479    1.294   .     A
O469   Cu184   1.990   1_565 S
O470   Cu487   1.990   .     S
O470   C480    1.307   .     A
O471   C480    1.294   .     A
O471   Cu488   1.990   .     S
O472   C479    1.307   .     A
O472   Cu183   1.990   1_565 S
C473   C516    1.478   .     S
C474   C515    1.478   .     S
C475   C514    1.478   .     S
C476   C513    1.478   .     S
C477   C520    1.478   .     S
C478   C519    1.478   .     S
C479   C518    1.478   .     S
C480   C517    1.478   .     S
N481   C490    1.369   .     A
N481   Cu485   2.020   .     S
N482   C489    1.369   .     A
N482   Cu486   2.020   .     S
N483   C494    1.369   .     A
N483   Cu487   2.020   .     S
N484   Cu488   2.020   .     S
N484   C495    1.369   .     A
Cu485  Cu486   2.689   .     S
Cu487  Cu488   2.689   .     S
C489   C1556   1.437   1_554 S
C490   C947    1.437   .     S
C491   N330    1.369   1_655 S
C491   C1554   1.437   1_654 S
C491   O379    1.382   1_655 S
C492   C945    1.437   1_655 S
C492   N329    1.369   1_655 S
C492   O384    1.382   1_655 S
C493   O541    1.382   .     S
C493   N180    1.369   1_565 S
C493   C1712   1.437   1_554 S
C494   O546    1.382   .     S
C494   C1103   1.437   .     S
C495   O551    1.382   .     S
C495   C1710   1.437   1_554 S
C496   O556    1.382   .     S
C496   C1101   1.437   .     S
C496   N179    1.369   1_565 S
C497   N561    1.433   .     S
C497   C514    1.416   .     A
C497   C507    1.393   .     A
C498   C513    1.412   .     A
C498   N564    1.448   .     S
C498   C508    1.409   .     A
C499   N567    1.433   .     S
C499   C505    1.393   .     A
C499   C513    1.416   .     A
C500   C506    1.409   .     A
C500   C514    1.412   .     A
C500   N570    1.448   .     S
C501   C516    1.416   .     A
C501   N573    1.433   .     S
C501   C511    1.393   .     A
C502   C515    1.412   .     A
C502   N576    1.448   .     S
C502   C512    1.409   .     A
C503   C509    1.393   .     A
C503   C515    1.416   .     A
C503   N579    1.433   .     S
C504   C510    1.409   .     A
C504   C516    1.412   .     A
C504   N582    1.448   .     S
C505   C518    1.416   .     A
C505   N585    1.433   .     S
C506   N588    1.447   .     S
C506   C517    1.412   .     A
C507   C517    1.416   .     A
C507   N591    1.433   .     S
C508   N594    1.447   .     S
C508   C518    1.412   .     A
C509   C520    1.416   .     A
C509   N597    1.433   .     S
C510   N600    1.448   .     S
C510   C519    1.412   .     A
C511   C519    1.416   .     A
C511   N603    1.433   .     S
C512   C520    1.412   .     A
C512   N606    1.448   .     S
O521   C337    1.382   1_655 S
O521   C370    1.409   1_655 S
C522   H524    1.113   .     S
C522   H525    1.105   .     S
C522   H523    1.107   .     S
O526   C338    1.382   1_655 S
O526   C375    1.409   1_655 S
C527   H529    1.113   .     S
C527   H530    1.105   .     S
C527   H528    1.107   .     S
C532   H535    1.105   .     S
C532   H534    1.113   .     S
C532   H533    1.107   .     S
C532   O379    1.409   1_655 S
C537   H538    1.107   .     S
C537   H539    1.113   .     S
C537   H540    1.105   .     S
C537   O384    1.409   1_655 S
O541   C542    1.409   .     S
C542   H544    1.113   .     S
C542   H543    1.107   .     S
C542   H545    1.105   .     S
O546   C547    1.409   .     S
C547   H548    1.107   .     S
C547   H549    1.112   .     S
C547   H550    1.105   .     S
O551   C552    1.409   .     S
C552   H555    1.105   .     S
C552   H554    1.112   .     S
C552   H553    1.107   .     S
O556   C557    1.409   .     S
C557   H558    1.107   .     S
C557   H559    1.112   .     S
C557   H560    1.105   .     S
N561   O563    1.300   .     A
N561   O562    1.301   .     A
N564   O565    1.301   .     A
N564   O566    1.300   .     A
N567   O568    1.301   .     A
N567   O569    1.300   .     A
N570   O572    1.301   .     A
N570   O571    1.300   .     A
N573   O575    1.300   .     A
N573   O574    1.301   .     A
N576   O578    1.301   .     A
N576   O577    1.300   .     A
N579   O580    1.301   .     A
N579   O581    1.300   .     A
N582   O584    1.300   .     A
N582   O583    1.301   .     A
N585   O586    1.301   .     A
N585   O587    1.300   .     A
N588   O589    1.300   .     A
N588   O590    1.301   .     A
N591   O592    1.301   .     A
N591   O593    1.300   .     A
N594   O596    1.301   .     A
N594   O595    1.300   .     A
N597   O599    1.300   .     A
N597   O598    1.301   .     A
N600   O602    1.301   .     A
N600   O601    1.300   .     A
N603   O605    1.300   .     A
N603   O604    1.301   .     A
N606   O608    1.301   .     A
N606   O607    1.300   .     A
O609   Cu637   1.990   .     S
O609   C625    1.294   .     A
O610   C626    1.307   .     A
O610   Cu790   1.990   .     S
O611   C626    1.294   .     A
O611   Cu789   1.990   .     S
O612   C625    1.307   .     A
O612   Cu638   1.990   .     S
O613   C627    1.294   .     A
O613   Cu790   1.990   .     S
O614   C628    1.307   .     A
O614   Cu637   1.990   .     S
O615   Cu638   1.990   .     S
O615   C628    1.294   .     A
O616   C627    1.307   .     A
O616   Cu789   1.990   .     S
O617   C629    1.294   .     A
O617   Cu943   1.990   .     S
O618   C630    1.307   .     A
O618   Cu640   1.990   .     S
O619   Cu639   1.990   .     S
O619   C630    1.294   .     A
O620   C629    1.307   .     A
O620   Cu944   1.990   .     S
O621   C631    1.294   .     A
O621   Cu944   1.990   .     S
O622   Cu639   1.990   .     S
O622   C632    1.307   .     A
O623   C632    1.294   .     A
O623   Cu640   1.990   .     S
O624   C631    1.307   .     A
O624   Cu943   1.990   .     S
C625   C668    1.478   .     S
C626   C667    1.478   .     S
C627   C666    1.478   .     S
C628   C665    1.478   .     S
C629   C672    1.478   .     S
C630   C671    1.478   .     S
C631   C670    1.478   .     S
C632   C669    1.478   .     S
N633   C642    1.369   .     A
N633   Cu637   2.020   .     S
N633   C796    1.369   1_455 S
N634   C641    1.369   .     A
N634   Cu638   2.020   .     S
N634   C795    1.369   1_455 S
N635   C646    1.369   .     A
N635   Cu639   2.020   .     S
N635   C952    1.369   1_545 S
N636   Cu640   2.020   .     S
N636   C647    1.369   .     A
N636   C949    1.369   1_545 S
Cu637  Cu638   2.689   .     S
Cu637  O768    1.990   1_455 S
Cu637  O763    1.990   1_455 S
Cu638  O765    1.990   1_455 S
Cu638  O762    1.990   1_455 S
Cu639  Cu640   2.689   .     S
Cu639  O928    1.990   1_545 S
Cu639  O921    1.990   1_545 S
Cu640  O925    1.990   1_545 S
Cu640  O924    1.990   1_545 S
C641   C188    1.437   1_455 S
C641   O825    1.382   1_455 S
C642   C1403   1.437   1_455 S
C642   O830    1.382   1_455 S
C643   N786    1.369   .     S
C643   O835    1.382   .     S
C644   C1401   1.437   .     S
C644   N785    1.369   .     S
C644   O840    1.382   .     S
C645   O693    1.382   .     S
C645   N940    1.369   .     S
C646   O698    1.382   .     S
C646   C1255   1.437   .     S
C647   O703    1.382   .     S
C648   O708    1.382   .     S
C648   C1253   1.437   .     S
C648   N939    1.369   .     S
C649   N713    1.433   .     S
C649   C666    1.416   .     A
C649   C659    1.393   .     A
C650   C665    1.412   .     A
C650   N716    1.448   .     S
C650   C660    1.409   .     A
C651   N719    1.433   .     S
C651   C657    1.393   .     A
C651   C665    1.416   .     A
C652   C658    1.409   .     A
C652   C666    1.412   .     A
C652   N722    1.448   .     S
C653   C668    1.416   .     A
C653   N725    1.433   .     S
C653   C663    1.393   .     A
C654   C667    1.412   .     A
C654   N728    1.448   .     S
C654   C664    1.409   .     A
C655   C661    1.393   .     A
C655   C667    1.416   .     A
C655   N731    1.433   .     S
C656   C662    1.409   .     A
C656   C668    1.412   .     A
C656   N734    1.448   .     S
C657   C670    1.416   .     A
C657   N737    1.433   .     S
C658   N740    1.447   .     S
C658   C669    1.412   .     A
C659   C669    1.416   .     A
C659   N743    1.433   .     S
C660   N746    1.447   .     S
C660   C670    1.412   .     A
C661   C672    1.416   .     A
C661   N749    1.433   .     S
C662   N752    1.448   .     S
C662   C671    1.412   .     A
C663   C671    1.416   .     A
C663   N755    1.433   .     S
C664   C672    1.412   .     A
C664   N758    1.448   .     S
O673   C793    1.382   .     S
O673   C826    1.409   .     S
C674   H676    1.113   .     S
C674   H677    1.105   .     S
C674   H675    1.107   .     S
C674   O825    1.409   1_455 S
O678   C794    1.382   .     S
O678   C831    1.409   .     S
C679   H681    1.113   .     S
C679   H682    1.105   .     S
C679   H680    1.107   .     S
C679   O830    1.409   1_455 S
O683   C795    1.382   1_455 S
O683   C836    1.409   1_455 S
C684   H687    1.105   .     S
C684   H686    1.113   .     S
C684   H685    1.107   .     S
C684   O835    1.409   .     S
O688   C796    1.382   1_455 S
O688   C841    1.409   1_455 S
C689   H690    1.107   .     S
C689   H691    1.113   .     S
C689   H692    1.105   .     S
C689   O840    1.409   .     S
O693   C694    1.409   .     S
C694   H696    1.113   .     S
C694   H695    1.107   .     S
C694   H697    1.105   .     S
O698   C699    1.409   .     S
C699   H700    1.107   .     S
C699   H701    1.112   .     S
C699   H702    1.105   .     S
O703   C704    1.409   .     S
C704   H707    1.105   .     S
C704   H706    1.112   .     S
C704   H705    1.107   .     S
O708   C709    1.409   .     S
C709   H710    1.107   .     S
C709   H711    1.112   .     S
C709   H712    1.105   .     S
N713   O715    1.300   .     A
N713   O714    1.301   .     A
N716   O717    1.301   .     A
N716   O718    1.300   .     A
N719   O720    1.301   .     A
N719   O721    1.300   .     A
N722   O724    1.301   .     A
N722   O723    1.300   .     A
N725   O727    1.300   .     A
N725   O726    1.301   .     A
N728   O730    1.301   .     A
N728   O729    1.300   .     A
N731   O732    1.301   .     A
N731   O733    1.300   .     A
N734   O736    1.300   .     A
N734   O735    1.301   .     A
N737   O738    1.301   .     A
N737   O739    1.300   .     A
N740   O741    1.300   .     A
N740   O742    1.301   .     A
N743   O744    1.301   .     A
N743   O745    1.300   .     A
N746   O748    1.301   .     A
N746   O747    1.300   .     A
N749   O751    1.300   .     A
N749   O750    1.301   .     A
N752   O754    1.301   .     A
N752   O753    1.300   .     A
N755   O757    1.300   .     A
N755   O756    1.301   .     A
N758   O760    1.301   .     A
N758   O759    1.300   .     A
O761   Cu789   1.990   .     S
O761   C777    1.294   .     A
O762   C778    1.307   .     A
O762   Cu638   1.990   1_655 S
O763   C778    1.294   .     A
O763   Cu637   1.990   1_655 S
O764   C777    1.307   .     A
O764   Cu790   1.990   .     S
O765   C779    1.294   .     A
O765   Cu638   1.990   1_655 S
O766   C780    1.307   .     A
O766   Cu789   1.990   .     S
O767   Cu790   1.990   .     S
O767   C780    1.294   .     A
O768   C779    1.307   .     A
O768   Cu637   1.990   1_655 S
O769   C781    1.294   .     A
O769   Cu1095  1.990   .     S
O770   C782    1.307   .     A
O770   Cu792   1.990   .     S
O771   Cu791   1.990   .     S
O771   C782    1.294   .     A
O772   C781    1.307   .     A
O772   Cu1096  1.990   .     S
O773   C783    1.294   .     A
O773   Cu1096  1.990   .     S
O774   Cu791   1.990   .     S
O774   C784    1.307   .     A
O775   C784    1.294   .     A
O775   Cu792   1.990   .     S
O776   C783    1.307   .     A
O776   Cu1095  1.990   .     S
C777   C820    1.478   .     S
C778   C819    1.478   .     S
C779   C818    1.478   .     S
C780   C817    1.478   .     S
C781   C824    1.478   .     S
C782   C823    1.478   .     S
C783   C822    1.478   .     S
C784   C821    1.478   .     S
N785   C794    1.369   .     A
N785   Cu789   2.020   .     S
N786   C793    1.369   .     A
N786   Cu790   2.020   .     S
N787   C798    1.369   .     A
N787   Cu791   2.020   .     S
N787   C1104   1.369   1_545 S
N788   Cu792   2.020   .     S
N788   C799    1.369   .     A
N788   C1101   1.369   1_545 S
Cu789  Cu790   2.689   .     S
Cu791  Cu792   2.689   .     S
Cu791  O1080   1.990   1_545 S
Cu791  O1073   1.990   1_545 S
Cu792  O1077   1.990   1_545 S
Cu792  O1076   1.990   1_545 S
C794   C1251   1.437   .     S
C795   N634    1.369   1_655 S
C795   C34     1.437   1_655 S
C795   O683    1.382   1_655 S
C796   C1249   1.437   1_655 S
C796   N633    1.369   1_655 S
C796   O688    1.382   1_655 S
C797   O845    1.382   .     S
C797   N1092   1.369   .     S
C798   O850    1.382   .     S
C798   C1407   1.437   .     S
C799   O855    1.382   .     S
C800   O860    1.382   .     S
C800   C1405   1.437   .     S
C800   N1091   1.369   .     S
C801   N865    1.433   .     S
C801   C818    1.416   .     A
C801   C811    1.393   .     A
C802   C817    1.412   .     A
C802   N868    1.448   .     S
C802   C812    1.409   .     A
C803   N871    1.433   .     S
C803   C809    1.393   .     A
C803   C817    1.416   .     A
C804   C810    1.409   .     A
C804   C818    1.412   .     A
C804   N874    1.448   .     S
C805   C820    1.416   .     A
C805   N877    1.433   .     S
C805   C815    1.393   .     A
C806   C819    1.412   .     A
C806   N880    1.448   .     S
C806   C816    1.409   .     A
C807   C813    1.393   .     A
C807   C819    1.416   .     A
C807   N883    1.433   .     S
C808   C814    1.409   .     A
C808   C820    1.412   .     A
C808   N886    1.448   .     S
C809   C822    1.416   .     A
C809   N889    1.433   .     S
C810   N892    1.447   .     S
C810   C821    1.412   .     A
C811   C821    1.416   .     A
C811   N895    1.433   .     S
C812   N898    1.447   .     S
C812   C822    1.412   .     A
C813   C824    1.416   .     A
C813   N901    1.433   .     S
C814   N904    1.448   .     S
C814   C823    1.412   .     A
C815   C823    1.416   .     A
C815   N907    1.433   .     S
C816   C824    1.412   .     A
C816   N910    1.448   .     S
O825   C641    1.382   1_655 S
O825   C674    1.409   1_655 S
C826   H828    1.113   .     S
C826   H829    1.105   .     S
C826   H827    1.107   .     S
O830   C642    1.382   1_655 S
O830   C679    1.409   1_655 S
C831   H833    1.113   .     S
C831   H834    1.105   .     S
C831   H832    1.107   .     S
C836   H839    1.105   .     S
C836   H838    1.113   .     S
C836   H837    1.107   .     S
C836   O683    1.409   1_655 S
C841   H842    1.107   .     S
C841   H843    1.113   .     S
C841   H844    1.105   .     S
C841   O688    1.409   1_655 S
O845   C846    1.409   .     S
C846   H848    1.113   .     S
C846   H847    1.107   .     S
C846   H849    1.105   .     S
O850   C851    1.409   .     S
C851   H852    1.107   .     S
C851   H853    1.112   .     S
C851   H854    1.105   .     S
O855   C856    1.409   .     S
C856   H859    1.105   .     S
C856   H858    1.112   .     S
C856   H857    1.107   .     S
O860   C861    1.409   .     S
C861   H862    1.107   .     S
C861   H863    1.112   .     S
C861   H864    1.105   .     S
N865   O867    1.300   .     A
N865   O866    1.301   .     A
N868   O869    1.301   .     A
N868   O870    1.300   .     A
N871   O872    1.301   .     A
N871   O873    1.300   .     A
N874   O876    1.301   .     A
N874   O875    1.300   .     A
N877   O879    1.300   .     A
N877   O878    1.301   .     A
N880   O882    1.301   .     A
N880   O881    1.300   .     A
N883   O884    1.301   .     A
N883   O885    1.300   .     A
N886   O888    1.300   .     A
N886   O887    1.301   .     A
N889   O890    1.301   .     A
N889   O891    1.300   .     A
N892   O893    1.300   .     A
N892   O894    1.301   .     A
N895   O896    1.301   .     A
N895   O897    1.300   .     A
N898   O900    1.301   .     A
N898   O899    1.300   .     A
N901   O903    1.300   .     A
N901   O902    1.301   .     A
N904   O906    1.301   .     A
N904   O905    1.300   .     A
N907   O909    1.300   .     A
N907   O908    1.301   .     A
N910   O912    1.301   .     A
N910   O911    1.300   .     A
O913   Cu941   1.990   .     S
O913   C929    1.294   .     A
O914   C930    1.307   .     A
O914   Cu1094  1.990   .     S
O915   C930    1.294   .     A
O915   Cu1093  1.990   .     S
O916   C929    1.307   .     A
O916   Cu942   1.990   .     S
O917   C931    1.294   .     A
O917   Cu1094  1.990   .     S
O918   C932    1.307   .     A
O918   Cu941   1.990   .     S
O919   Cu942   1.990   .     S
O919   C932    1.294   .     A
O920   C931    1.307   .     A
O920   Cu1093  1.990   .     S
O921   C933    1.294   .     A
O921   Cu639   1.990   1_565 S
O922   C934    1.307   .     A
O922   Cu944   1.990   .     S
O923   Cu943   1.990   .     S
O923   C934    1.294   .     A
O924   C933    1.307   .     A
O924   Cu640   1.990   1_565 S
O925   C935    1.294   .     A
O925   Cu640   1.990   1_565 S
O926   Cu943   1.990   .     S
O926   C936    1.307   .     A
O927   C936    1.294   .     A
O927   Cu944   1.990   .     S
O928   C935    1.307   .     A
O928   Cu639   1.990   1_565 S
C929   C972    1.478   .     S
C930   C971    1.478   .     S
C931   C970    1.478   .     S
C932   C969    1.478   .     S
C933   C976    1.478   .     S
C934   C975    1.478   .     S
C935   C974    1.478   .     S
C936   C973    1.478   .     S
N937   C946    1.369   .     A
N937   Cu941   2.020   .     S
N937   C1100   1.369   1_455 S
N938   C945    1.369   .     A
N938   Cu942   2.020   .     S
N938   C1099   1.369   1_455 S
N939   C950    1.369   .     A
N939   Cu943   2.020   .     S
N940   Cu944   2.020   .     S
N940   C951    1.369   .     A
Cu941  Cu942   2.689   .     S
Cu941  O1072   1.990   1_455 S
Cu941  O1067   1.990   1_455 S
Cu942  O1069   1.990   1_455 S
Cu942  O1066   1.990   1_455 S
Cu943  Cu944   2.689   .     S
C945   C492    1.437   1_455 S
C945   O1129   1.382   1_455 S
C946   C1707   1.437   1_455 S
C946   O1134   1.382   1_455 S
C947   N1090   1.369   .     S
C947   O1139   1.382   .     S
C948   C1705   1.437   .     S
C948   N1089   1.369   .     S
C948   O1144   1.382   .     S
C949   O997    1.382   .     S
C949   N636    1.369   1_565 S
C950   O1002   1.382   .     S
C950   C1559   1.437   .     S
C951   O1007   1.382   .     S
C952   O1012   1.382   .     S
C952   C1557   1.437   .     S
C952   N635    1.369   1_565 S
C953   N1017   1.433   .     S
C953   C970    1.416   .     A
C953   C963    1.393   .     A
C954   C969    1.412   .     A
C954   N1020   1.448   .     S
C954   C964    1.409   .     A
C955   N1023   1.433   .     S
C955   C961    1.393   .     A
C955   C969    1.416   .     A
C956   C962    1.409   .     A
C956   C970    1.412   .     A
C956   N1026   1.448   .     S
C957   C972    1.416   .     A
C957   N1029   1.433   .     S
C957   C967    1.393   .     A
C958   C971    1.412   .     A
C958   N1032   1.448   .     S
C958   C968    1.409   .     A
C959   C965    1.393   .     A
C959   C971    1.416   .     A
C959   N1035   1.433   .     S
C960   C966    1.409   .     A
C960   C972    1.412   .     A
C960   N1038   1.448   .     S
C961   C974    1.416   .     A
C961   N1041   1.433   .     S
C962   N1044   1.447   .     S
C962   C973    1.412   .     A
C963   C973    1.416   .     A
C963   N1047   1.433   .     S
C964   N1050   1.447   .     S
C964   C974    1.412   .     A
C965   C976    1.416   .     A
C965   N1053   1.433   .     S
C966   N1056   1.448   .     S
C966   C975    1.412   .     A
C967   C975    1.416   .     A
C967   N1059   1.433   .     S
C968   C976    1.412   .     A
C968   N1062   1.448   .     S
O977   C1097   1.382   .     S
O977   C1130   1.409   .     S
C978   H980    1.113   .     S
C978   H981    1.105   .     S
C978   H979    1.107   .     S
C978   O1129   1.409   1_455 S
O982   C1098   1.382   .     S
O982   C1135   1.409   .     S
C983   H985    1.113   .     S
C983   H986    1.105   .     S
C983   H984    1.107   .     S
C983   O1134   1.409   1_455 S
O987   C1099   1.382   1_455 S
O987   C1140   1.409   1_455 S
C988   H991    1.105   .     S
C988   H990    1.113   .     S
C988   H989    1.107   .     S
C988   O1139   1.409   .     S
O992   C1100   1.382   1_455 S
O992   C1145   1.409   1_455 S
C993   H994    1.107   .     S
C993   H995    1.113   .     S
C993   H996    1.105   .     S
C993   O1144   1.409   .     S
O997   C998    1.409   .     S
C998   H1000   1.113   .     S
C998   H999    1.107   .     S
C998   H1001   1.105   .     S
O1002  C1003   1.409   .     S
C1003  H1004   1.107   .     S
C1003  H1005   1.112   .     S
C1003  H1006   1.105   .     S
O1007  C1008   1.409   .     S
C1008  H1011   1.105   .     S
C1008  H1010   1.112   .     S
C1008  H1009   1.107   .     S
O1012  C1013   1.409   .     S
C1013  H1014   1.107   .     S
C1013  H1015   1.112   .     S
C1013  H1016   1.105   .     S
N1017  O1019   1.300   .     A
N1017  O1018   1.301   .     A
N1020  O1021   1.301   .     A
N1020  O1022   1.300   .     A
N1023  O1024   1.301   .     A
N1023  O1025   1.300   .     A
N1026  O1028   1.301   .     A
N1026  O1027   1.300   .     A
N1029  O1031   1.300   .     A
N1029  O1030   1.301   .     A
N1032  O1034   1.301   .     A
N1032  O1033   1.300   .     A
N1035  O1036   1.301   .     A
N1035  O1037   1.300   .     A
N1038  O1040   1.300   .     A
N1038  O1039   1.301   .     A
N1041  O1042   1.301   .     A
N1041  O1043   1.300   .     A
N1044  O1045   1.300   .     A
N1044  O1046   1.301   .     A
N1047  O1048   1.301   .     A
N1047  O1049   1.300   .     A
N1050  O1052   1.301   .     A
N1050  O1051   1.300   .     A
N1053  O1055   1.300   .     A
N1053  O1054   1.301   .     A
N1056  O1058   1.301   .     A
N1056  O1057   1.300   .     A
N1059  O1061   1.300   .     A
N1059  O1060   1.301   .     A
N1062  O1064   1.301   .     A
N1062  O1063   1.300   .     A
O1065  Cu1093  1.990   .     S
O1065  C1081   1.294   .     A
O1066  C1082   1.307   .     A
O1066  Cu942   1.990   1_655 S
O1067  C1082   1.294   .     A
O1067  Cu941   1.990   1_655 S
O1068  C1081   1.307   .     A
O1068  Cu1094  1.990   .     S
O1069  C1083   1.294   .     A
O1069  Cu942   1.990   1_655 S
O1070  C1084   1.307   .     A
O1070  Cu1093  1.990   .     S
O1071  Cu1094  1.990   .     S
O1071  C1084   1.294   .     A
O1072  C1083   1.307   .     A
O1072  Cu941   1.990   1_655 S
O1073  C1085   1.294   .     A
O1073  Cu791   1.990   1_565 S
O1074  C1086   1.307   .     A
O1074  Cu1096  1.990   .     S
O1075  Cu1095  1.990   .     S
O1075  C1086   1.294   .     A
O1076  C1085   1.307   .     A
O1076  Cu792   1.990   1_565 S
O1077  C1087   1.294   .     A
O1077  Cu792   1.990   1_565 S
O1078  Cu1095  1.990   .     S
O1078  C1088   1.307   .     A
O1079  C1088   1.294   .     A
O1079  Cu1096  1.990   .     S
O1080  C1087   1.307   .     A
O1080  Cu791   1.990   1_565 S
C1081  C1124   1.478   .     S
C1082  C1123   1.478   .     S
C1083  C1122   1.478   .     S
C1084  C1121   1.478   .     S
C1085  C1128   1.478   .     S
C1086  C1127   1.478   .     S
C1087  C1126   1.478   .     S
C1088  C1125   1.478   .     S
N1089  C1098   1.369   .     A
N1089  Cu1093  2.020   .     S
N1090  C1097   1.369   .     A
N1090  Cu1094  2.020   .     S
N1091  C1102   1.369   .     A
N1091  Cu1095  2.020   .     S
N1092  Cu1096  2.020   .     S
N1092  C1103   1.369   .     A
Cu1093 Cu1094  2.689   .     S
Cu1095 Cu1096  2.689   .     S
C1098  C1555   1.437   .     S
C1099  N938    1.369   1_655 S
C1099  C338    1.437   1_655 S
C1099  O987    1.382   1_655 S
C1100  C1553   1.437   1_655 S
C1100  N937    1.369   1_655 S
C1100  O992    1.382   1_655 S
C1101  O1149   1.382   .     S
C1101  N788    1.369   1_565 S
C1102  O1154   1.382   .     S
C1102  C1711   1.437   .     S
C1103  O1159   1.382   .     S
C1104  O1164   1.382   .     S
C1104  C1709   1.437   .     S
C1104  N787    1.369   1_565 S
C1105  N1169   1.433   .     S
C1105  C1122   1.416   .     A
C1105  C1115   1.393   .     A
C1106  C1121   1.412   .     A
C1106  N1172   1.448   .     S
C1106  C1116   1.409   .     A
C1107  N1175   1.433   .     S
C1107  C1113   1.393   .     A
C1107  C1121   1.416   .     A
C1108  C1114   1.409   .     A
C1108  C1122   1.412   .     A
C1108  N1178   1.448   .     S
C1109  C1124   1.416   .     A
C1109  N1181   1.433   .     S
C1109  C1119   1.393   .     A
C1110  C1123   1.412   .     A
C1110  N1184   1.448   .     S
C1110  C1120   1.409   .     A
C1111  C1117   1.393   .     A
C1111  C1123   1.416   .     A
C1111  N1187   1.433   .     S
C1112  C1118   1.409   .     A
C1112  C1124   1.412   .     A
C1112  N1190   1.448   .     S
C1113  C1126   1.416   .     A
C1113  N1193   1.433   .     S
C1114  N1196   1.447   .     S
C1114  C1125   1.412   .     A
C1115  C1125   1.416   .     A
C1115  N1199   1.433   .     S
C1116  N1202   1.447   .     S
C1116  C1126   1.412   .     A
C1117  C1128   1.416   .     A
C1117  N1205   1.433   .     S
C1118  N1208   1.448   .     S
C1118  C1127   1.412   .     A
C1119  C1127   1.416   .     A
C1119  N1211   1.433   .     S
C1120  C1128   1.412   .     A
C1120  N1214   1.448   .     S
O1129  C945    1.382   1_655 S
O1129  C978    1.409   1_655 S
C1130  H1132   1.113   .     S
C1130  H1133   1.105   .     S
C1130  H1131   1.107   .     S
O1134  C946    1.382   1_655 S
O1134  C983    1.409   1_655 S
C1135  H1137   1.113   .     S
C1135  H1138   1.105   .     S
C1135  H1136   1.107   .     S
C1140  H1143   1.105   .     S
C1140  H1142   1.113   .     S
C1140  H1141   1.107   .     S
C1140  O987    1.409   1_655 S
C1145  H1146   1.107   .     S
C1145  H1147   1.113   .     S
C1145  H1148   1.105   .     S
C1145  O992    1.409   1_655 S
O1149  C1150   1.409   .     S
C1150  H1152   1.113   .     S
C1150  H1151   1.107   .     S
C1150  H1153   1.105   .     S
O1154  C1155   1.409   .     S
C1155  H1156   1.107   .     S
C1155  H1157   1.112   .     S
C1155  H1158   1.105   .     S
O1159  C1160   1.409   .     S
C1160  H1163   1.105   .     S
C1160  H1162   1.112   .     S
C1160  H1161   1.107   .     S
O1164  C1165   1.409   .     S
C1165  H1166   1.107   .     S
C1165  H1167   1.112   .     S
C1165  H1168   1.105   .     S
N1169  O1171   1.300   .     A
N1169  O1170   1.301   .     A
N1172  O1173   1.301   .     A
N1172  O1174   1.300   .     A
N1175  O1176   1.301   .     A
N1175  O1177   1.300   .     A
N1178  O1180   1.301   .     A
N1178  O1179   1.300   .     A
N1181  O1183   1.300   .     A
N1181  O1182   1.301   .     A
N1184  O1186   1.301   .     A
N1184  O1185   1.300   .     A
N1187  O1188   1.301   .     A
N1187  O1189   1.300   .     A
N1190  O1192   1.300   .     A
N1190  O1191   1.301   .     A
N1193  O1194   1.301   .     A
N1193  O1195   1.300   .     A
N1196  O1197   1.300   .     A
N1196  O1198   1.301   .     A
N1199  O1200   1.301   .     A
N1199  O1201   1.300   .     A
N1202  O1204   1.301   .     A
N1202  O1203   1.300   .     A
N1205  O1207   1.300   .     A
N1205  O1206   1.301   .     A
N1208  O1210   1.301   .     A
N1208  O1209   1.300   .     A
N1211  O1213   1.300   .     A
N1211  O1212   1.301   .     A
N1214  O1216   1.301   .     A
N1214  O1215   1.300   .     A
O1217  Cu1245  1.990   .     S
O1217  C1233   1.294   .     A
O1218  C1234   1.307   .     A
O1218  Cu1398  1.990   .     S
O1219  C1234   1.294   .     A
O1219  Cu1397  1.990   .     S
O1220  C1233   1.307   .     A
O1220  Cu1246  1.990   .     S
O1221  C1235   1.294   .     A
O1221  Cu1398  1.990   .     S
O1222  C1236   1.307   .     A
O1222  Cu1245  1.990   .     S
O1223  Cu1246  1.990   .     S
O1223  C1236   1.294   .     A
O1224  C1235   1.307   .     A
O1224  Cu1397  1.990   .     S
O1225  C1237   1.294   .     A
O1225  Cu1551  1.990   .     S
O1226  C1238   1.307   .     A
O1226  Cu1248  1.990   .     S
O1227  Cu1247  1.990   .     S
O1227  C1238   1.294   .     A
O1228  C1237   1.307   .     A
O1228  Cu1552  1.990   .     S
O1229  C1239   1.294   .     A
O1229  Cu1552  1.990   .     S
O1230  Cu1247  1.990   .     S
O1230  C1240   1.307   .     A
O1231  C1240   1.294   .     A
O1231  Cu1248  1.990   .     S
O1232  C1239   1.307   .     A
O1232  Cu1551  1.990   .     S
C1233  C1276   1.478   .     S
C1234  C1275   1.478   .     S
C1235  C1274   1.478   .     S
C1236  C1273   1.478   .     S
C1237  C1280   1.478   .     S
C1238  C1279   1.478   .     S
C1239  C1278   1.478   .     S
C1240  C1277   1.478   .     S
N1241  C1250   1.369   .     A
N1241  Cu1245  2.020   .     S
N1241  C1404   1.369   1_455 S
N1242  C1249   1.369   .     A
N1242  Cu1246  2.020   .     S
N1242  C1403   1.369   1_455 S
N1243  C1254   1.369   .     A
N1243  Cu1247  2.020   .     S
N1243  C1560   1.369   1_545 S
N1244  Cu1248  2.020   .     S
N1244  C1255   1.369   .     A
N1244  C1557   1.369   1_545 S
Cu1245 Cu1246  2.689   .     S
Cu1245 O1376   1.990   1_455 S
Cu1245 O1371   1.990   1_455 S
Cu1246 O1373   1.990   1_455 S
Cu1246 O1370   1.990   1_455 S
Cu1247 Cu1248  2.689   .     S
Cu1247 O1536   1.990   1_545 S
Cu1247 O1529   1.990   1_545 S
Cu1248 O1533   1.990   1_545 S
Cu1248 O1532   1.990   1_545 S
C1249  C796    1.437   1_455 S
C1249  O1433   1.382   1_455 S
C1250  C187    1.437   1_456 S
C1250  O1438   1.382   1_455 S
C1251  N1394   1.369   .     S
C1251  O1443   1.382   .     S
C1252  C185    1.437   1_556 S
C1252  N1393   1.369   .     S
C1252  O1448   1.382   .     S
C1253  O1301   1.382   .     S
C1253  N1548   1.369   .     S
C1254  O1306   1.382   .     S
C1254  C39     1.437   1_556 S
C1255  O1311   1.382   .     S
C1256  O1316   1.382   .     S
C1256  C37     1.437   1_556 S
C1256  N1547   1.369   .     S
C1257  N1321   1.433   .     S
C1257  C1274   1.416   .     A
C1257  C1267   1.393   .     A
C1258  C1273   1.412   .     A
C1258  N1324   1.448   .     S
C1258  C1268   1.409   .     A
C1259  N1327   1.433   .     S
C1259  C1265   1.393   .     A
C1259  C1273   1.416   .     A
C1260  C1266   1.409   .     A
C1260  C1274   1.412   .     A
C1260  N1330   1.448   .     S
C1261  C1276   1.416   .     A
C1261  N1333   1.433   .     S
C1261  C1271   1.393   .     A
C1262  C1275   1.412   .     A
C1262  N1336   1.448   .     S
C1262  C1272   1.409   .     A
C1263  C1269   1.393   .     A
C1263  C1275   1.416   .     A
C1263  N1339   1.433   .     S
C1264  C1270   1.409   .     A
C1264  C1276   1.412   .     A
C1264  N1342   1.448   .     S
C1265  C1278   1.416   .     A
C1265  N1345   1.433   .     S
C1266  N1348   1.447   .     S
C1266  C1277   1.412   .     A
C1267  C1277   1.416   .     A
C1267  N1351   1.433   .     S
C1268  N1354   1.447   .     S
C1268  C1278   1.412   .     A
C1269  C1280   1.416   .     A
C1269  N1357   1.433   .     S
C1270  N1360   1.448   .     S
C1270  C1279   1.412   .     A
C1271  C1279   1.416   .     A
C1271  N1363   1.433   .     S
C1272  C1280   1.412   .     A
C1272  N1366   1.448   .     S
O1281  C1401   1.382   .     S
O1281  C1434   1.409   .     S
C1282  H1284   1.113   .     S
C1282  H1285   1.105   .     S
C1282  H1283   1.107   .     S
C1282  O1433   1.409   1_455 S
O1286  C1402   1.382   .     S
O1286  C1439   1.409   .     S
C1287  H1289   1.113   .     S
C1287  H1290   1.105   .     S
C1287  H1288   1.107   .     S
C1287  O1438   1.409   1_455 S
O1291  C1403   1.382   1_455 S
O1291  C1444   1.409   1_455 S
C1292  H1295   1.105   .     S
C1292  H1294   1.113   .     S
C1292  H1293   1.107   .     S
C1292  O1443   1.409   .     S
O1296  C1404   1.382   1_455 S
O1296  C1449   1.409   1_455 S
C1297  H1298   1.107   .     S
C1297  H1299   1.113   .     S
C1297  H1300   1.105   .     S
C1297  O1448   1.409   .     S
O1301  C1302   1.409   .     S
C1302  H1304   1.113   .     S
C1302  H1303   1.107   .     S
C1302  H1305   1.105   .     S
O1306  C1307   1.409   .     S
C1307  H1308   1.107   .     S
C1307  H1309   1.112   .     S
C1307  H1310   1.105   .     S
O1311  C1312   1.409   .     S
C1312  H1315   1.105   .     S
C1312  H1314   1.112   .     S
C1312  H1313   1.107   .     S
O1316  C1317   1.409   .     S
C1317  H1318   1.107   .     S
C1317  H1319   1.112   .     S
C1317  H1320   1.105   .     S
N1321  O1323   1.300   .     A
N1321  O1322   1.301   .     A
N1324  O1325   1.301   .     A
N1324  O1326   1.300   .     A
N1327  O1328   1.301   .     A
N1327  O1329   1.300   .     A
N1330  O1332   1.301   .     A
N1330  O1331   1.300   .     A
N1333  O1335   1.300   .     A
N1333  O1334   1.301   .     A
N1336  O1338   1.301   .     A
N1336  O1337   1.300   .     A
N1339  O1340   1.301   .     A
N1339  O1341   1.300   .     A
N1342  O1344   1.300   .     A
N1342  O1343   1.301   .     A
N1345  O1346   1.301   .     A
N1345  O1347   1.300   .     A
N1348  O1349   1.300   .     A
N1348  O1350   1.301   .     A
N1351  O1352   1.301   .     A
N1351  O1353   1.300   .     A
N1354  O1356   1.301   .     A
N1354  O1355   1.300   .     A
N1357  O1359   1.300   .     A
N1357  O1358   1.301   .     A
N1360  O1362   1.301   .     A
N1360  O1361   1.300   .     A
N1363  O1365   1.300   .     A
N1363  O1364   1.301   .     A
N1366  O1368   1.301   .     A
N1366  O1367   1.300   .     A
O1369  Cu1397  1.990   .     S
O1369  C1385   1.294   .     A
O1370  C1386   1.307   .     A
O1370  Cu1246  1.990   1_655 S
O1371  C1386   1.294   .     A
O1371  Cu1245  1.990   1_655 S
O1372  C1385   1.307   .     A
O1372  Cu1398  1.990   .     S
O1373  C1387   1.294   .     A
O1373  Cu1246  1.990   1_655 S
O1374  C1388   1.307   .     A
O1374  Cu1397  1.990   .     S
O1375  Cu1398  1.990   .     S
O1375  C1388   1.294   .     A
O1376  C1387   1.307   .     A
O1376  Cu1245  1.990   1_655 S
O1377  C1389   1.294   .     A
O1377  Cu1703  1.990   .     S
O1378  C1390   1.307   .     A
O1378  Cu1400  1.990   .     S
O1379  Cu1399  1.990   .     S
O1379  C1390   1.294   .     A
O1380  C1389   1.307   .     A
O1380  Cu1704  1.990   .     S
O1381  C1391   1.294   .     A
O1381  Cu1704  1.990   .     S
O1382  Cu1399  1.990   .     S
O1382  C1392   1.307   .     A
O1383  C1392   1.294   .     A
O1383  Cu1400  1.990   .     S
O1384  C1391   1.307   .     A
O1384  Cu1703  1.990   .     S
C1385  C1428   1.478   .     S
C1386  C1427   1.478   .     S
C1387  C1426   1.478   .     S
C1388  C1425   1.478   .     S
C1389  C1432   1.478   .     S
C1390  C1431   1.478   .     S
C1391  C1430   1.478   .     S
C1392  C1429   1.478   .     S
N1393  C1402   1.369   .     A
N1393  Cu1397  2.020   .     S
N1394  C1401   1.369   .     A
N1394  Cu1398  2.020   .     S
N1395  C1406   1.369   .     A
N1395  Cu1399  2.020   .     S
N1395  C1712   1.369   1_545 S
N1396  Cu1400  2.020   .     S
N1396  C1407   1.369   .     A
N1396  C1709   1.369   1_545 S
Cu1397 Cu1398  2.689   .     S
Cu1399 Cu1400  2.689   .     S
Cu1399 O1688   1.990   1_545 S
Cu1399 O1681   1.990   1_545 S
Cu1400 O1685   1.990   1_545 S
Cu1400 O1684   1.990   1_545 S
C1402  C35     1.437   1_556 S
C1403  N1242   1.369   1_655 S
C1403  C642    1.437   1_655 S
C1403  O1291   1.382   1_655 S
C1404  C33     1.437   1_656 S
C1404  N1241   1.369   1_655 S
C1404  O1296   1.382   1_655 S
C1405  O1453   1.382   .     S
C1405  N1700   1.369   .     S
C1406  O1458   1.382   .     S
C1406  C191    1.437   1_556 S
C1407  O1463   1.382   .     S
C1408  O1468   1.382   .     S
C1408  C189    1.437   1_556 S
C1408  N1699   1.369   .     S
C1409  N1473   1.433   .     S
C1409  C1426   1.416   .     A
C1409  C1419   1.393   .     A
C1410  C1425   1.412   .     A
C1410  N1476   1.448   .     S
C1410  C1420   1.409   .     A
C1411  N1479   1.433   .     S
C1411  C1417   1.393   .     A
C1411  C1425   1.416   .     A
C1412  C1418   1.409   .     A
C1412  C1426   1.412   .     A
C1412  N1482   1.448   .     S
C1413  C1428   1.416   .     A
C1413  N1485   1.433   .     S
C1413  C1423   1.393   .     A
C1414  C1427   1.412   .     A
C1414  N1488   1.448   .     S
C1414  C1424   1.409   .     A
C1415  C1421   1.393   .     A
C1415  C1427   1.416   .     A
C1415  N1491   1.433   .     S
C1416  C1422   1.409   .     A
C1416  C1428   1.412   .     A
C1416  N1494   1.448   .     S
C1417  C1430   1.416   .     A
C1417  N1497   1.433   .     S
C1418  N1500   1.447   .     S
C1418  C1429   1.412   .     A
C1419  C1429   1.416   .     A
C1419  N1503   1.433   .     S
C1420  N1506   1.447   .     S
C1420  C1430   1.412   .     A
C1421  C1432   1.416   .     A
C1421  N1509   1.433   .     S
C1422  N1512   1.448   .     S
C1422  C1431   1.412   .     A
C1423  C1431   1.416   .     A
C1423  N1515   1.433   .     S
C1424  C1432   1.412   .     A
C1424  N1518   1.448   .     S
O1433  C1249   1.382   1_655 S
O1433  C1282   1.409   1_655 S
C1434  H1436   1.113   .     S
C1434  H1437   1.105   .     S
C1434  H1435   1.107   .     S
O1438  C1250   1.382   1_655 S
O1438  C1287   1.409   1_655 S
C1439  H1441   1.113   .     S
C1439  H1442   1.105   .     S
C1439  H1440   1.107   .     S
C1444  H1447   1.105   .     S
C1444  H1446   1.113   .     S
C1444  H1445   1.107   .     S
C1444  O1291   1.409   1_655 S
C1449  H1450   1.107   .     S
C1449  H1451   1.113   .     S
C1449  H1452   1.105   .     S
C1449  O1296   1.409   1_655 S
O1453  C1454   1.409   .     S
C1454  H1456   1.113   .     S
C1454  H1455   1.107   .     S
C1454  H1457   1.105   .     S
O1458  C1459   1.409   .     S
C1459  H1460   1.107   .     S
C1459  H1461   1.112   .     S
C1459  H1462   1.105   .     S
O1463  C1464   1.409   .     S
C1464  H1467   1.105   .     S
C1464  H1466   1.112   .     S
C1464  H1465   1.107   .     S
O1468  C1469   1.409   .     S
C1469  H1470   1.107   .     S
C1469  H1471   1.112   .     S
C1469  H1472   1.105   .     S
N1473  O1475   1.300   .     A
N1473  O1474   1.301   .     A
N1476  O1477   1.301   .     A
N1476  O1478   1.300   .     A
N1479  O1480   1.301   .     A
N1479  O1481   1.300   .     A
N1482  O1484   1.301   .     A
N1482  O1483   1.300   .     A
N1485  O1487   1.300   .     A
N1485  O1486   1.301   .     A
N1488  O1490   1.301   .     A
N1488  O1489   1.300   .     A
N1491  O1492   1.301   .     A
N1491  O1493   1.300   .     A
N1494  O1496   1.300   .     A
N1494  O1495   1.301   .     A
N1497  O1498   1.301   .     A
N1497  O1499   1.300   .     A
N1500  O1501   1.300   .     A
N1500  O1502   1.301   .     A
N1503  O1504   1.301   .     A
N1503  O1505   1.300   .     A
N1506  O1508   1.301   .     A
N1506  O1507   1.300   .     A
N1509  O1511   1.300   .     A
N1509  O1510   1.301   .     A
N1512  O1514   1.301   .     A
N1512  O1513   1.300   .     A
N1515  O1517   1.300   .     A
N1515  O1516   1.301   .     A
N1518  O1520   1.301   .     A
N1518  O1519   1.300   .     A
O1521  Cu1549  1.990   .     S
O1521  C1537   1.294   .     A
O1522  C1538   1.307   .     A
O1522  Cu1702  1.990   .     S
O1523  C1538   1.294   .     A
O1523  Cu1701  1.990   .     S
O1524  C1537   1.307   .     A
O1524  Cu1550  1.990   .     S
O1525  C1539   1.294   .     A
O1525  Cu1702  1.990   .     S
O1526  C1540   1.307   .     A
O1526  Cu1549  1.990   .     S
O1527  Cu1550  1.990   .     S
O1527  C1540   1.294   .     A
O1528  C1539   1.307   .     A
O1528  Cu1701  1.990   .     S
O1529  C1541   1.294   .     A
O1529  Cu1247  1.990   1_565 S
O1530  C1542   1.307   .     A
O1530  Cu1552  1.990   .     S
O1531  Cu1551  1.990   .     S
O1531  C1542   1.294   .     A
O1532  C1541   1.307   .     A
O1532  Cu1248  1.990   1_565 S
O1533  C1543   1.294   .     A
O1533  Cu1248  1.990   1_565 S
O1534  Cu1551  1.990   .     S
O1534  C1544   1.307   .     A
O1535  C1544   1.294   .     A
O1535  Cu1552  1.990   .     S
O1536  C1543   1.307   .     A
O1536  Cu1247  1.990   1_565 S
C1537  C1580   1.478   .     S
C1538  C1579   1.478   .     S
C1539  C1578   1.478   .     S
C1540  C1577   1.478   .     S
C1541  C1584   1.478   .     S
C1542  C1583   1.478   .     S
C1543  C1582   1.478   .     S
C1544  C1581   1.478   .     S
N1545  C1554   1.369   .     A
N1545  Cu1549  2.020   .     S
N1545  C1708   1.369   1_455 S
N1546  C1553   1.369   .     A
N1546  Cu1550  2.020   .     S
N1546  C1707   1.369   1_455 S
N1547  C1558   1.369   .     A
N1547  Cu1551  2.020   .     S
N1548  Cu1552  2.020   .     S
N1548  C1559   1.369   .     A
Cu1549 Cu1550  2.689   .     S
Cu1549 O1680   1.990   1_455 S
Cu1549 O1675   1.990   1_455 S
Cu1550 O1677   1.990   1_455 S
Cu1550 O1674   1.990   1_455 S
Cu1551 Cu1552  2.689   .     S
C1553  C1100   1.437   1_455 S
C1553  O1737   1.382   1_455 S
C1554  C491    1.437   1_456 S
C1554  O1742   1.382   1_455 S
C1555  N1698   1.369   .     S
C1555  O1747   1.382   .     S
C1556  C489    1.437   1_556 S
C1556  N1697   1.369   .     S
C1556  O1752   1.382   .     S
C1557  O1605   1.382   .     S
C1557  N1244   1.369   1_565 S
C1558  O1610   1.382   .     S
C1558  C343    1.437   1_556 S
C1559  O1615   1.382   .     S
C1560  O1620   1.382   .     S
C1560  C341    1.437   1_556 S
C1560  N1243   1.369   1_565 S
C1561  N1625   1.433   .     S
C1561  C1578   1.416   .     A
C1561  C1571   1.393   .     A
C1562  C1577   1.412   .     A
C1562  N1628   1.448   .     S
C1562  C1572   1.409   .     A
C1563  N1631   1.433   .     S
C1563  C1569   1.393   .     A
C1563  C1577   1.416   .     A
C1564  C1570   1.409   .     A
C1564  C1578   1.412   .     A
C1564  N1634   1.448   .     S
C1565  C1580   1.416   .     A
C1565  N1637   1.433   .     S
C1565  C1575   1.393   .     A
C1566  C1579   1.412   .     A
C1566  N1640   1.448   .     S
C1566  C1576   1.409   .     A
C1567  C1573   1.393   .     A
C1567  C1579   1.416   .     A
C1567  N1643   1.433   .     S
C1568  C1574   1.409   .     A
C1568  C1580   1.412   .     A
C1568  N1646   1.448   .     S
C1569  C1582   1.416   .     A
C1569  N1649   1.433   .     S
C1570  N1652   1.447   .     S
C1570  C1581   1.412   .     A
C1571  C1581   1.416   .     A
C1571  N1655   1.433   .     S
C1572  N1658   1.447   .     S
C1572  C1582   1.412   .     A
C1573  C1584   1.416   .     A
C1573  N1661   1.433   .     S
C1574  N1664   1.448   .     S
C1574  C1583   1.412   .     A
C1575  C1583   1.416   .     A
C1575  N1667   1.433   .     S
C1576  C1584   1.412   .     A
C1576  N1670   1.448   .     S
O1585  C1705   1.382   .     S
O1585  C1738   1.409   .     S
C1586  H1588   1.113   .     S
C1586  H1589   1.105   .     S
C1586  H1587   1.107   .     S
C1586  O1737   1.409   1_455 S
O1590  C1706   1.382   .     S
O1590  C1743   1.409   .     S
C1591  H1593   1.113   .     S
C1591  H1594   1.105   .     S
C1591  H1592   1.107   .     S
C1591  O1742   1.409   1_455 S
O1595  C1707   1.382   1_455 S
O1595  C1748   1.409   1_455 S
C1596  H1599   1.105   .     S
C1596  H1598   1.113   .     S
C1596  H1597   1.107   .     S
C1596  O1747   1.409   .     S
O1600  C1708   1.382   1_455 S
O1600  C1753   1.409   1_455 S
C1601  H1602   1.107   .     S
C1601  H1603   1.113   .     S
C1601  H1604   1.105   .     S
C1601  O1752   1.409   .     S
O1605  C1606   1.409   .     S
C1606  H1608   1.113   .     S
C1606  H1607   1.107   .     S
C1606  H1609   1.105   .     S
O1610  C1611   1.409   .     S
C1611  H1612   1.107   .     S
C1611  H1613   1.112   .     S
C1611  H1614   1.105   .     S
O1615  C1616   1.409   .     S
C1616  H1619   1.105   .     S
C1616  H1618   1.112   .     S
C1616  H1617   1.107   .     S
O1620  C1621   1.409   .     S
C1621  H1622   1.107   .     S
C1621  H1623   1.112   .     S
C1621  H1624   1.105   .     S
N1625  O1627   1.300   .     A
N1625  O1626   1.301   .     A
N1628  O1629   1.301   .     A
N1628  O1630   1.300   .     A
N1631  O1632   1.301   .     A
N1631  O1633   1.300   .     A
N1634  O1636   1.301   .     A
N1634  O1635   1.300   .     A
N1637  O1639   1.300   .     A
N1637  O1638   1.301   .     A
N1640  O1642   1.301   .     A
N1640  O1641   1.300   .     A
N1643  O1644   1.301   .     A
N1643  O1645   1.300   .     A
N1646  O1648   1.300   .     A
N1646  O1647   1.301   .     A
N1649  O1650   1.301   .     A
N1649  O1651   1.300   .     A
N1652  O1653   1.300   .     A
N1652  O1654   1.301   .     A
N1655  O1656   1.301   .     A
N1655  O1657   1.300   .     A
N1658  O1660   1.301   .     A
N1658  O1659   1.300   .     A
N1661  O1663   1.300   .     A
N1661  O1662   1.301   .     A
N1664  O1666   1.301   .     A
N1664  O1665   1.300   .     A
N1667  O1669   1.300   .     A
N1667  O1668   1.301   .     A
N1670  O1672   1.301   .     A
N1670  O1671   1.300   .     A
O1673  Cu1701  1.990   .     S
O1673  C1689   1.294   .     A
O1674  C1690   1.307   .     A
O1674  Cu1550  1.990   1_655 S
O1675  C1690   1.294   .     A
O1675  Cu1549  1.990   1_655 S
O1676  C1689   1.307   .     A
O1676  Cu1702  1.990   .     S
O1677  C1691   1.294   .     A
O1677  Cu1550  1.990   1_655 S
O1678  C1692   1.307   .     A
O1678  Cu1701  1.990   .     S
O1679  Cu1702  1.990   .     S
O1679  C1692   1.294   .     A
O1680  C1691   1.307   .     A
O1680  Cu1549  1.990   1_655 S
O1681  C1693   1.294   .     A
O1681  Cu1399  1.990   1_565 S
O1682  C1694   1.307   .     A
O1682  Cu1704  1.990   .     S
O1683  Cu1703  1.990   .     S
O1683  C1694   1.294   .     A
O1684  C1693   1.307   .     A
O1684  Cu1400  1.990   1_565 S
O1685  C1695   1.294   .     A
O1685  Cu1400  1.990   1_565 S
O1686  Cu1703  1.990   .     S
O1686  C1696   1.307   .     A
O1687  C1696   1.294   .     A
O1687  Cu1704  1.990   .     S
O1688  C1695   1.307   .     A
O1688  Cu1399  1.990   1_565 S
C1689  C1732   1.478   .     S
C1690  C1731   1.478   .     S
C1691  C1730   1.478   .     S
C1692  C1729   1.478   .     S
C1693  C1736   1.478   .     S
C1694  C1735   1.478   .     S
C1695  C1734   1.478   .     S
C1696  C1733   1.478   .     S
N1697  C1706   1.369   .     A
N1697  Cu1701  2.020   .     S
N1698  C1705   1.369   .     A
N1698  Cu1702  2.020   .     S
N1699  C1710   1.369   .     A
N1699  Cu1703  2.020   .     S
N1700  Cu1704  2.020   .     S
N1700  C1711   1.369   .     A
Cu1701 Cu1702  2.689   .     S
Cu1703 Cu1704  2.689   .     S
C1706  C339    1.437   1_556 S
C1707  N1546   1.369   1_655 S
C1707  C946    1.437   1_655 S
C1707  O1595   1.382   1_655 S
C1708  C337    1.437   1_656 S
C1708  N1545   1.369   1_655 S
C1708  O1600   1.382   1_655 S
C1709  O1757   1.382   .     S
C1709  N1396   1.369   1_565 S
C1710  O1762   1.382   .     S
C1710  C495    1.437   1_556 S
C1711  O1767   1.382   .     S
C1712  O1772   1.382   .     S
C1712  C493    1.437   1_556 S
C1712  N1395   1.369   1_565 S
C1713  N1777   1.433   .     S
C1713  C1730   1.416   .     A
C1713  C1723   1.393   .     A
C1714  C1729   1.412   .     A
C1714  N1780   1.448   .     S
C1714  C1724   1.409   .     A
C1715  N1783   1.433   .     S
C1715  C1721   1.393   .     A
C1715  C1729   1.416   .     A
C1716  C1722   1.409   .     A
C1716  C1730   1.412   .     A
C1716  N1786   1.448   .     S
C1717  C1732   1.416   .     A
C1717  N1789   1.433   .     S
C1717  C1727   1.393   .     A
C1718  C1731   1.412   .     A
C1718  N1792   1.448   .     S
C1718  C1728   1.409   .     A
C1719  C1725   1.393   .     A
C1719  C1731   1.416   .     A
C1719  N1795   1.433   .     S
C1720  C1726   1.409   .     A
C1720  C1732   1.412   .     A
C1720  N1798   1.448   .     S
C1721  C1734   1.416   .     A
C1721  N1801   1.433   .     S
C1722  N1804   1.447   .     S
C1722  C1733   1.412   .     A
C1723  C1733   1.416   .     A
C1723  N1807   1.433   .     S
C1724  N1810   1.447   .     S
C1724  C1734   1.412   .     A
C1725  C1736   1.416   .     A
C1725  N1813   1.433   .     S
C1726  N1816   1.448   .     S
C1726  C1735   1.412   .     A
C1727  C1735   1.416   .     A
C1727  N1819   1.433   .     S
C1728  C1736   1.412   .     A
C1728  N1822   1.448   .     S
O1737  C1553   1.382   1_655 S
O1737  C1586   1.409   1_655 S
C1738  H1740   1.113   .     S
C1738  H1741   1.105   .     S
C1738  H1739   1.107   .     S
O1742  C1554   1.382   1_655 S
O1742  C1591   1.409   1_655 S
C1743  H1745   1.113   .     S
C1743  H1746   1.105   .     S
C1743  H1744   1.107   .     S
C1748  H1751   1.105   .     S
C1748  H1750   1.113   .     S
C1748  H1749   1.107   .     S
C1748  O1595   1.409   1_655 S
C1753  H1754   1.107   .     S
C1753  H1755   1.113   .     S
C1753  H1756   1.105   .     S
C1753  O1600   1.409   1_655 S
O1757  C1758   1.409   .     S
C1758  H1760   1.113   .     S
C1758  H1759   1.107   .     S
C1758  H1761   1.105   .     S
O1762  C1763   1.409   .     S
C1763  H1764   1.107   .     S
C1763  H1765   1.112   .     S
C1763  H1766   1.105   .     S
O1767  C1768   1.409   .     S
C1768  H1771   1.105   .     S
C1768  H1770   1.112   .     S
C1768  H1769   1.107   .     S
O1772  C1773   1.409   .     S
C1773  H1774   1.107   .     S
C1773  H1775   1.112   .     S
C1773  H1776   1.105   .     S
N1777  O1779   1.300   .     A
N1777  O1778   1.301   .     A
N1780  O1781   1.301   .     A
N1780  O1782   1.300   .     A
N1783  O1784   1.301   .     A
N1783  O1785   1.300   .     A
N1786  O1788   1.301   .     A
N1786  O1787   1.300   .     A
N1789  O1791   1.300   .     A
N1789  O1790   1.301   .     A
N1792  O1794   1.301   .     A
N1792  O1793   1.300   .     A
N1795  O1796   1.301   .     A
N1795  O1797   1.300   .     A
N1798  O1800   1.300   .     A
N1798  O1799   1.301   .     A
N1801  O1802   1.301   .     A
N1801  O1803   1.300   .     A
N1804  O1805   1.300   .     A
N1804  O1806   1.301   .     A
N1807  O1808   1.301   .     A
N1807  O1809   1.300   .     A
N1810  O1812   1.301   .     A
N1810  O1811   1.300   .     A
N1813  O1815   1.300   .     A
N1813  O1814   1.301   .     A
N1816  O1818   1.301   .     A
N1816  O1817   1.300   .     A
N1819  O1821   1.300   .     A
N1819  O1820   1.301   .     A
N1822  O1824   1.301   .     A
N1822  O1823   1.300   .     A
