data_str_m2_o1_o5_pcu_sym.7
_audit_creation_date              2020-01-03
_audit_creation_method            'Materials Studio'
_symmetry_space_group_name_H-M    'P1'
_symmetry_Int_Tables_number       1
_symmetry_cell_setting            triclinic
loop_
_symmetry_equiv_pos_as_xyz
  x,y,z
_cell_length_a                    32.5217
_cell_length_b                    28.8329
_cell_length_c                    27.1823
_cell_angle_alpha                 89.9997
_cell_angle_beta                  91.5587
_cell_angle_gamma                 90.0002
loop_
_atom_site_label
_atom_site_type_symbol
_atom_site_fract_x
_atom_site_fract_y
_atom_site_fract_z
_atom_site_U_iso_or_equiv
_atom_site_adp_type
_atom_site_occupancy
O1     O     0.10655   0.20625   0.16666   0.00000  Uiso   1.00
O2     O     0.22679   0.12709   0.16667   0.00000  Uiso   1.00
O3     O     0.22679   0.20625   0.16667   0.00000  Uiso   1.00
O4     O     0.10655   0.12709   0.16666   0.00000  Uiso   1.00
C5     C     0.08745   0.16667   0.16694   0.00000  Uiso   1.00
C6     C     0.24589   0.16667   0.16639   0.00000  Uiso   1.00
O7     O     0.16667   0.20625   0.09613   0.00000  Uiso   1.00
O8     O     0.16667   0.12708   0.23720   0.00000  Uiso   1.00
O9     O     0.16667   0.20625   0.23720   0.00000  Uiso   1.00
O10    O     0.16667   0.12708   0.09613   0.00000  Uiso   1.00
C11    C     0.16660   0.16667   0.07363   0.00000  Uiso   1.00
C12    C     0.16673   0.16667   0.25970   0.00000  Uiso   1.00
Cu13   Cu    0.16667   0.21355   0.16667   0.00000  Uiso   1.00
Cu14   Cu    0.16667   0.11978   0.16667   0.00000  Uiso   1.00
C15    C     0.16664   0.16667   0.02187   0.00000  Uiso   1.00
C16    C     0.16669   0.16667   0.31146   0.00000  Uiso   1.00
C17    C     0.02128   0.12457   0.16716   0.00000  Uiso   1.00
C18    C     0.31206   0.20876   0.16618   0.00000  Uiso   1.00
C19    C     0.31206   0.12457   0.16618   0.00000  Uiso   1.00
C20    C     0.02128   0.20876   0.16715   0.00000  Uiso   1.00
H21    H     0.03717   0.09161   0.16794   0.00000  Uiso   1.00
H22    H     0.29616   0.24172   0.16539   0.00000  Uiso   1.00
H23    H     0.29616   0.09161   0.16539   0.00000  Uiso   1.00
H24    H     0.03717   0.24172   0.16794   0.00000  Uiso   1.00
C25    C     0.29055   0.16667   0.16611   0.00000  Uiso   1.00
C26    C     0.04279   0.16667   0.16723   0.00000  Uiso   1.00
C27    C     0.14486   0.02469   0.13144   0.00000  Uiso   1.00
C28    C     0.18848   0.30864   0.20189   0.00000  Uiso   1.00
C29    C     0.18848   0.02469   0.20189   0.00000  Uiso   1.00
C30    C     0.14486   0.30864   0.13144   0.00000  Uiso   1.00
N31    N     0.16667   0.28402   0.16667   0.00000  Uiso   1.00
N32    N     0.16667   0.04931   0.16667   0.00000  Uiso   1.00
N33    N     0.12154   0.04846   0.09394   0.00000  Uiso   1.00
O34    O     0.08265   0.05607   0.10024   0.00000  Uiso   1.00
O35    O     0.13551   0.05002   0.04957   0.00000  Uiso   1.00
N36    N     0.21179   0.28488   0.23939   0.00000  Uiso   1.00
O37    O     0.25068   0.27726   0.23310   0.00000  Uiso   1.00
O38    O     0.19783   0.28331   0.28376   0.00000  Uiso   1.00
N39    N     0.21180   0.04846   0.23939   0.00000  Uiso   1.00
O40    O     0.19783   0.05003   0.28376   0.00000  Uiso   1.00
O41    O     0.25069   0.05605   0.23310   0.00000  Uiso   1.00
N42    N     0.12154   0.28488   0.09395   0.00000  Uiso   1.00
O43    O     0.13550   0.28330   0.04958   0.00000  Uiso   1.00
O44    O     0.08264   0.27728   0.10024   0.00000  Uiso   1.00
O45    O     0.43988   0.20625   0.16666   0.00000  Uiso   1.00
O46    O     0.56012   0.12709   0.16667   0.00000  Uiso   1.00
O47    O     0.56012   0.20625   0.16667   0.00000  Uiso   1.00
O48    O     0.43988   0.12709   0.16666   0.00000  Uiso   1.00
C49    C     0.42078   0.16667   0.16694   0.00000  Uiso   1.00
C50    C     0.57922   0.16667   0.16639   0.00000  Uiso   1.00
O51    O     0.50000   0.20625   0.09613   0.00000  Uiso   1.00
O52    O     0.50000   0.12708   0.23720   0.00000  Uiso   1.00
O53    O     0.50000   0.20625   0.23720   0.00000  Uiso   1.00
O54    O     0.50000   0.12708   0.09613   0.00000  Uiso   1.00
C55    C     0.49993   0.16667   0.07363   0.00000  Uiso   1.00
C56    C     0.50007   0.16667   0.25970   0.00000  Uiso   1.00
Cu57   Cu    0.50000   0.21355   0.16667   0.00000  Uiso   1.00
Cu58   Cu    0.50000   0.11978   0.16667   0.00000  Uiso   1.00
C59    C     0.49998   0.16667   0.02187   0.00000  Uiso   1.00
C60    C     0.50002   0.16667   0.31146   0.00000  Uiso   1.00
C61    C     0.35461   0.12457   0.16716   0.00000  Uiso   1.00
C62    C     0.64539   0.20876   0.16618   0.00000  Uiso   1.00
C63    C     0.64539   0.12457   0.16618   0.00000  Uiso   1.00
C64    C     0.35461   0.20876   0.16715   0.00000  Uiso   1.00
H65    H     0.37050   0.09161   0.16794   0.00000  Uiso   1.00
H66    H     0.62950   0.24172   0.16539   0.00000  Uiso   1.00
H67    H     0.62950   0.09161   0.16539   0.00000  Uiso   1.00
H68    H     0.37050   0.24172   0.16794   0.00000  Uiso   1.00
C69    C     0.62388   0.16667   0.16611   0.00000  Uiso   1.00
C70    C     0.37612   0.16667   0.16723   0.00000  Uiso   1.00
C71    C     0.47819   0.02469   0.13144   0.00000  Uiso   1.00
C72    C     0.52181   0.30864   0.20189   0.00000  Uiso   1.00
C73    C     0.52181   0.02469   0.20189   0.00000  Uiso   1.00
C74    C     0.47819   0.30864   0.13144   0.00000  Uiso   1.00
N75    N     0.50000   0.28402   0.16667   0.00000  Uiso   1.00
N76    N     0.50000   0.04931   0.16667   0.00000  Uiso   1.00
N77    N     0.45487   0.04846   0.09394   0.00000  Uiso   1.00
O78    O     0.41599   0.05607   0.10024   0.00000  Uiso   1.00
O79    O     0.46884   0.05002   0.04957   0.00000  Uiso   1.00
N80    N     0.54513   0.28488   0.23939   0.00000  Uiso   1.00
O81    O     0.58401   0.27726   0.23310   0.00000  Uiso   1.00
O82    O     0.53116   0.28331   0.28376   0.00000  Uiso   1.00
N83    N     0.54513   0.04846   0.23939   0.00000  Uiso   1.00
O84    O     0.53116   0.05003   0.28376   0.00000  Uiso   1.00
O85    O     0.58402   0.05605   0.23310   0.00000  Uiso   1.00
N86    N     0.45487   0.28488   0.09395   0.00000  Uiso   1.00
O87    O     0.46884   0.28330   0.04958   0.00000  Uiso   1.00
O88    O     0.41598   0.27728   0.10024   0.00000  Uiso   1.00
O89    O     0.77321   0.20625   0.16666   0.00000  Uiso   1.00
O90    O     0.89345   0.12709   0.16667   0.00000  Uiso   1.00
O91    O     0.89345   0.20625   0.16667   0.00000  Uiso   1.00
O92    O     0.77321   0.12709   0.16666   0.00000  Uiso   1.00
C93    C     0.75411   0.16667   0.16694   0.00000  Uiso   1.00
C94    C     0.91255   0.16667   0.16639   0.00000  Uiso   1.00
O95    O     0.83333   0.20625   0.09613   0.00000  Uiso   1.00
O96    O     0.83333   0.12708   0.23720   0.00000  Uiso   1.00
O97    O     0.83333   0.20625   0.23720   0.00000  Uiso   1.00
O98    O     0.83333   0.12708   0.09613   0.00000  Uiso   1.00
C99    C     0.83326   0.16667   0.07363   0.00000  Uiso   1.00
C100   C     0.83340   0.16667   0.25970   0.00000  Uiso   1.00
Cu101  Cu    0.83333   0.21355   0.16667   0.00000  Uiso   1.00
Cu102  Cu    0.83333   0.11978   0.16667   0.00000  Uiso   1.00
C103   C     0.83331   0.16667   0.02187   0.00000  Uiso   1.00
C104   C     0.83336   0.16667   0.31146   0.00000  Uiso   1.00
C105   C     0.68794   0.12457   0.16716   0.00000  Uiso   1.00
C106   C     0.97872   0.20876   0.16618   0.00000  Uiso   1.00
C107   C     0.97872   0.12457   0.16618   0.00000  Uiso   1.00
C108   C     0.68794   0.20876   0.16715   0.00000  Uiso   1.00
H109   H     0.70384   0.09161   0.16794   0.00000  Uiso   1.00
H110   H     0.96283   0.24172   0.16539   0.00000  Uiso   1.00
H111   H     0.96283   0.09161   0.16539   0.00000  Uiso   1.00
H112   H     0.70384   0.24172   0.16794   0.00000  Uiso   1.00
C113   C     0.95721   0.16667   0.16611   0.00000  Uiso   1.00
C114   C     0.70945   0.16667   0.16723   0.00000  Uiso   1.00
C115   C     0.81152   0.02469   0.13144   0.00000  Uiso   1.00
C116   C     0.85514   0.30864   0.20189   0.00000  Uiso   1.00
C117   C     0.85514   0.02469   0.20189   0.00000  Uiso   1.00
C118   C     0.81152   0.30864   0.13144   0.00000  Uiso   1.00
N119   N     0.83333   0.28402   0.16667   0.00000  Uiso   1.00
N120   N     0.83333   0.04931   0.16667   0.00000  Uiso   1.00
N121   N     0.78821   0.04846   0.09394   0.00000  Uiso   1.00
O122   O     0.74932   0.05607   0.10024   0.00000  Uiso   1.00
O123   O     0.80217   0.05002   0.04957   0.00000  Uiso   1.00
N124   N     0.87846   0.28488   0.23939   0.00000  Uiso   1.00
O125   O     0.91735   0.27726   0.23310   0.00000  Uiso   1.00
O126   O     0.86449   0.28331   0.28376   0.00000  Uiso   1.00
N127   N     0.87846   0.04846   0.23939   0.00000  Uiso   1.00
O128   O     0.86450   0.05003   0.28376   0.00000  Uiso   1.00
O129   O     0.91735   0.05605   0.23310   0.00000  Uiso   1.00
N130   N     0.78820   0.28488   0.09395   0.00000  Uiso   1.00
O131   O     0.80217   0.28330   0.04958   0.00000  Uiso   1.00
O132   O     0.74931   0.27728   0.10024   0.00000  Uiso   1.00
O133   O     0.10655   0.53958   0.16666   0.00000  Uiso   1.00
O134   O     0.22679   0.46042   0.16667   0.00000  Uiso   1.00
O135   O     0.22679   0.53958   0.16667   0.00000  Uiso   1.00
O136   O     0.10655   0.46042   0.16666   0.00000  Uiso   1.00
C137   C     0.08745   0.50000   0.16694   0.00000  Uiso   1.00
C138   C     0.24589   0.50000   0.16639   0.00000  Uiso   1.00
O139   O     0.16667   0.53959   0.09613   0.00000  Uiso   1.00
O140   O     0.16667   0.46041   0.23720   0.00000  Uiso   1.00
O141   O     0.16667   0.53959   0.23720   0.00000  Uiso   1.00
O142   O     0.16667   0.46041   0.09613   0.00000  Uiso   1.00
C143   C     0.16660   0.50000   0.07363   0.00000  Uiso   1.00
C144   C     0.16673   0.50000   0.25970   0.00000  Uiso   1.00
Cu145  Cu    0.16667   0.54689   0.16667   0.00000  Uiso   1.00
Cu146  Cu    0.16667   0.45311   0.16667   0.00000  Uiso   1.00
C147   C     0.16664   0.50000   0.02187   0.00000  Uiso   1.00
C148   C     0.16669   0.50000   0.31146   0.00000  Uiso   1.00
C149   C     0.02128   0.45791   0.16716   0.00000  Uiso   1.00
C150   C     0.31206   0.54209   0.16618   0.00000  Uiso   1.00
C151   C     0.31206   0.45791   0.16618   0.00000  Uiso   1.00
C152   C     0.02128   0.54209   0.16715   0.00000  Uiso   1.00
H153   H     0.03717   0.42495   0.16794   0.00000  Uiso   1.00
H154   H     0.29616   0.57505   0.16539   0.00000  Uiso   1.00
H155   H     0.29616   0.42495   0.16539   0.00000  Uiso   1.00
H156   H     0.03717   0.57505   0.16794   0.00000  Uiso   1.00
C157   C     0.29055   0.50000   0.16611   0.00000  Uiso   1.00
C158   C     0.04279   0.50000   0.16723   0.00000  Uiso   1.00
C159   C     0.14486   0.35803   0.13144   0.00000  Uiso   1.00
C160   C     0.18848   0.64197   0.20189   0.00000  Uiso   1.00
C161   C     0.18848   0.35803   0.20189   0.00000  Uiso   1.00
C162   C     0.14486   0.64197   0.13144   0.00000  Uiso   1.00
N163   N     0.16667   0.61736   0.16667   0.00000  Uiso   1.00
N164   N     0.16667   0.38264   0.16667   0.00000  Uiso   1.00
N165   N     0.12154   0.38179   0.09394   0.00000  Uiso   1.00
O166   O     0.08265   0.38940   0.10024   0.00000  Uiso   1.00
O167   O     0.13551   0.38336   0.04957   0.00000  Uiso   1.00
N168   N     0.21179   0.61821   0.23939   0.00000  Uiso   1.00
O169   O     0.25068   0.61060   0.23310   0.00000  Uiso   1.00
O170   O     0.19783   0.61664   0.28376   0.00000  Uiso   1.00
N171   N     0.21180   0.38179   0.23939   0.00000  Uiso   1.00
O172   O     0.19783   0.38336   0.28376   0.00000  Uiso   1.00
O173   O     0.25069   0.38939   0.23310   0.00000  Uiso   1.00
N174   N     0.12154   0.61821   0.09395   0.00000  Uiso   1.00
O175   O     0.13550   0.61664   0.04958   0.00000  Uiso   1.00
O176   O     0.08264   0.61061   0.10024   0.00000  Uiso   1.00
O177   O     0.43988   0.53958   0.16666   0.00000  Uiso   1.00
O178   O     0.56012   0.46042   0.16667   0.00000  Uiso   1.00
O179   O     0.56012   0.53958   0.16667   0.00000  Uiso   1.00
O180   O     0.43988   0.46042   0.16666   0.00000  Uiso   1.00
C181   C     0.42078   0.50000   0.16694   0.00000  Uiso   1.00
C182   C     0.57922   0.50000   0.16639   0.00000  Uiso   1.00
O183   O     0.50000   0.53959   0.09613   0.00000  Uiso   1.00
O184   O     0.50000   0.46041   0.23720   0.00000  Uiso   1.00
O185   O     0.50000   0.53959   0.23720   0.00000  Uiso   1.00
O186   O     0.50000   0.46041   0.09613   0.00000  Uiso   1.00
C187   C     0.49993   0.50000   0.07363   0.00000  Uiso   1.00
C188   C     0.50007   0.50000   0.25970   0.00000  Uiso   1.00
Cu189  Cu    0.50000   0.54689   0.16667   0.00000  Uiso   1.00
Cu190  Cu    0.50000   0.45311   0.16667   0.00000  Uiso   1.00
C191   C     0.49998   0.50000   0.02187   0.00000  Uiso   1.00
C192   C     0.50002   0.50000   0.31146   0.00000  Uiso   1.00
C193   C     0.35461   0.45791   0.16716   0.00000  Uiso   1.00
C194   C     0.64539   0.54209   0.16618   0.00000  Uiso   1.00
C195   C     0.64539   0.45791   0.16618   0.00000  Uiso   1.00
C196   C     0.35461   0.54209   0.16715   0.00000  Uiso   1.00
H197   H     0.37050   0.42495   0.16794   0.00000  Uiso   1.00
H198   H     0.62950   0.57505   0.16539   0.00000  Uiso   1.00
H199   H     0.62950   0.42495   0.16539   0.00000  Uiso   1.00
H200   H     0.37050   0.57505   0.16794   0.00000  Uiso   1.00
C201   C     0.62388   0.50000   0.16611   0.00000  Uiso   1.00
C202   C     0.37612   0.50000   0.16723   0.00000  Uiso   1.00
C203   C     0.47819   0.35803   0.13144   0.00000  Uiso   1.00
C204   C     0.52181   0.64197   0.20189   0.00000  Uiso   1.00
C205   C     0.52181   0.35803   0.20189   0.00000  Uiso   1.00
C206   C     0.47819   0.64197   0.13144   0.00000  Uiso   1.00
N207   N     0.50000   0.61736   0.16667   0.00000  Uiso   1.00
N208   N     0.50000   0.38264   0.16667   0.00000  Uiso   1.00
N209   N     0.45487   0.38179   0.09394   0.00000  Uiso   1.00
O210   O     0.41599   0.38940   0.10024   0.00000  Uiso   1.00
O211   O     0.46884   0.38336   0.04957   0.00000  Uiso   1.00
N212   N     0.54513   0.61821   0.23939   0.00000  Uiso   1.00
O213   O     0.58401   0.61060   0.23310   0.00000  Uiso   1.00
O214   O     0.53116   0.61664   0.28376   0.00000  Uiso   1.00
N215   N     0.54513   0.38179   0.23939   0.00000  Uiso   1.00
O216   O     0.53116   0.38336   0.28376   0.00000  Uiso   1.00
O217   O     0.58402   0.38939   0.23310   0.00000  Uiso   1.00
N218   N     0.45487   0.61821   0.09395   0.00000  Uiso   1.00
O219   O     0.46884   0.61664   0.04958   0.00000  Uiso   1.00
O220   O     0.41598   0.61061   0.10024   0.00000  Uiso   1.00
O221   O     0.77321   0.53958   0.16666   0.00000  Uiso   1.00
O222   O     0.89345   0.46042   0.16667   0.00000  Uiso   1.00
O223   O     0.89345   0.53958   0.16667   0.00000  Uiso   1.00
O224   O     0.77321   0.46042   0.16666   0.00000  Uiso   1.00
C225   C     0.75411   0.50000   0.16694   0.00000  Uiso   1.00
C226   C     0.91255   0.50000   0.16639   0.00000  Uiso   1.00
O227   O     0.83333   0.53959   0.09613   0.00000  Uiso   1.00
O228   O     0.83333   0.46041   0.23720   0.00000  Uiso   1.00
O229   O     0.83333   0.53959   0.23720   0.00000  Uiso   1.00
O230   O     0.83333   0.46041   0.09613   0.00000  Uiso   1.00
C231   C     0.83326   0.50000   0.07363   0.00000  Uiso   1.00
C232   C     0.83340   0.50000   0.25970   0.00000  Uiso   1.00
Cu233  Cu    0.83333   0.54689   0.16667   0.00000  Uiso   1.00
Cu234  Cu    0.83333   0.45311   0.16667   0.00000  Uiso   1.00
C235   C     0.83331   0.50000   0.02187   0.00000  Uiso   1.00
C236   C     0.83336   0.50000   0.31146   0.00000  Uiso   1.00
C237   C     0.68794   0.45791   0.16716   0.00000  Uiso   1.00
C238   C     0.97872   0.54209   0.16618   0.00000  Uiso   1.00
C239   C     0.97872   0.45791   0.16618   0.00000  Uiso   1.00
C240   C     0.68794   0.54209   0.16715   0.00000  Uiso   1.00
H241   H     0.70384   0.42495   0.16794   0.00000  Uiso   1.00
H242   H     0.96283   0.57505   0.16539   0.00000  Uiso   1.00
H243   H     0.96283   0.42495   0.16539   0.00000  Uiso   1.00
H244   H     0.70384   0.57505   0.16794   0.00000  Uiso   1.00
C245   C     0.95721   0.50000   0.16611   0.00000  Uiso   1.00
C246   C     0.70945   0.50000   0.16723   0.00000  Uiso   1.00
C247   C     0.81152   0.35803   0.13144   0.00000  Uiso   1.00
C248   C     0.85514   0.64197   0.20189   0.00000  Uiso   1.00
C249   C     0.85514   0.35803   0.20189   0.00000  Uiso   1.00
C250   C     0.81152   0.64197   0.13144   0.00000  Uiso   1.00
N251   N     0.83333   0.61736   0.16667   0.00000  Uiso   1.00
N252   N     0.83333   0.38264   0.16667   0.00000  Uiso   1.00
N253   N     0.78821   0.38179   0.09394   0.00000  Uiso   1.00
O254   O     0.74932   0.38940   0.10024   0.00000  Uiso   1.00
O255   O     0.80217   0.38336   0.04957   0.00000  Uiso   1.00
N256   N     0.87846   0.61821   0.23939   0.00000  Uiso   1.00
O257   O     0.91735   0.61060   0.23310   0.00000  Uiso   1.00
O258   O     0.86449   0.61664   0.28376   0.00000  Uiso   1.00
N259   N     0.87846   0.38179   0.23939   0.00000  Uiso   1.00
O260   O     0.86450   0.38336   0.28376   0.00000  Uiso   1.00
O261   O     0.91735   0.38939   0.23310   0.00000  Uiso   1.00
N262   N     0.78820   0.61821   0.09395   0.00000  Uiso   1.00
O263   O     0.80217   0.61664   0.04958   0.00000  Uiso   1.00
O264   O     0.74931   0.61061   0.10024   0.00000  Uiso   1.00
O265   O     0.10655   0.87291   0.16666   0.00000  Uiso   1.00
O266   O     0.22679   0.79375   0.16667   0.00000  Uiso   1.00
O267   O     0.22679   0.87291   0.16667   0.00000  Uiso   1.00
O268   O     0.10655   0.79375   0.16666   0.00000  Uiso   1.00
C269   C     0.08745   0.83333   0.16694   0.00000  Uiso   1.00
C270   C     0.24589   0.83333   0.16639   0.00000  Uiso   1.00
O271   O     0.16667   0.87292   0.09613   0.00000  Uiso   1.00
O272   O     0.16667   0.79375   0.23720   0.00000  Uiso   1.00
O273   O     0.16667   0.87292   0.23720   0.00000  Uiso   1.00
O274   O     0.16667   0.79375   0.09613   0.00000  Uiso   1.00
C275   C     0.16660   0.83333   0.07363   0.00000  Uiso   1.00
C276   C     0.16673   0.83333   0.25970   0.00000  Uiso   1.00
Cu277  Cu    0.16667   0.88022   0.16667   0.00000  Uiso   1.00
Cu278  Cu    0.16667   0.78645   0.16667   0.00000  Uiso   1.00
C279   C     0.16664   0.83333   0.02187   0.00000  Uiso   1.00
C280   C     0.16669   0.83333   0.31146   0.00000  Uiso   1.00
C281   C     0.02128   0.79124   0.16716   0.00000  Uiso   1.00
C282   C     0.31206   0.87543   0.16618   0.00000  Uiso   1.00
C283   C     0.31206   0.79124   0.16618   0.00000  Uiso   1.00
C284   C     0.02128   0.87543   0.16715   0.00000  Uiso   1.00
H285   H     0.03717   0.75828   0.16794   0.00000  Uiso   1.00
H286   H     0.29616   0.90839   0.16539   0.00000  Uiso   1.00
H287   H     0.29616   0.75828   0.16539   0.00000  Uiso   1.00
H288   H     0.03717   0.90839   0.16794   0.00000  Uiso   1.00
C289   C     0.29055   0.83333   0.16611   0.00000  Uiso   1.00
C290   C     0.04279   0.83333   0.16723   0.00000  Uiso   1.00
C291   C     0.14486   0.69136   0.13144   0.00000  Uiso   1.00
C292   C     0.18848   0.97531   0.20189   0.00000  Uiso   1.00
C293   C     0.18848   0.69136   0.20189   0.00000  Uiso   1.00
C294   C     0.14486   0.97531   0.13144   0.00000  Uiso   1.00
N295   N     0.16667   0.95069   0.16667   0.00000  Uiso   1.00
N296   N     0.16667   0.71598   0.16667   0.00000  Uiso   1.00
N297   N     0.12154   0.71513   0.09394   0.00000  Uiso   1.00
O298   O     0.08265   0.72274   0.10024   0.00000  Uiso   1.00
O299   O     0.13551   0.71669   0.04957   0.00000  Uiso   1.00
N300   N     0.21179   0.95154   0.23939   0.00000  Uiso   1.00
O301   O     0.25068   0.94393   0.23310   0.00000  Uiso   1.00
O302   O     0.19783   0.94998   0.28376   0.00000  Uiso   1.00
N303   N     0.21180   0.71512   0.23939   0.00000  Uiso   1.00
O304   O     0.19783   0.71670   0.28376   0.00000  Uiso   1.00
O305   O     0.25069   0.72272   0.23310   0.00000  Uiso   1.00
N306   N     0.12154   0.95154   0.09395   0.00000  Uiso   1.00
O307   O     0.13550   0.94997   0.04958   0.00000  Uiso   1.00
O308   O     0.08264   0.94395   0.10024   0.00000  Uiso   1.00
O309   O     0.43988   0.87291   0.16666   0.00000  Uiso   1.00
O310   O     0.56012   0.79375   0.16667   0.00000  Uiso   1.00
O311   O     0.56012   0.87291   0.16667   0.00000  Uiso   1.00
O312   O     0.43988   0.79375   0.16666   0.00000  Uiso   1.00
C313   C     0.42078   0.83333   0.16694   0.00000  Uiso   1.00
C314   C     0.57922   0.83333   0.16639   0.00000  Uiso   1.00
O315   O     0.50000   0.87292   0.09613   0.00000  Uiso   1.00
O316   O     0.50000   0.79375   0.23720   0.00000  Uiso   1.00
O317   O     0.50000   0.87292   0.23720   0.00000  Uiso   1.00
O318   O     0.50000   0.79375   0.09613   0.00000  Uiso   1.00
C319   C     0.49993   0.83333   0.07363   0.00000  Uiso   1.00
C320   C     0.50007   0.83333   0.25970   0.00000  Uiso   1.00
Cu321  Cu    0.50000   0.88022   0.16667   0.00000  Uiso   1.00
Cu322  Cu    0.50000   0.78645   0.16667   0.00000  Uiso   1.00
C323   C     0.49998   0.83333   0.02187   0.00000  Uiso   1.00
C324   C     0.50002   0.83333   0.31146   0.00000  Uiso   1.00
C325   C     0.35461   0.79124   0.16716   0.00000  Uiso   1.00
C326   C     0.64539   0.87543   0.16618   0.00000  Uiso   1.00
C327   C     0.64539   0.79124   0.16618   0.00000  Uiso   1.00
C328   C     0.35461   0.87543   0.16715   0.00000  Uiso   1.00
H329   H     0.37050   0.75828   0.16794   0.00000  Uiso   1.00
H330   H     0.62950   0.90839   0.16539   0.00000  Uiso   1.00
H331   H     0.62950   0.75828   0.16539   0.00000  Uiso   1.00
H332   H     0.37050   0.90839   0.16794   0.00000  Uiso   1.00
C333   C     0.62388   0.83333   0.16611   0.00000  Uiso   1.00
C334   C     0.37612   0.83333   0.16723   0.00000  Uiso   1.00
C335   C     0.47819   0.69136   0.13144   0.00000  Uiso   1.00
C336   C     0.52181   0.97531   0.20189   0.00000  Uiso   1.00
C337   C     0.52181   0.69136   0.20189   0.00000  Uiso   1.00
C338   C     0.47819   0.97531   0.13144   0.00000  Uiso   1.00
N339   N     0.50000   0.95069   0.16667   0.00000  Uiso   1.00
N340   N     0.50000   0.71598   0.16667   0.00000  Uiso   1.00
N341   N     0.45487   0.71513   0.09394   0.00000  Uiso   1.00
O342   O     0.41599   0.72274   0.10024   0.00000  Uiso   1.00
O343   O     0.46884   0.71669   0.04957   0.00000  Uiso   1.00
N344   N     0.54513   0.95154   0.23939   0.00000  Uiso   1.00
O345   O     0.58401   0.94393   0.23310   0.00000  Uiso   1.00
O346   O     0.53116   0.94998   0.28376   0.00000  Uiso   1.00
N347   N     0.54513   0.71512   0.23939   0.00000  Uiso   1.00
O348   O     0.53116   0.71670   0.28376   0.00000  Uiso   1.00
O349   O     0.58402   0.72272   0.23310   0.00000  Uiso   1.00
N350   N     0.45487   0.95154   0.09395   0.00000  Uiso   1.00
O351   O     0.46884   0.94997   0.04958   0.00000  Uiso   1.00
O352   O     0.41598   0.94395   0.10024   0.00000  Uiso   1.00
O353   O     0.77321   0.87291   0.16666   0.00000  Uiso   1.00
O354   O     0.89345   0.79375   0.16667   0.00000  Uiso   1.00
O355   O     0.89345   0.87291   0.16667   0.00000  Uiso   1.00
O356   O     0.77321   0.79375   0.16666   0.00000  Uiso   1.00
C357   C     0.75411   0.83333   0.16694   0.00000  Uiso   1.00
C358   C     0.91255   0.83333   0.16639   0.00000  Uiso   1.00
O359   O     0.83333   0.87292   0.09613   0.00000  Uiso   1.00
O360   O     0.83333   0.79375   0.23720   0.00000  Uiso   1.00
O361   O     0.83333   0.87292   0.23720   0.00000  Uiso   1.00
O362   O     0.83333   0.79375   0.09613   0.00000  Uiso   1.00
C363   C     0.83326   0.83333   0.07363   0.00000  Uiso   1.00
C364   C     0.83340   0.83333   0.25970   0.00000  Uiso   1.00
Cu365  Cu    0.83333   0.88022   0.16667   0.00000  Uiso   1.00
Cu366  Cu    0.83333   0.78645   0.16667   0.00000  Uiso   1.00
C367   C     0.83331   0.83333   0.02187   0.00000  Uiso   1.00
C368   C     0.83336   0.83333   0.31146   0.00000  Uiso   1.00
C369   C     0.68794   0.79124   0.16716   0.00000  Uiso   1.00
C370   C     0.97872   0.87543   0.16618   0.00000  Uiso   1.00
C371   C     0.97872   0.79124   0.16618   0.00000  Uiso   1.00
C372   C     0.68794   0.87543   0.16715   0.00000  Uiso   1.00
H373   H     0.70384   0.75828   0.16794   0.00000  Uiso   1.00
H374   H     0.96283   0.90839   0.16539   0.00000  Uiso   1.00
H375   H     0.96283   0.75828   0.16539   0.00000  Uiso   1.00
H376   H     0.70384   0.90839   0.16794   0.00000  Uiso   1.00
C377   C     0.95721   0.83333   0.16611   0.00000  Uiso   1.00
C378   C     0.70945   0.83333   0.16723   0.00000  Uiso   1.00
C379   C     0.81152   0.69136   0.13144   0.00000  Uiso   1.00
C380   C     0.85514   0.97531   0.20189   0.00000  Uiso   1.00
C381   C     0.85514   0.69136   0.20189   0.00000  Uiso   1.00
C382   C     0.81152   0.97531   0.13144   0.00000  Uiso   1.00
N383   N     0.83333   0.95069   0.16667   0.00000  Uiso   1.00
N384   N     0.83333   0.71598   0.16667   0.00000  Uiso   1.00
N385   N     0.78821   0.71513   0.09394   0.00000  Uiso   1.00
O386   O     0.74932   0.72274   0.10024   0.00000  Uiso   1.00
O387   O     0.80217   0.71669   0.04957   0.00000  Uiso   1.00
N388   N     0.87846   0.95154   0.23939   0.00000  Uiso   1.00
O389   O     0.91735   0.94393   0.23310   0.00000  Uiso   1.00
O390   O     0.86449   0.94998   0.28376   0.00000  Uiso   1.00
N391   N     0.87846   0.71512   0.23939   0.00000  Uiso   1.00
O392   O     0.86450   0.71670   0.28376   0.00000  Uiso   1.00
O393   O     0.91735   0.72272   0.23310   0.00000  Uiso   1.00
N394   N     0.78820   0.95154   0.09395   0.00000  Uiso   1.00
O395   O     0.80217   0.94997   0.04958   0.00000  Uiso   1.00
O396   O     0.74931   0.94395   0.10024   0.00000  Uiso   1.00
O397   O     0.10655   0.20625   0.50000   0.00000  Uiso   1.00
O398   O     0.22679   0.12709   0.50000   0.00000  Uiso   1.00
O399   O     0.22679   0.20625   0.50000   0.00000  Uiso   1.00
O400   O     0.10655   0.12709   0.50000   0.00000  Uiso   1.00
C401   C     0.08745   0.16667   0.50028   0.00000  Uiso   1.00
C402   C     0.24589   0.16667   0.49972   0.00000  Uiso   1.00
O403   O     0.16667   0.20625   0.42946   0.00000  Uiso   1.00
O404   O     0.16667   0.12708   0.57054   0.00000  Uiso   1.00
O405   O     0.16667   0.20625   0.57054   0.00000  Uiso   1.00
O406   O     0.16667   0.12708   0.42946   0.00000  Uiso   1.00
C407   C     0.16660   0.16667   0.40697   0.00000  Uiso   1.00
C408   C     0.16673   0.16667   0.59303   0.00000  Uiso   1.00
Cu409  Cu    0.16667   0.21355   0.50000   0.00000  Uiso   1.00
Cu410  Cu    0.16667   0.11978   0.50000   0.00000  Uiso   1.00
C411   C     0.16664   0.16667   0.35521   0.00000  Uiso   1.00
C412   C     0.16669   0.16667   0.64479   0.00000  Uiso   1.00
C413   C     0.02128   0.12457   0.50049   0.00000  Uiso   1.00
C414   C     0.31206   0.20876   0.49951   0.00000  Uiso   1.00
C415   C     0.31206   0.12457   0.49951   0.00000  Uiso   1.00
C416   C     0.02128   0.20876   0.50049   0.00000  Uiso   1.00
H417   H     0.03717   0.09161   0.50128   0.00000  Uiso   1.00
H418   H     0.29616   0.24172   0.49872   0.00000  Uiso   1.00
H419   H     0.29616   0.09161   0.49872   0.00000  Uiso   1.00
H420   H     0.03717   0.24172   0.50128   0.00000  Uiso   1.00
C421   C     0.29055   0.16667   0.49944   0.00000  Uiso   1.00
C422   C     0.04279   0.16667   0.50056   0.00000  Uiso   1.00
C423   C     0.14486   0.02469   0.46477   0.00000  Uiso   1.00
C424   C     0.18848   0.30864   0.53522   0.00000  Uiso   1.00
C425   C     0.18848   0.02469   0.53522   0.00000  Uiso   1.00
C426   C     0.14486   0.30864   0.46477   0.00000  Uiso   1.00
N427   N     0.16667   0.28402   0.50000   0.00000  Uiso   1.00
N428   N     0.16667   0.04931   0.50000   0.00000  Uiso   1.00
N429   N     0.12154   0.04846   0.42728   0.00000  Uiso   1.00
O430   O     0.08265   0.05607   0.43357   0.00000  Uiso   1.00
O431   O     0.13551   0.05002   0.38290   0.00000  Uiso   1.00
N432   N     0.21179   0.28488   0.57272   0.00000  Uiso   1.00
O433   O     0.25068   0.27726   0.56643   0.00000  Uiso   1.00
O434   O     0.19783   0.28331   0.61710   0.00000  Uiso   1.00
N435   N     0.21180   0.04846   0.57272   0.00000  Uiso   1.00
O436   O     0.19783   0.05003   0.61709   0.00000  Uiso   1.00
O437   O     0.25069   0.05605   0.56643   0.00000  Uiso   1.00
N438   N     0.12154   0.28488   0.42728   0.00000  Uiso   1.00
O439   O     0.13550   0.28330   0.38291   0.00000  Uiso   1.00
O440   O     0.08264   0.27728   0.43357   0.00000  Uiso   1.00
O441   O     0.43988   0.20625   0.50000   0.00000  Uiso   1.00
O442   O     0.56012   0.12709   0.50000   0.00000  Uiso   1.00
O443   O     0.56012   0.20625   0.50000   0.00000  Uiso   1.00
O444   O     0.43988   0.12709   0.50000   0.00000  Uiso   1.00
C445   C     0.42078   0.16667   0.50028   0.00000  Uiso   1.00
C446   C     0.57922   0.16667   0.49972   0.00000  Uiso   1.00
O447   O     0.50000   0.20625   0.42946   0.00000  Uiso   1.00
O448   O     0.50000   0.12708   0.57054   0.00000  Uiso   1.00
O449   O     0.50000   0.20625   0.57054   0.00000  Uiso   1.00
O450   O     0.50000   0.12708   0.42946   0.00000  Uiso   1.00
C451   C     0.49993   0.16667   0.40697   0.00000  Uiso   1.00
C452   C     0.50007   0.16667   0.59303   0.00000  Uiso   1.00
Cu453  Cu    0.50000   0.21355   0.50000   0.00000  Uiso   1.00
Cu454  Cu    0.50000   0.11978   0.50000   0.00000  Uiso   1.00
C455   C     0.49998   0.16667   0.35521   0.00000  Uiso   1.00
C456   C     0.50002   0.16667   0.64479   0.00000  Uiso   1.00
C457   C     0.35461   0.12457   0.50049   0.00000  Uiso   1.00
C458   C     0.64539   0.20876   0.49951   0.00000  Uiso   1.00
C459   C     0.64539   0.12457   0.49951   0.00000  Uiso   1.00
C460   C     0.35461   0.20876   0.50049   0.00000  Uiso   1.00
H461   H     0.37050   0.09161   0.50128   0.00000  Uiso   1.00
H462   H     0.62950   0.24172   0.49872   0.00000  Uiso   1.00
H463   H     0.62950   0.09161   0.49872   0.00000  Uiso   1.00
H464   H     0.37050   0.24172   0.50128   0.00000  Uiso   1.00
C465   C     0.62388   0.16667   0.49944   0.00000  Uiso   1.00
C466   C     0.37612   0.16667   0.50056   0.00000  Uiso   1.00
C467   C     0.47819   0.02469   0.46477   0.00000  Uiso   1.00
C468   C     0.52181   0.30864   0.53522   0.00000  Uiso   1.00
C469   C     0.52181   0.02469   0.53522   0.00000  Uiso   1.00
C470   C     0.47819   0.30864   0.46477   0.00000  Uiso   1.00
N471   N     0.50000   0.28402   0.50000   0.00000  Uiso   1.00
N472   N     0.50000   0.04931   0.50000   0.00000  Uiso   1.00
N473   N     0.45487   0.04846   0.42728   0.00000  Uiso   1.00
O474   O     0.41599   0.05607   0.43357   0.00000  Uiso   1.00
O475   O     0.46884   0.05002   0.38290   0.00000  Uiso   1.00
N476   N     0.54513   0.28488   0.57272   0.00000  Uiso   1.00
O477   O     0.58401   0.27726   0.56643   0.00000  Uiso   1.00
O478   O     0.53116   0.28331   0.61710   0.00000  Uiso   1.00
N479   N     0.54513   0.04846   0.57272   0.00000  Uiso   1.00
O480   O     0.53116   0.05003   0.61709   0.00000  Uiso   1.00
O481   O     0.58402   0.05605   0.56643   0.00000  Uiso   1.00
N482   N     0.45487   0.28488   0.42728   0.00000  Uiso   1.00
O483   O     0.46884   0.28330   0.38291   0.00000  Uiso   1.00
O484   O     0.41598   0.27728   0.43357   0.00000  Uiso   1.00
O485   O     0.77321   0.20625   0.50000   0.00000  Uiso   1.00
O486   O     0.89345   0.12709   0.50000   0.00000  Uiso   1.00
O487   O     0.89345   0.20625   0.50000   0.00000  Uiso   1.00
O488   O     0.77321   0.12709   0.50000   0.00000  Uiso   1.00
C489   C     0.75411   0.16667   0.50028   0.00000  Uiso   1.00
C490   C     0.91255   0.16667   0.49972   0.00000  Uiso   1.00
O491   O     0.83333   0.20625   0.42946   0.00000  Uiso   1.00
O492   O     0.83333   0.12708   0.57054   0.00000  Uiso   1.00
O493   O     0.83333   0.20625   0.57054   0.00000  Uiso   1.00
O494   O     0.83333   0.12708   0.42946   0.00000  Uiso   1.00
C495   C     0.83326   0.16667   0.40697   0.00000  Uiso   1.00
C496   C     0.83340   0.16667   0.59303   0.00000  Uiso   1.00
Cu497  Cu    0.83333   0.21355   0.50000   0.00000  Uiso   1.00
Cu498  Cu    0.83333   0.11978   0.50000   0.00000  Uiso   1.00
C499   C     0.83331   0.16667   0.35521   0.00000  Uiso   1.00
C500   C     0.83336   0.16667   0.64479   0.00000  Uiso   1.00
C501   C     0.68794   0.12457   0.50049   0.00000  Uiso   1.00
C502   C     0.97872   0.20876   0.49951   0.00000  Uiso   1.00
C503   C     0.97872   0.12457   0.49951   0.00000  Uiso   1.00
C504   C     0.68794   0.20876   0.50049   0.00000  Uiso   1.00
H505   H     0.70384   0.09161   0.50128   0.00000  Uiso   1.00
H506   H     0.96283   0.24172   0.49872   0.00000  Uiso   1.00
H507   H     0.96283   0.09161   0.49872   0.00000  Uiso   1.00
H508   H     0.70384   0.24172   0.50128   0.00000  Uiso   1.00
C509   C     0.95721   0.16667   0.49944   0.00000  Uiso   1.00
C510   C     0.70945   0.16667   0.50056   0.00000  Uiso   1.00
C511   C     0.81152   0.02469   0.46477   0.00000  Uiso   1.00
C512   C     0.85514   0.30864   0.53522   0.00000  Uiso   1.00
C513   C     0.85514   0.02469   0.53522   0.00000  Uiso   1.00
C514   C     0.81152   0.30864   0.46477   0.00000  Uiso   1.00
N515   N     0.83333   0.28402   0.50000   0.00000  Uiso   1.00
N516   N     0.83333   0.04931   0.50000   0.00000  Uiso   1.00
N517   N     0.78821   0.04846   0.42728   0.00000  Uiso   1.00
O518   O     0.74932   0.05607   0.43357   0.00000  Uiso   1.00
O519   O     0.80217   0.05002   0.38290   0.00000  Uiso   1.00
N520   N     0.87846   0.28488   0.57272   0.00000  Uiso   1.00
O521   O     0.91735   0.27726   0.56643   0.00000  Uiso   1.00
O522   O     0.86449   0.28331   0.61710   0.00000  Uiso   1.00
N523   N     0.87846   0.04846   0.57272   0.00000  Uiso   1.00
O524   O     0.86450   0.05003   0.61709   0.00000  Uiso   1.00
O525   O     0.91735   0.05605   0.56643   0.00000  Uiso   1.00
N526   N     0.78820   0.28488   0.42728   0.00000  Uiso   1.00
O527   O     0.80217   0.28330   0.38291   0.00000  Uiso   1.00
O528   O     0.74931   0.27728   0.43357   0.00000  Uiso   1.00
O529   O     0.10655   0.53958   0.50000   0.00000  Uiso   1.00
O530   O     0.22679   0.46042   0.50000   0.00000  Uiso   1.00
O531   O     0.22679   0.53958   0.50000   0.00000  Uiso   1.00
O532   O     0.10655   0.46042   0.50000   0.00000  Uiso   1.00
C533   C     0.08745   0.50000   0.50028   0.00000  Uiso   1.00
C534   C     0.24589   0.50000   0.49972   0.00000  Uiso   1.00
O535   O     0.16667   0.53959   0.42946   0.00000  Uiso   1.00
O536   O     0.16667   0.46041   0.57054   0.00000  Uiso   1.00
O537   O     0.16667   0.53959   0.57054   0.00000  Uiso   1.00
O538   O     0.16667   0.46041   0.42946   0.00000  Uiso   1.00
C539   C     0.16660   0.50000   0.40697   0.00000  Uiso   1.00
C540   C     0.16673   0.50000   0.59303   0.00000  Uiso   1.00
Cu541  Cu    0.16667   0.54689   0.50000   0.00000  Uiso   1.00
Cu542  Cu    0.16667   0.45311   0.50000   0.00000  Uiso   1.00
C543   C     0.16664   0.50000   0.35521   0.00000  Uiso   1.00
C544   C     0.16669   0.50000   0.64479   0.00000  Uiso   1.00
C545   C     0.02128   0.45791   0.50049   0.00000  Uiso   1.00
C546   C     0.31206   0.54209   0.49951   0.00000  Uiso   1.00
C547   C     0.31206   0.45791   0.49951   0.00000  Uiso   1.00
C548   C     0.02128   0.54209   0.50049   0.00000  Uiso   1.00
H549   H     0.03717   0.42495   0.50128   0.00000  Uiso   1.00
H550   H     0.29616   0.57505   0.49872   0.00000  Uiso   1.00
H551   H     0.29616   0.42495   0.49872   0.00000  Uiso   1.00
H552   H     0.03717   0.57505   0.50128   0.00000  Uiso   1.00
C553   C     0.29055   0.50000   0.49944   0.00000  Uiso   1.00
C554   C     0.04279   0.50000   0.50056   0.00000  Uiso   1.00
C555   C     0.14486   0.35803   0.46477   0.00000  Uiso   1.00
C556   C     0.18848   0.64197   0.53522   0.00000  Uiso   1.00
C557   C     0.18848   0.35803   0.53522   0.00000  Uiso   1.00
C558   C     0.14486   0.64197   0.46477   0.00000  Uiso   1.00
N559   N     0.16667   0.61736   0.50000   0.00000  Uiso   1.00
N560   N     0.16667   0.38264   0.50000   0.00000  Uiso   1.00
N561   N     0.12154   0.38179   0.42728   0.00000  Uiso   1.00
O562   O     0.08265   0.38940   0.43357   0.00000  Uiso   1.00
O563   O     0.13551   0.38336   0.38290   0.00000  Uiso   1.00
N564   N     0.21179   0.61821   0.57272   0.00000  Uiso   1.00
O565   O     0.25068   0.61060   0.56643   0.00000  Uiso   1.00
O566   O     0.19783   0.61664   0.61710   0.00000  Uiso   1.00
N567   N     0.21180   0.38179   0.57272   0.00000  Uiso   1.00
O568   O     0.19783   0.38336   0.61709   0.00000  Uiso   1.00
O569   O     0.25069   0.38939   0.56643   0.00000  Uiso   1.00
N570   N     0.12154   0.61821   0.42728   0.00000  Uiso   1.00
O571   O     0.13550   0.61664   0.38291   0.00000  Uiso   1.00
O572   O     0.08264   0.61061   0.43357   0.00000  Uiso   1.00
O573   O     0.43988   0.53958   0.50000   0.00000  Uiso   1.00
O574   O     0.56012   0.46042   0.50000   0.00000  Uiso   1.00
O575   O     0.56012   0.53958   0.50000   0.00000  Uiso   1.00
O576   O     0.43988   0.46042   0.50000   0.00000  Uiso   1.00
C577   C     0.42078   0.50000   0.50028   0.00000  Uiso   1.00
C578   C     0.57922   0.50000   0.49972   0.00000  Uiso   1.00
O579   O     0.50000   0.53959   0.42946   0.00000  Uiso   1.00
O580   O     0.50000   0.46041   0.57054   0.00000  Uiso   1.00
O581   O     0.50000   0.53959   0.57054   0.00000  Uiso   1.00
O582   O     0.50000   0.46041   0.42946   0.00000  Uiso   1.00
C583   C     0.49993   0.50000   0.40697   0.00000  Uiso   1.00
C584   C     0.50007   0.50000   0.59303   0.00000  Uiso   1.00
Cu585  Cu    0.50000   0.54689   0.50000   0.00000  Uiso   1.00
Cu586  Cu    0.50000   0.45311   0.50000   0.00000  Uiso   1.00
C587   C     0.49998   0.50000   0.35521   0.00000  Uiso   1.00
C588   C     0.50002   0.50000   0.64479   0.00000  Uiso   1.00
C589   C     0.35461   0.45791   0.50049   0.00000  Uiso   1.00
C590   C     0.64539   0.54209   0.49951   0.00000  Uiso   1.00
C591   C     0.64539   0.45791   0.49951   0.00000  Uiso   1.00
C592   C     0.35461   0.54209   0.50049   0.00000  Uiso   1.00
H593   H     0.37050   0.42495   0.50128   0.00000  Uiso   1.00
H594   H     0.62950   0.57505   0.49872   0.00000  Uiso   1.00
H595   H     0.62950   0.42495   0.49872   0.00000  Uiso   1.00
H596   H     0.37050   0.57505   0.50128   0.00000  Uiso   1.00
C597   C     0.62388   0.50000   0.49944   0.00000  Uiso   1.00
C598   C     0.37612   0.50000   0.50056   0.00000  Uiso   1.00
C599   C     0.47819   0.35803   0.46477   0.00000  Uiso   1.00
C600   C     0.52181   0.64197   0.53522   0.00000  Uiso   1.00
C601   C     0.52181   0.35803   0.53522   0.00000  Uiso   1.00
C602   C     0.47819   0.64197   0.46477   0.00000  Uiso   1.00
N603   N     0.50000   0.61736   0.50000   0.00000  Uiso   1.00
N604   N     0.50000   0.38264   0.50000   0.00000  Uiso   1.00
N605   N     0.45487   0.38179   0.42728   0.00000  Uiso   1.00
O606   O     0.41599   0.38940   0.43357   0.00000  Uiso   1.00
O607   O     0.46884   0.38336   0.38290   0.00000  Uiso   1.00
N608   N     0.54513   0.61821   0.57272   0.00000  Uiso   1.00
O609   O     0.58401   0.61060   0.56643   0.00000  Uiso   1.00
O610   O     0.53116   0.61664   0.61710   0.00000  Uiso   1.00
N611   N     0.54513   0.38179   0.57272   0.00000  Uiso   1.00
O612   O     0.53116   0.38336   0.61709   0.00000  Uiso   1.00
O613   O     0.58402   0.38939   0.56643   0.00000  Uiso   1.00
N614   N     0.45487   0.61821   0.42728   0.00000  Uiso   1.00
O615   O     0.46884   0.61664   0.38291   0.00000  Uiso   1.00
O616   O     0.41598   0.61061   0.43357   0.00000  Uiso   1.00
O617   O     0.77321   0.53958   0.50000   0.00000  Uiso   1.00
O618   O     0.89345   0.46042   0.50000   0.00000  Uiso   1.00
O619   O     0.89345   0.53958   0.50000   0.00000  Uiso   1.00
O620   O     0.77321   0.46042   0.50000   0.00000  Uiso   1.00
C621   C     0.75411   0.50000   0.50028   0.00000  Uiso   1.00
C622   C     0.91255   0.50000   0.49972   0.00000  Uiso   1.00
O623   O     0.83333   0.53959   0.42946   0.00000  Uiso   1.00
O624   O     0.83333   0.46041   0.57054   0.00000  Uiso   1.00
O625   O     0.83333   0.53959   0.57054   0.00000  Uiso   1.00
O626   O     0.83333   0.46041   0.42946   0.00000  Uiso   1.00
C627   C     0.83326   0.50000   0.40697   0.00000  Uiso   1.00
C628   C     0.83340   0.50000   0.59303   0.00000  Uiso   1.00
Cu629  Cu    0.83333   0.54689   0.50000   0.00000  Uiso   1.00
Cu630  Cu    0.83333   0.45311   0.50000   0.00000  Uiso   1.00
C631   C     0.83331   0.50000   0.35521   0.00000  Uiso   1.00
C632   C     0.83336   0.50000   0.64479   0.00000  Uiso   1.00
C633   C     0.68794   0.45791   0.50049   0.00000  Uiso   1.00
C634   C     0.97872   0.54209   0.49951   0.00000  Uiso   1.00
C635   C     0.97872   0.45791   0.49951   0.00000  Uiso   1.00
C636   C     0.68794   0.54209   0.50049   0.00000  Uiso   1.00
H637   H     0.70384   0.42495   0.50128   0.00000  Uiso   1.00
H638   H     0.96283   0.57505   0.49872   0.00000  Uiso   1.00
H639   H     0.96283   0.42495   0.49872   0.00000  Uiso   1.00
H640   H     0.70384   0.57505   0.50128   0.00000  Uiso   1.00
C641   C     0.95721   0.50000   0.49944   0.00000  Uiso   1.00
C642   C     0.70945   0.50000   0.50056   0.00000  Uiso   1.00
C643   C     0.81152   0.35803   0.46477   0.00000  Uiso   1.00
C644   C     0.85514   0.64197   0.53522   0.00000  Uiso   1.00
C645   C     0.85514   0.35803   0.53522   0.00000  Uiso   1.00
C646   C     0.81152   0.64197   0.46477   0.00000  Uiso   1.00
N647   N     0.83333   0.61736   0.50000   0.00000  Uiso   1.00
N648   N     0.83333   0.38264   0.50000   0.00000  Uiso   1.00
N649   N     0.78821   0.38179   0.42728   0.00000  Uiso   1.00
O650   O     0.74932   0.38940   0.43357   0.00000  Uiso   1.00
O651   O     0.80217   0.38336   0.38290   0.00000  Uiso   1.00
N652   N     0.87846   0.61821   0.57272   0.00000  Uiso   1.00
O653   O     0.91735   0.61060   0.56643   0.00000  Uiso   1.00
O654   O     0.86449   0.61664   0.61710   0.00000  Uiso   1.00
N655   N     0.87846   0.38179   0.57272   0.00000  Uiso   1.00
O656   O     0.86450   0.38336   0.61709   0.00000  Uiso   1.00
O657   O     0.91735   0.38939   0.56643   0.00000  Uiso   1.00
N658   N     0.78820   0.61821   0.42728   0.00000  Uiso   1.00
O659   O     0.80217   0.61664   0.38291   0.00000  Uiso   1.00
O660   O     0.74931   0.61061   0.43357   0.00000  Uiso   1.00
O661   O     0.10655   0.87291   0.50000   0.00000  Uiso   1.00
O662   O     0.22679   0.79375   0.50000   0.00000  Uiso   1.00
O663   O     0.22679   0.87291   0.50000   0.00000  Uiso   1.00
O664   O     0.10655   0.79375   0.50000   0.00000  Uiso   1.00
C665   C     0.08745   0.83333   0.50028   0.00000  Uiso   1.00
C666   C     0.24589   0.83333   0.49972   0.00000  Uiso   1.00
O667   O     0.16667   0.87292   0.42946   0.00000  Uiso   1.00
O668   O     0.16667   0.79375   0.57054   0.00000  Uiso   1.00
O669   O     0.16667   0.87292   0.57054   0.00000  Uiso   1.00
O670   O     0.16667   0.79375   0.42946   0.00000  Uiso   1.00
C671   C     0.16660   0.83333   0.40697   0.00000  Uiso   1.00
C672   C     0.16673   0.83333   0.59303   0.00000  Uiso   1.00
Cu673  Cu    0.16667   0.88022   0.50000   0.00000  Uiso   1.00
Cu674  Cu    0.16667   0.78645   0.50000   0.00000  Uiso   1.00
C675   C     0.16664   0.83333   0.35521   0.00000  Uiso   1.00
C676   C     0.16669   0.83333   0.64479   0.00000  Uiso   1.00
C677   C     0.02128   0.79124   0.50049   0.00000  Uiso   1.00
C678   C     0.31206   0.87543   0.49951   0.00000  Uiso   1.00
C679   C     0.31206   0.79124   0.49951   0.00000  Uiso   1.00
C680   C     0.02128   0.87543   0.50049   0.00000  Uiso   1.00
H681   H     0.03717   0.75828   0.50128   0.00000  Uiso   1.00
H682   H     0.29616   0.90839   0.49872   0.00000  Uiso   1.00
H683   H     0.29616   0.75828   0.49872   0.00000  Uiso   1.00
H684   H     0.03717   0.90839   0.50128   0.00000  Uiso   1.00
C685   C     0.29055   0.83333   0.49944   0.00000  Uiso   1.00
C686   C     0.04279   0.83333   0.50056   0.00000  Uiso   1.00
C687   C     0.14486   0.69136   0.46477   0.00000  Uiso   1.00
C688   C     0.18848   0.97531   0.53522   0.00000  Uiso   1.00
C689   C     0.18848   0.69136   0.53522   0.00000  Uiso   1.00
C690   C     0.14486   0.97531   0.46477   0.00000  Uiso   1.00
N691   N     0.16667   0.95069   0.50000   0.00000  Uiso   1.00
N692   N     0.16667   0.71598   0.50000   0.00000  Uiso   1.00
N693   N     0.12154   0.71513   0.42728   0.00000  Uiso   1.00
O694   O     0.08265   0.72274   0.43357   0.00000  Uiso   1.00
O695   O     0.13551   0.71669   0.38290   0.00000  Uiso   1.00
N696   N     0.21179   0.95154   0.57272   0.00000  Uiso   1.00
O697   O     0.25068   0.94393   0.56643   0.00000  Uiso   1.00
O698   O     0.19783   0.94998   0.61710   0.00000  Uiso   1.00
N699   N     0.21180   0.71512   0.57272   0.00000  Uiso   1.00
O700   O     0.19783   0.71670   0.61709   0.00000  Uiso   1.00
O701   O     0.25069   0.72272   0.56643   0.00000  Uiso   1.00
N702   N     0.12154   0.95154   0.42728   0.00000  Uiso   1.00
O703   O     0.13550   0.94997   0.38291   0.00000  Uiso   1.00
O704   O     0.08264   0.94395   0.43357   0.00000  Uiso   1.00
O705   O     0.43988   0.87291   0.50000   0.00000  Uiso   1.00
O706   O     0.56012   0.79375   0.50000   0.00000  Uiso   1.00
O707   O     0.56012   0.87291   0.50000   0.00000  Uiso   1.00
O708   O     0.43988   0.79375   0.50000   0.00000  Uiso   1.00
C709   C     0.42078   0.83333   0.50028   0.00000  Uiso   1.00
C710   C     0.57922   0.83333   0.49972   0.00000  Uiso   1.00
O711   O     0.50000   0.87292   0.42946   0.00000  Uiso   1.00
O712   O     0.50000   0.79375   0.57054   0.00000  Uiso   1.00
O713   O     0.50000   0.87292   0.57054   0.00000  Uiso   1.00
O714   O     0.50000   0.79375   0.42946   0.00000  Uiso   1.00
C715   C     0.49993   0.83333   0.40697   0.00000  Uiso   1.00
C716   C     0.50007   0.83333   0.59303   0.00000  Uiso   1.00
Cu717  Cu    0.50000   0.88022   0.50000   0.00000  Uiso   1.00
Cu718  Cu    0.50000   0.78645   0.50000   0.00000  Uiso   1.00
C719   C     0.49998   0.83333   0.35521   0.00000  Uiso   1.00
C720   C     0.50002   0.83333   0.64479   0.00000  Uiso   1.00
C721   C     0.35461   0.79124   0.50049   0.00000  Uiso   1.00
C722   C     0.64539   0.87543   0.49951   0.00000  Uiso   1.00
C723   C     0.64539   0.79124   0.49951   0.00000  Uiso   1.00
C724   C     0.35461   0.87543   0.50049   0.00000  Uiso   1.00
H725   H     0.37050   0.75828   0.50128   0.00000  Uiso   1.00
H726   H     0.62950   0.90839   0.49872   0.00000  Uiso   1.00
H727   H     0.62950   0.75828   0.49872   0.00000  Uiso   1.00
H728   H     0.37050   0.90839   0.50128   0.00000  Uiso   1.00
C729   C     0.62388   0.83333   0.49944   0.00000  Uiso   1.00
C730   C     0.37612   0.83333   0.50056   0.00000  Uiso   1.00
C731   C     0.47819   0.69136   0.46477   0.00000  Uiso   1.00
C732   C     0.52181   0.97531   0.53522   0.00000  Uiso   1.00
C733   C     0.52181   0.69136   0.53522   0.00000  Uiso   1.00
C734   C     0.47819   0.97531   0.46477   0.00000  Uiso   1.00
N735   N     0.50000   0.95069   0.50000   0.00000  Uiso   1.00
N736   N     0.50000   0.71598   0.50000   0.00000  Uiso   1.00
N737   N     0.45487   0.71513   0.42728   0.00000  Uiso   1.00
O738   O     0.41599   0.72274   0.43357   0.00000  Uiso   1.00
O739   O     0.46884   0.71669   0.38290   0.00000  Uiso   1.00
N740   N     0.54513   0.95154   0.57272   0.00000  Uiso   1.00
O741   O     0.58401   0.94393   0.56643   0.00000  Uiso   1.00
O742   O     0.53116   0.94998   0.61710   0.00000  Uiso   1.00
N743   N     0.54513   0.71512   0.57272   0.00000  Uiso   1.00
O744   O     0.53116   0.71670   0.61709   0.00000  Uiso   1.00
O745   O     0.58402   0.72272   0.56643   0.00000  Uiso   1.00
N746   N     0.45487   0.95154   0.42728   0.00000  Uiso   1.00
O747   O     0.46884   0.94997   0.38291   0.00000  Uiso   1.00
O748   O     0.41598   0.94395   0.43357   0.00000  Uiso   1.00
O749   O     0.77321   0.87291   0.50000   0.00000  Uiso   1.00
O750   O     0.89345   0.79375   0.50000   0.00000  Uiso   1.00
O751   O     0.89345   0.87291   0.50000   0.00000  Uiso   1.00
O752   O     0.77321   0.79375   0.50000   0.00000  Uiso   1.00
C753   C     0.75411   0.83333   0.50028   0.00000  Uiso   1.00
C754   C     0.91255   0.83333   0.49972   0.00000  Uiso   1.00
O755   O     0.83333   0.87292   0.42946   0.00000  Uiso   1.00
O756   O     0.83333   0.79375   0.57054   0.00000  Uiso   1.00
O757   O     0.83333   0.87292   0.57054   0.00000  Uiso   1.00
O758   O     0.83333   0.79375   0.42946   0.00000  Uiso   1.00
C759   C     0.83326   0.83333   0.40697   0.00000  Uiso   1.00
C760   C     0.83340   0.83333   0.59303   0.00000  Uiso   1.00
Cu761  Cu    0.83333   0.88022   0.50000   0.00000  Uiso   1.00
Cu762  Cu    0.83333   0.78645   0.50000   0.00000  Uiso   1.00
C763   C     0.83331   0.83333   0.35521   0.00000  Uiso   1.00
C764   C     0.83336   0.83333   0.64479   0.00000  Uiso   1.00
C765   C     0.68794   0.79124   0.50049   0.00000  Uiso   1.00
C766   C     0.97872   0.87543   0.49951   0.00000  Uiso   1.00
C767   C     0.97872   0.79124   0.49951   0.00000  Uiso   1.00
C768   C     0.68794   0.87543   0.50049   0.00000  Uiso   1.00
H769   H     0.70384   0.75828   0.50128   0.00000  Uiso   1.00
H770   H     0.96283   0.90839   0.49872   0.00000  Uiso   1.00
H771   H     0.96283   0.75828   0.49872   0.00000  Uiso   1.00
H772   H     0.70384   0.90839   0.50128   0.00000  Uiso   1.00
C773   C     0.95721   0.83333   0.49944   0.00000  Uiso   1.00
C774   C     0.70945   0.83333   0.50056   0.00000  Uiso   1.00
C775   C     0.81152   0.69136   0.46477   0.00000  Uiso   1.00
C776   C     0.85514   0.97531   0.53522   0.00000  Uiso   1.00
C777   C     0.85514   0.69136   0.53522   0.00000  Uiso   1.00
C778   C     0.81152   0.97531   0.46477   0.00000  Uiso   1.00
N779   N     0.83333   0.95069   0.50000   0.00000  Uiso   1.00
N780   N     0.83333   0.71598   0.50000   0.00000  Uiso   1.00
N781   N     0.78821   0.71513   0.42728   0.00000  Uiso   1.00
O782   O     0.74932   0.72274   0.43357   0.00000  Uiso   1.00
O783   O     0.80217   0.71669   0.38290   0.00000  Uiso   1.00
N784   N     0.87846   0.95154   0.57272   0.00000  Uiso   1.00
O785   O     0.91735   0.94393   0.56643   0.00000  Uiso   1.00
O786   O     0.86449   0.94998   0.61710   0.00000  Uiso   1.00
N787   N     0.87846   0.71512   0.57272   0.00000  Uiso   1.00
O788   O     0.86450   0.71670   0.61709   0.00000  Uiso   1.00
O789   O     0.91735   0.72272   0.56643   0.00000  Uiso   1.00
N790   N     0.78820   0.95154   0.42728   0.00000  Uiso   1.00
O791   O     0.80217   0.94997   0.38291   0.00000  Uiso   1.00
O792   O     0.74931   0.94395   0.43357   0.00000  Uiso   1.00
O793   O     0.10655   0.20625   0.83333   0.00000  Uiso   1.00
O794   O     0.22679   0.12709   0.83334   0.00000  Uiso   1.00
O795   O     0.22679   0.20625   0.83334   0.00000  Uiso   1.00
O796   O     0.10655   0.12709   0.83333   0.00000  Uiso   1.00
C797   C     0.08745   0.16667   0.83361   0.00000  Uiso   1.00
C798   C     0.24589   0.16667   0.83306   0.00000  Uiso   1.00
O799   O     0.16667   0.20625   0.76280   0.00000  Uiso   1.00
O800   O     0.16667   0.12708   0.90387   0.00000  Uiso   1.00
O801   O     0.16667   0.20625   0.90387   0.00000  Uiso   1.00
O802   O     0.16667   0.12708   0.76280   0.00000  Uiso   1.00
C803   C     0.16660   0.16667   0.74030   0.00000  Uiso   1.00
C804   C     0.16673   0.16667   0.92637   0.00000  Uiso   1.00
Cu805  Cu    0.16667   0.21355   0.83333   0.00000  Uiso   1.00
Cu806  Cu    0.16667   0.11978   0.83333   0.00000  Uiso   1.00
C807   C     0.16664   0.16667   0.68854   0.00000  Uiso   1.00
C808   C     0.16669   0.16667   0.97812   0.00000  Uiso   1.00
C809   C     0.02128   0.12457   0.83382   0.00000  Uiso   1.00
C810   C     0.31206   0.20876   0.83284   0.00000  Uiso   1.00
C811   C     0.31206   0.12457   0.83284   0.00000  Uiso   1.00
C812   C     0.02128   0.20876   0.83382   0.00000  Uiso   1.00
H813   H     0.03717   0.09161   0.83461   0.00000  Uiso   1.00
H814   H     0.29616   0.24172   0.83206   0.00000  Uiso   1.00
H815   H     0.29616   0.09161   0.83206   0.00000  Uiso   1.00
H816   H     0.03717   0.24172   0.83461   0.00000  Uiso   1.00
C817   C     0.29055   0.16667   0.83277   0.00000  Uiso   1.00
C818   C     0.04279   0.16667   0.83389   0.00000  Uiso   1.00
C819   C     0.14486   0.02469   0.79811   0.00000  Uiso   1.00
C820   C     0.18848   0.30864   0.86856   0.00000  Uiso   1.00
C821   C     0.18848   0.02469   0.86856   0.00000  Uiso   1.00
C822   C     0.14486   0.30864   0.79811   0.00000  Uiso   1.00
N823   N     0.16667   0.28402   0.83333   0.00000  Uiso   1.00
N824   N     0.16667   0.04931   0.83333   0.00000  Uiso   1.00
N825   N     0.12154   0.04846   0.76061   0.00000  Uiso   1.00
O826   O     0.08265   0.05607   0.76690   0.00000  Uiso   1.00
O827   O     0.13551   0.05002   0.71624   0.00000  Uiso   1.00
N828   N     0.21179   0.28488   0.90606   0.00000  Uiso   1.00
O829   O     0.25068   0.27726   0.89976   0.00000  Uiso   1.00
O830   O     0.19783   0.28331   0.95043   0.00000  Uiso   1.00
N831   N     0.21180   0.04846   0.90605   0.00000  Uiso   1.00
O832   O     0.19783   0.05003   0.95042   0.00000  Uiso   1.00
O833   O     0.25069   0.05605   0.89976   0.00000  Uiso   1.00
N834   N     0.12154   0.28488   0.76061   0.00000  Uiso   1.00
O835   O     0.13550   0.28330   0.71624   0.00000  Uiso   1.00
O836   O     0.08264   0.27728   0.76690   0.00000  Uiso   1.00
O837   O     0.43988   0.20625   0.83333   0.00000  Uiso   1.00
O838   O     0.56012   0.12709   0.83334   0.00000  Uiso   1.00
O839   O     0.56012   0.20625   0.83334   0.00000  Uiso   1.00
O840   O     0.43988   0.12709   0.83333   0.00000  Uiso   1.00
C841   C     0.42078   0.16667   0.83361   0.00000  Uiso   1.00
C842   C     0.57922   0.16667   0.83306   0.00000  Uiso   1.00
O843   O     0.50000   0.20625   0.76280   0.00000  Uiso   1.00
O844   O     0.50000   0.12708   0.90387   0.00000  Uiso   1.00
O845   O     0.50000   0.20625   0.90387   0.00000  Uiso   1.00
O846   O     0.50000   0.12708   0.76280   0.00000  Uiso   1.00
C847   C     0.49993   0.16667   0.74030   0.00000  Uiso   1.00
C848   C     0.50007   0.16667   0.92637   0.00000  Uiso   1.00
Cu849  Cu    0.50000   0.21355   0.83333   0.00000  Uiso   1.00
Cu850  Cu    0.50000   0.11978   0.83333   0.00000  Uiso   1.00
C851   C     0.49998   0.16667   0.68854   0.00000  Uiso   1.00
C852   C     0.50002   0.16667   0.97812   0.00000  Uiso   1.00
C853   C     0.35461   0.12457   0.83382   0.00000  Uiso   1.00
C854   C     0.64539   0.20876   0.83284   0.00000  Uiso   1.00
C855   C     0.64539   0.12457   0.83284   0.00000  Uiso   1.00
C856   C     0.35461   0.20876   0.83382   0.00000  Uiso   1.00
H857   H     0.37050   0.09161   0.83461   0.00000  Uiso   1.00
H858   H     0.62950   0.24172   0.83206   0.00000  Uiso   1.00
H859   H     0.62950   0.09161   0.83206   0.00000  Uiso   1.00
H860   H     0.37050   0.24172   0.83461   0.00000  Uiso   1.00
C861   C     0.62388   0.16667   0.83277   0.00000  Uiso   1.00
C862   C     0.37612   0.16667   0.83389   0.00000  Uiso   1.00
C863   C     0.47819   0.02469   0.79811   0.00000  Uiso   1.00
C864   C     0.52181   0.30864   0.86856   0.00000  Uiso   1.00
C865   C     0.52181   0.02469   0.86856   0.00000  Uiso   1.00
C866   C     0.47819   0.30864   0.79811   0.00000  Uiso   1.00
N867   N     0.50000   0.28402   0.83333   0.00000  Uiso   1.00
N868   N     0.50000   0.04931   0.83333   0.00000  Uiso   1.00
N869   N     0.45487   0.04846   0.76061   0.00000  Uiso   1.00
O870   O     0.41599   0.05607   0.76690   0.00000  Uiso   1.00
O871   O     0.46884   0.05002   0.71624   0.00000  Uiso   1.00
N872   N     0.54513   0.28488   0.90606   0.00000  Uiso   1.00
O873   O     0.58401   0.27726   0.89976   0.00000  Uiso   1.00
O874   O     0.53116   0.28331   0.95043   0.00000  Uiso   1.00
N875   N     0.54513   0.04846   0.90605   0.00000  Uiso   1.00
O876   O     0.53116   0.05003   0.95042   0.00000  Uiso   1.00
O877   O     0.58402   0.05605   0.89976   0.00000  Uiso   1.00
N878   N     0.45487   0.28488   0.76061   0.00000  Uiso   1.00
O879   O     0.46884   0.28330   0.71624   0.00000  Uiso   1.00
O880   O     0.41598   0.27728   0.76690   0.00000  Uiso   1.00
O881   O     0.77321   0.20625   0.83333   0.00000  Uiso   1.00
O882   O     0.89345   0.12709   0.83334   0.00000  Uiso   1.00
O883   O     0.89345   0.20625   0.83334   0.00000  Uiso   1.00
O884   O     0.77321   0.12709   0.83333   0.00000  Uiso   1.00
C885   C     0.75411   0.16667   0.83361   0.00000  Uiso   1.00
C886   C     0.91255   0.16667   0.83306   0.00000  Uiso   1.00
O887   O     0.83333   0.20625   0.76280   0.00000  Uiso   1.00
O888   O     0.83333   0.12708   0.90387   0.00000  Uiso   1.00
O889   O     0.83333   0.20625   0.90387   0.00000  Uiso   1.00
O890   O     0.83333   0.12708   0.76280   0.00000  Uiso   1.00
C891   C     0.83326   0.16667   0.74030   0.00000  Uiso   1.00
C892   C     0.83340   0.16667   0.92637   0.00000  Uiso   1.00
Cu893  Cu    0.83333   0.21355   0.83333   0.00000  Uiso   1.00
Cu894  Cu    0.83333   0.11978   0.83333   0.00000  Uiso   1.00
C895   C     0.83331   0.16667   0.68854   0.00000  Uiso   1.00
C896   C     0.83336   0.16667   0.97812   0.00000  Uiso   1.00
C897   C     0.68794   0.12457   0.83382   0.00000  Uiso   1.00
C898   C     0.97872   0.20876   0.83284   0.00000  Uiso   1.00
C899   C     0.97872   0.12457   0.83284   0.00000  Uiso   1.00
C900   C     0.68794   0.20876   0.83382   0.00000  Uiso   1.00
H901   H     0.70384   0.09161   0.83461   0.00000  Uiso   1.00
H902   H     0.96283   0.24172   0.83206   0.00000  Uiso   1.00
H903   H     0.96283   0.09161   0.83206   0.00000  Uiso   1.00
H904   H     0.70384   0.24172   0.83461   0.00000  Uiso   1.00
C905   C     0.95721   0.16667   0.83277   0.00000  Uiso   1.00
C906   C     0.70945   0.16667   0.83389   0.00000  Uiso   1.00
C907   C     0.81152   0.02469   0.79811   0.00000  Uiso   1.00
C908   C     0.85514   0.30864   0.86856   0.00000  Uiso   1.00
C909   C     0.85514   0.02469   0.86856   0.00000  Uiso   1.00
C910   C     0.81152   0.30864   0.79811   0.00000  Uiso   1.00
N911   N     0.83333   0.28402   0.83333   0.00000  Uiso   1.00
N912   N     0.83333   0.04931   0.83333   0.00000  Uiso   1.00
N913   N     0.78821   0.04846   0.76061   0.00000  Uiso   1.00
O914   O     0.74932   0.05607   0.76690   0.00000  Uiso   1.00
O915   O     0.80217   0.05002   0.71624   0.00000  Uiso   1.00
N916   N     0.87846   0.28488   0.90606   0.00000  Uiso   1.00
O917   O     0.91735   0.27726   0.89976   0.00000  Uiso   1.00
O918   O     0.86449   0.28331   0.95043   0.00000  Uiso   1.00
N919   N     0.87846   0.04846   0.90605   0.00000  Uiso   1.00
O920   O     0.86450   0.05003   0.95042   0.00000  Uiso   1.00
O921   O     0.91735   0.05605   0.89976   0.00000  Uiso   1.00
N922   N     0.78820   0.28488   0.76061   0.00000  Uiso   1.00
O923   O     0.80217   0.28330   0.71624   0.00000  Uiso   1.00
O924   O     0.74931   0.27728   0.76690   0.00000  Uiso   1.00
O925   O     0.10655   0.53958   0.83333   0.00000  Uiso   1.00
O926   O     0.22679   0.46042   0.83334   0.00000  Uiso   1.00
O927   O     0.22679   0.53958   0.83334   0.00000  Uiso   1.00
O928   O     0.10655   0.46042   0.83333   0.00000  Uiso   1.00
C929   C     0.08745   0.50000   0.83361   0.00000  Uiso   1.00
C930   C     0.24589   0.50000   0.83306   0.00000  Uiso   1.00
O931   O     0.16667   0.53959   0.76280   0.00000  Uiso   1.00
O932   O     0.16667   0.46041   0.90387   0.00000  Uiso   1.00
O933   O     0.16667   0.53959   0.90387   0.00000  Uiso   1.00
O934   O     0.16667   0.46041   0.76280   0.00000  Uiso   1.00
C935   C     0.16660   0.50000   0.74030   0.00000  Uiso   1.00
C936   C     0.16673   0.50000   0.92637   0.00000  Uiso   1.00
Cu937  Cu    0.16667   0.54689   0.83333   0.00000  Uiso   1.00
Cu938  Cu    0.16667   0.45311   0.83333   0.00000  Uiso   1.00
C939   C     0.16664   0.50000   0.68854   0.00000  Uiso   1.00
C940   C     0.16669   0.50000   0.97812   0.00000  Uiso   1.00
C941   C     0.02128   0.45791   0.83382   0.00000  Uiso   1.00
C942   C     0.31206   0.54209   0.83284   0.00000  Uiso   1.00
C943   C     0.31206   0.45791   0.83284   0.00000  Uiso   1.00
C944   C     0.02128   0.54209   0.83382   0.00000  Uiso   1.00
H945   H     0.03717   0.42495   0.83461   0.00000  Uiso   1.00
H946   H     0.29616   0.57505   0.83206   0.00000  Uiso   1.00
H947   H     0.29616   0.42495   0.83206   0.00000  Uiso   1.00
H948   H     0.03717   0.57505   0.83461   0.00000  Uiso   1.00
C949   C     0.29055   0.50000   0.83277   0.00000  Uiso   1.00
C950   C     0.04279   0.50000   0.83389   0.00000  Uiso   1.00
C951   C     0.14486   0.35803   0.79811   0.00000  Uiso   1.00
C952   C     0.18848   0.64197   0.86856   0.00000  Uiso   1.00
C953   C     0.18848   0.35803   0.86856   0.00000  Uiso   1.00
C954   C     0.14486   0.64197   0.79811   0.00000  Uiso   1.00
N955   N     0.16667   0.61736   0.83333   0.00000  Uiso   1.00
N956   N     0.16667   0.38264   0.83333   0.00000  Uiso   1.00
N957   N     0.12154   0.38179   0.76061   0.00000  Uiso   1.00
O958   O     0.08265   0.38940   0.76690   0.00000  Uiso   1.00
O959   O     0.13551   0.38336   0.71624   0.00000  Uiso   1.00
N960   N     0.21179   0.61821   0.90606   0.00000  Uiso   1.00
O961   O     0.25068   0.61060   0.89976   0.00000  Uiso   1.00
O962   O     0.19783   0.61664   0.95043   0.00000  Uiso   1.00
N963   N     0.21180   0.38179   0.90605   0.00000  Uiso   1.00
O964   O     0.19783   0.38336   0.95042   0.00000  Uiso   1.00
O965   O     0.25069   0.38939   0.89976   0.00000  Uiso   1.00
N966   N     0.12154   0.61821   0.76061   0.00000  Uiso   1.00
O967   O     0.13550   0.61664   0.71624   0.00000  Uiso   1.00
O968   O     0.08264   0.61061   0.76690   0.00000  Uiso   1.00
O969   O     0.43988   0.53958   0.83333   0.00000  Uiso   1.00
O970   O     0.56012   0.46042   0.83334   0.00000  Uiso   1.00
O971   O     0.56012   0.53958   0.83334   0.00000  Uiso   1.00
O972   O     0.43988   0.46042   0.83333   0.00000  Uiso   1.00
C973   C     0.42078   0.50000   0.83361   0.00000  Uiso   1.00
C974   C     0.57922   0.50000   0.83306   0.00000  Uiso   1.00
O975   O     0.50000   0.53959   0.76280   0.00000  Uiso   1.00
O976   O     0.50000   0.46041   0.90387   0.00000  Uiso   1.00
O977   O     0.50000   0.53959   0.90387   0.00000  Uiso   1.00
O978   O     0.50000   0.46041   0.76280   0.00000  Uiso   1.00
C979   C     0.49993   0.50000   0.74030   0.00000  Uiso   1.00
C980   C     0.50007   0.50000   0.92637   0.00000  Uiso   1.00
Cu981  Cu    0.50000   0.54689   0.83333   0.00000  Uiso   1.00
Cu982  Cu    0.50000   0.45311   0.83333   0.00000  Uiso   1.00
C983   C     0.49998   0.50000   0.68854   0.00000  Uiso   1.00
C984   C     0.50002   0.50000   0.97812   0.00000  Uiso   1.00
C985   C     0.35461   0.45791   0.83382   0.00000  Uiso   1.00
C986   C     0.64539   0.54209   0.83284   0.00000  Uiso   1.00
C987   C     0.64539   0.45791   0.83284   0.00000  Uiso   1.00
C988   C     0.35461   0.54209   0.83382   0.00000  Uiso   1.00
H989   H     0.37050   0.42495   0.83461   0.00000  Uiso   1.00
H990   H     0.62950   0.57505   0.83206   0.00000  Uiso   1.00
H991   H     0.62950   0.42495   0.83206   0.00000  Uiso   1.00
H992   H     0.37050   0.57505   0.83461   0.00000  Uiso   1.00
C993   C     0.62388   0.50000   0.83277   0.00000  Uiso   1.00
C994   C     0.37612   0.50000   0.83389   0.00000  Uiso   1.00
C995   C     0.47819   0.35803   0.79811   0.00000  Uiso   1.00
C996   C     0.52181   0.64197   0.86856   0.00000  Uiso   1.00
C997   C     0.52181   0.35803   0.86856   0.00000  Uiso   1.00
C998   C     0.47819   0.64197   0.79811   0.00000  Uiso   1.00
N999   N     0.50000   0.61736   0.83333   0.00000  Uiso   1.00
N1000  N     0.50000   0.38264   0.83333   0.00000  Uiso   1.00
N1001  N     0.45487   0.38179   0.76061   0.00000  Uiso   1.00
O1002  O     0.41599   0.38940   0.76690   0.00000  Uiso   1.00
O1003  O     0.46884   0.38336   0.71624   0.00000  Uiso   1.00
N1004  N     0.54513   0.61821   0.90606   0.00000  Uiso   1.00
O1005  O     0.58401   0.61060   0.89976   0.00000  Uiso   1.00
O1006  O     0.53116   0.61664   0.95043   0.00000  Uiso   1.00
N1007  N     0.54513   0.38179   0.90605   0.00000  Uiso   1.00
O1008  O     0.53116   0.38336   0.95042   0.00000  Uiso   1.00
O1009  O     0.58402   0.38939   0.89976   0.00000  Uiso   1.00
N1010  N     0.45487   0.61821   0.76061   0.00000  Uiso   1.00
O1011  O     0.46884   0.61664   0.71624   0.00000  Uiso   1.00
O1012  O     0.41598   0.61061   0.76690   0.00000  Uiso   1.00
O1013  O     0.77321   0.53958   0.83333   0.00000  Uiso   1.00
O1014  O     0.89345   0.46042   0.83334   0.00000  Uiso   1.00
O1015  O     0.89345   0.53958   0.83334   0.00000  Uiso   1.00
O1016  O     0.77321   0.46042   0.83333   0.00000  Uiso   1.00
C1017  C     0.75411   0.50000   0.83361   0.00000  Uiso   1.00
C1018  C     0.91255   0.50000   0.83306   0.00000  Uiso   1.00
O1019  O     0.83333   0.53959   0.76280   0.00000  Uiso   1.00
O1020  O     0.83333   0.46041   0.90387   0.00000  Uiso   1.00
O1021  O     0.83333   0.53959   0.90387   0.00000  Uiso   1.00
O1022  O     0.83333   0.46041   0.76280   0.00000  Uiso   1.00
C1023  C     0.83326   0.50000   0.74030   0.00000  Uiso   1.00
C1024  C     0.83340   0.50000   0.92637   0.00000  Uiso   1.00
Cu1025 Cu    0.83333   0.54689   0.83333   0.00000  Uiso   1.00
Cu1026 Cu    0.83333   0.45311   0.83333   0.00000  Uiso   1.00
C1027  C     0.83331   0.50000   0.68854   0.00000  Uiso   1.00
C1028  C     0.83336   0.50000   0.97812   0.00000  Uiso   1.00
C1029  C     0.68794   0.45791   0.83382   0.00000  Uiso   1.00
C1030  C     0.97872   0.54209   0.83284   0.00000  Uiso   1.00
C1031  C     0.97872   0.45791   0.83284   0.00000  Uiso   1.00
C1032  C     0.68794   0.54209   0.83382   0.00000  Uiso   1.00
H1033  H     0.70384   0.42495   0.83461   0.00000  Uiso   1.00
H1034  H     0.96283   0.57505   0.83206   0.00000  Uiso   1.00
H1035  H     0.96283   0.42495   0.83206   0.00000  Uiso   1.00
H1036  H     0.70384   0.57505   0.83461   0.00000  Uiso   1.00
C1037  C     0.95721   0.50000   0.83277   0.00000  Uiso   1.00
C1038  C     0.70945   0.50000   0.83389   0.00000  Uiso   1.00
C1039  C     0.81152   0.35803   0.79811   0.00000  Uiso   1.00
C1040  C     0.85514   0.64197   0.86856   0.00000  Uiso   1.00
C1041  C     0.85514   0.35803   0.86856   0.00000  Uiso   1.00
C1042  C     0.81152   0.64197   0.79811   0.00000  Uiso   1.00
N1043  N     0.83333   0.61736   0.83333   0.00000  Uiso   1.00
N1044  N     0.83333   0.38264   0.83333   0.00000  Uiso   1.00
N1045  N     0.78821   0.38179   0.76061   0.00000  Uiso   1.00
O1046  O     0.74932   0.38940   0.76690   0.00000  Uiso   1.00
O1047  O     0.80217   0.38336   0.71624   0.00000  Uiso   1.00
N1048  N     0.87846   0.61821   0.90606   0.00000  Uiso   1.00
O1049  O     0.91735   0.61060   0.89976   0.00000  Uiso   1.00
O1050  O     0.86449   0.61664   0.95043   0.00000  Uiso   1.00
N1051  N     0.87846   0.38179   0.90605   0.00000  Uiso   1.00
O1052  O     0.86450   0.38336   0.95042   0.00000  Uiso   1.00
O1053  O     0.91735   0.38939   0.89976   0.00000  Uiso   1.00
N1054  N     0.78820   0.61821   0.76061   0.00000  Uiso   1.00
O1055  O     0.80217   0.61664   0.71624   0.00000  Uiso   1.00
O1056  O     0.74931   0.61061   0.76690   0.00000  Uiso   1.00
O1057  O     0.10655   0.87291   0.83333   0.00000  Uiso   1.00
O1058  O     0.22679   0.79375   0.83334   0.00000  Uiso   1.00
O1059  O     0.22679   0.87291   0.83334   0.00000  Uiso   1.00
O1060  O     0.10655   0.79375   0.83333   0.00000  Uiso   1.00
C1061  C     0.08745   0.83333   0.83361   0.00000  Uiso   1.00
C1062  C     0.24589   0.83333   0.83306   0.00000  Uiso   1.00
O1063  O     0.16667   0.87292   0.76280   0.00000  Uiso   1.00
O1064  O     0.16667   0.79375   0.90387   0.00000  Uiso   1.00
O1065  O     0.16667   0.87292   0.90387   0.00000  Uiso   1.00
O1066  O     0.16667   0.79375   0.76280   0.00000  Uiso   1.00
C1067  C     0.16660   0.83333   0.74030   0.00000  Uiso   1.00
C1068  C     0.16673   0.83333   0.92637   0.00000  Uiso   1.00
Cu1069 Cu    0.16667   0.88022   0.83333   0.00000  Uiso   1.00
Cu1070 Cu    0.16667   0.78645   0.83333   0.00000  Uiso   1.00
C1071  C     0.16664   0.83333   0.68854   0.00000  Uiso   1.00
C1072  C     0.16669   0.83333   0.97812   0.00000  Uiso   1.00
C1073  C     0.02128   0.79124   0.83382   0.00000  Uiso   1.00
C1074  C     0.31206   0.87543   0.83284   0.00000  Uiso   1.00
C1075  C     0.31206   0.79124   0.83284   0.00000  Uiso   1.00
C1076  C     0.02128   0.87543   0.83382   0.00000  Uiso   1.00
H1077  H     0.03717   0.75828   0.83461   0.00000  Uiso   1.00
H1078  H     0.29616   0.90839   0.83206   0.00000  Uiso   1.00
H1079  H     0.29616   0.75828   0.83206   0.00000  Uiso   1.00
H1080  H     0.03717   0.90839   0.83461   0.00000  Uiso   1.00
C1081  C     0.29055   0.83333   0.83277   0.00000  Uiso   1.00
C1082  C     0.04279   0.83333   0.83389   0.00000  Uiso   1.00
C1083  C     0.14486   0.69136   0.79811   0.00000  Uiso   1.00
C1084  C     0.18848   0.97531   0.86856   0.00000  Uiso   1.00
C1085  C     0.18848   0.69136   0.86856   0.00000  Uiso   1.00
C1086  C     0.14486   0.97531   0.79811   0.00000  Uiso   1.00
N1087  N     0.16667   0.95069   0.83333   0.00000  Uiso   1.00
N1088  N     0.16667   0.71598   0.83333   0.00000  Uiso   1.00
N1089  N     0.12154   0.71513   0.76061   0.00000  Uiso   1.00
O1090  O     0.08265   0.72274   0.76690   0.00000  Uiso   1.00
O1091  O     0.13551   0.71669   0.71624   0.00000  Uiso   1.00
N1092  N     0.21179   0.95154   0.90606   0.00000  Uiso   1.00
O1093  O     0.25068   0.94393   0.89976   0.00000  Uiso   1.00
O1094  O     0.19783   0.94998   0.95043   0.00000  Uiso   1.00
N1095  N     0.21180   0.71512   0.90605   0.00000  Uiso   1.00
O1096  O     0.19783   0.71670   0.95042   0.00000  Uiso   1.00
O1097  O     0.25069   0.72272   0.89976   0.00000  Uiso   1.00
N1098  N     0.12154   0.95154   0.76061   0.00000  Uiso   1.00
O1099  O     0.13550   0.94997   0.71624   0.00000  Uiso   1.00
O1100  O     0.08264   0.94395   0.76690   0.00000  Uiso   1.00
O1101  O     0.43988   0.87291   0.83333   0.00000  Uiso   1.00
O1102  O     0.56012   0.79375   0.83334   0.00000  Uiso   1.00
O1103  O     0.56012   0.87291   0.83334   0.00000  Uiso   1.00
O1104  O     0.43988   0.79375   0.83333   0.00000  Uiso   1.00
C1105  C     0.42078   0.83333   0.83361   0.00000  Uiso   1.00
C1106  C     0.57922   0.83333   0.83306   0.00000  Uiso   1.00
O1107  O     0.50000   0.87292   0.76280   0.00000  Uiso   1.00
O1108  O     0.50000   0.79375   0.90387   0.00000  Uiso   1.00
O1109  O     0.50000   0.87292   0.90387   0.00000  Uiso   1.00
O1110  O     0.50000   0.79375   0.76280   0.00000  Uiso   1.00
C1111  C     0.49993   0.83333   0.74030   0.00000  Uiso   1.00
C1112  C     0.50007   0.83333   0.92637   0.00000  Uiso   1.00
Cu1113 Cu    0.50000   0.88022   0.83333   0.00000  Uiso   1.00
Cu1114 Cu    0.50000   0.78645   0.83333   0.00000  Uiso   1.00
C1115  C     0.49998   0.83333   0.68854   0.00000  Uiso   1.00
C1116  C     0.50002   0.83333   0.97812   0.00000  Uiso   1.00
C1117  C     0.35461   0.79124   0.83382   0.00000  Uiso   1.00
C1118  C     0.64539   0.87543   0.83284   0.00000  Uiso   1.00
C1119  C     0.64539   0.79124   0.83284   0.00000  Uiso   1.00
C1120  C     0.35461   0.87543   0.83382   0.00000  Uiso   1.00
H1121  H     0.37050   0.75828   0.83461   0.00000  Uiso   1.00
H1122  H     0.62950   0.90839   0.83206   0.00000  Uiso   1.00
H1123  H     0.62950   0.75828   0.83206   0.00000  Uiso   1.00
H1124  H     0.37050   0.90839   0.83461   0.00000  Uiso   1.00
C1125  C     0.62388   0.83333   0.83277   0.00000  Uiso   1.00
C1126  C     0.37612   0.83333   0.83389   0.00000  Uiso   1.00
C1127  C     0.47819   0.69136   0.79811   0.00000  Uiso   1.00
C1128  C     0.52181   0.97531   0.86856   0.00000  Uiso   1.00
C1129  C     0.52181   0.69136   0.86856   0.00000  Uiso   1.00
C1130  C     0.47819   0.97531   0.79811   0.00000  Uiso   1.00
N1131  N     0.50000   0.95069   0.83333   0.00000  Uiso   1.00
N1132  N     0.50000   0.71598   0.83333   0.00000  Uiso   1.00
N1133  N     0.45487   0.71513   0.76061   0.00000  Uiso   1.00
O1134  O     0.41599   0.72274   0.76690   0.00000  Uiso   1.00
O1135  O     0.46884   0.71669   0.71624   0.00000  Uiso   1.00
N1136  N     0.54513   0.95154   0.90606   0.00000  Uiso   1.00
O1137  O     0.58401   0.94393   0.89976   0.00000  Uiso   1.00
O1138  O     0.53116   0.94998   0.95043   0.00000  Uiso   1.00
N1139  N     0.54513   0.71512   0.90605   0.00000  Uiso   1.00
O1140  O     0.53116   0.71670   0.95042   0.00000  Uiso   1.00
O1141  O     0.58402   0.72272   0.89976   0.00000  Uiso   1.00
N1142  N     0.45487   0.95154   0.76061   0.00000  Uiso   1.00
O1143  O     0.46884   0.94997   0.71624   0.00000  Uiso   1.00
O1144  O     0.41598   0.94395   0.76690   0.00000  Uiso   1.00
O1145  O     0.77321   0.87291   0.83333   0.00000  Uiso   1.00
O1146  O     0.89345   0.79375   0.83334   0.00000  Uiso   1.00
O1147  O     0.89345   0.87291   0.83334   0.00000  Uiso   1.00
O1148  O     0.77321   0.79375   0.83333   0.00000  Uiso   1.00
C1149  C     0.75411   0.83333   0.83361   0.00000  Uiso   1.00
C1150  C     0.91255   0.83333   0.83306   0.00000  Uiso   1.00
O1151  O     0.83333   0.87292   0.76280   0.00000  Uiso   1.00
O1152  O     0.83333   0.79375   0.90387   0.00000  Uiso   1.00
O1153  O     0.83333   0.87292   0.90387   0.00000  Uiso   1.00
O1154  O     0.83333   0.79375   0.76280   0.00000  Uiso   1.00
C1155  C     0.83326   0.83333   0.74030   0.00000  Uiso   1.00
C1156  C     0.83340   0.83333   0.92637   0.00000  Uiso   1.00
Cu1157 Cu    0.83333   0.88022   0.83333   0.00000  Uiso   1.00
Cu1158 Cu    0.83333   0.78645   0.83333   0.00000  Uiso   1.00
C1159  C     0.83331   0.83333   0.68854   0.00000  Uiso   1.00
C1160  C     0.83336   0.83333   0.97812   0.00000  Uiso   1.00
C1161  C     0.68794   0.79124   0.83382   0.00000  Uiso   1.00
C1162  C     0.97872   0.87543   0.83284   0.00000  Uiso   1.00
C1163  C     0.97872   0.79124   0.83284   0.00000  Uiso   1.00
C1164  C     0.68794   0.87543   0.83382   0.00000  Uiso   1.00
H1165  H     0.70384   0.75828   0.83461   0.00000  Uiso   1.00
H1166  H     0.96283   0.90839   0.83206   0.00000  Uiso   1.00
H1167  H     0.96283   0.75828   0.83206   0.00000  Uiso   1.00
H1168  H     0.70384   0.90839   0.83461   0.00000  Uiso   1.00
C1169  C     0.95721   0.83333   0.83277   0.00000  Uiso   1.00
C1170  C     0.70945   0.83333   0.83389   0.00000  Uiso   1.00
C1171  C     0.81152   0.69136   0.79811   0.00000  Uiso   1.00
C1172  C     0.85514   0.97531   0.86856   0.00000  Uiso   1.00
C1173  C     0.85514   0.69136   0.86856   0.00000  Uiso   1.00
C1174  C     0.81152   0.97531   0.79811   0.00000  Uiso   1.00
N1175  N     0.83333   0.95069   0.83333   0.00000  Uiso   1.00
N1176  N     0.83333   0.71598   0.83333   0.00000  Uiso   1.00
N1177  N     0.78821   0.71513   0.76061   0.00000  Uiso   1.00
O1178  O     0.74932   0.72274   0.76690   0.00000  Uiso   1.00
O1179  O     0.80217   0.71669   0.71624   0.00000  Uiso   1.00
N1180  N     0.87846   0.95154   0.90606   0.00000  Uiso   1.00
O1181  O     0.91735   0.94393   0.89976   0.00000  Uiso   1.00
O1182  O     0.86449   0.94998   0.95043   0.00000  Uiso   1.00
N1183  N     0.87846   0.71512   0.90605   0.00000  Uiso   1.00
O1184  O     0.86450   0.71670   0.95042   0.00000  Uiso   1.00
O1185  O     0.91735   0.72272   0.89976   0.00000  Uiso   1.00
N1186  N     0.78820   0.95154   0.76061   0.00000  Uiso   1.00
O1187  O     0.80217   0.94997   0.71624   0.00000  Uiso   1.00
O1188  O     0.74931   0.94395   0.76690   0.00000  Uiso   1.00
loop_
_geom_bond_atom_site_label_1
_geom_bond_atom_site_label_2
_geom_bond_distance
_geom_bond_site_symmetry_2
_ccdc_geom_bond_type
O1     C5      1.299   .     A
O1     Cu13    1.967   .     S
O2     C6      1.299   .     A
O2     Cu14    1.967   .     S
O3     Cu13    1.967   .     S
O3     C6      1.299   .     A
O4     Cu14    1.967   .     S
O4     C5      1.299   .     A
C5     C26     1.453   .     S
C6     C25     1.453   .     S
O7     C11     1.295   .     A
O7     Cu13    1.929   .     S
O8     C12     1.295   .     A
O8     Cu14    1.929   .     S
O9     C12     1.295   .     A
O9     Cu13    1.929   .     S
O10    C11     1.295   .     A
O10    Cu14    1.929   .     S
C11    C15     1.407   .     S
C12    C16     1.407   .     S
Cu13   Cu14    2.704   .     S
Cu13   N31     2.032   .     S
Cu14   N32     2.032   .     S
C15    C808    1.189   1_554 S
C16    C411    1.189   .     S
C17    C26     1.401   .     A
C17    H21     1.082   .     S
C17    C107    1.383   1_455 S
C18    C25     1.401   .     A
C18    H22     1.082   .     S
C18    C64     1.383   .     S
C19    H23     1.082   .     S
C19    C25     1.401   .     A
C19    C61     1.383   .     S
C20    H24     1.082   .     S
C20    C26     1.401   .     A
C20    C106    1.383   1_455 S
C27    N33     1.429   .     S
C27    N32     1.374   .     A
C27    C294    1.424   1_545 S
C28    N36     1.429   .     S
C28    N31     1.374   .     A
C28    C161    1.424   .     S
C29    N39     1.429   .     S
C29    N32     1.374   .     A
C29    C292    1.424   1_545 S
C30    N31     1.374   .     A
C30    N42     1.429   .     S
C30    C159    1.424   .     S
N33    O34     1.299   .     A
N33    O35     1.301   .     A
N36    O38     1.301   .     A
N36    O37     1.299   .     A
N39    O41     1.299   .     A
N39    O40     1.301   .     A
N42    O44     1.300   .     A
N42    O43     1.301   .     A
O45    C49     1.299   .     A
O45    Cu57    1.967   .     S
O46    C50     1.299   .     A
O46    Cu58    1.967   .     S
O47    Cu57    1.967   .     S
O47    C50     1.299   .     A
O48    Cu58    1.967   .     S
O48    C49     1.299   .     A
C49    C70     1.453   .     S
C50    C69     1.453   .     S
O51    C55     1.295   .     A
O51    Cu57    1.929   .     S
O52    C56     1.295   .     A
O52    Cu58    1.929   .     S
O53    C56     1.295   .     A
O53    Cu57    1.929   .     S
O54    C55     1.295   .     A
O54    Cu58    1.929   .     S
C55    C59     1.407   .     S
C56    C60     1.407   .     S
Cu57   Cu58    2.704   .     S
Cu57   N75     2.032   .     S
Cu58   N76     2.032   .     S
C59    C852    1.189   1_554 S
C60    C455    1.189   .     S
C61    C70     1.401   .     A
C61    H65     1.082   .     S
C62    C69     1.401   .     A
C62    H66     1.082   .     S
C62    C108    1.383   .     S
C63    H67     1.082   .     S
C63    C69     1.401   .     A
C63    C105    1.383   .     S
C64    H68     1.082   .     S
C64    C70     1.401   .     A
C71    N77     1.429   .     S
C71    N76     1.374   .     A
C71    C338    1.424   1_545 S
C72    N80     1.429   .     S
C72    N75     1.374   .     A
C72    C205    1.424   .     S
C73    N83     1.429   .     S
C73    N76     1.374   .     A
C73    C336    1.424   1_545 S
C74    N75     1.374   .     A
C74    N86     1.429   .     S
C74    C203    1.424   .     S
N77    O78     1.299   .     A
N77    O79     1.301   .     A
N80    O82     1.301   .     A
N80    O81     1.299   .     A
N83    O85     1.299   .     A
N83    O84     1.301   .     A
N86    O88     1.300   .     A
N86    O87     1.301   .     A
O89    C93     1.299   .     A
O89    Cu101   1.967   .     S
O90    C94     1.299   .     A
O90    Cu102   1.967   .     S
O91    Cu101   1.967   .     S
O91    C94     1.299   .     A
O92    Cu102   1.967   .     S
O92    C93     1.299   .     A
C93    C114    1.453   .     S
C94    C113    1.453   .     S
O95    C99     1.295   .     A
O95    Cu101   1.929   .     S
O96    C100    1.295   .     A
O96    Cu102   1.929   .     S
O97    C100    1.295   .     A
O97    Cu101   1.929   .     S
O98    C99     1.295   .     A
O98    Cu102   1.929   .     S
C99    C103    1.407   .     S
C100   C104    1.407   .     S
Cu101  Cu102   2.704   .     S
Cu101  N119    2.032   .     S
Cu102  N120    2.032   .     S
C103   C896    1.189   1_554 S
C104   C499    1.189   .     S
C105   C114    1.401   .     A
C105   H109    1.082   .     S
C106   C113    1.401   .     A
C106   H110    1.082   .     S
C106   C20     1.383   1_655 S
C107   H111    1.082   .     S
C107   C113    1.401   .     A
C107   C17     1.383   1_655 S
C108   H112    1.082   .     S
C108   C114    1.401   .     A
C115   N121    1.429   .     S
C115   N120    1.374   .     A
C115   C382    1.424   1_545 S
C116   N124    1.429   .     S
C116   N119    1.374   .     A
C116   C249    1.424   .     S
C117   N127    1.429   .     S
C117   N120    1.374   .     A
C117   C380    1.424   1_545 S
C118   N119    1.374   .     A
C118   N130    1.429   .     S
C118   C247    1.424   .     S
N121   O122    1.299   .     A
N121   O123    1.301   .     A
N124   O126    1.301   .     A
N124   O125    1.299   .     A
N127   O129    1.299   .     A
N127   O128    1.301   .     A
N130   O132    1.300   .     A
N130   O131    1.301   .     A
O133   C137    1.299   .     A
O133   Cu145   1.967   .     S
O134   C138    1.299   .     A
O134   Cu146   1.967   .     S
O135   Cu145   1.967   .     S
O135   C138    1.299   .     A
O136   Cu146   1.967   .     S
O136   C137    1.299   .     A
C137   C158    1.453   .     S
C138   C157    1.453   .     S
O139   C143    1.295   .     A
O139   Cu145   1.929   .     S
O140   C144    1.295   .     A
O140   Cu146   1.929   .     S
O141   C144    1.295   .     A
O141   Cu145   1.929   .     S
O142   C143    1.295   .     A
O142   Cu146   1.929   .     S
C143   C147    1.407   .     S
C144   C148    1.407   .     S
Cu145  Cu146   2.704   .     S
Cu145  N163    2.032   .     S
Cu146  N164    2.032   .     S
C147   C940    1.189   1_554 S
C148   C543    1.189   .     S
C149   C158    1.401   .     A
C149   H153    1.082   .     S
C149   C239    1.383   1_455 S
C150   C157    1.401   .     A
C150   H154    1.082   .     S
C150   C196    1.383   .     S
C151   H155    1.082   .     S
C151   C157    1.401   .     A
C151   C193    1.383   .     S
C152   H156    1.082   .     S
C152   C158    1.401   .     A
C152   C238    1.383   1_455 S
C159   N165    1.429   .     S
C159   N164    1.374   .     A
C160   N168    1.429   .     S
C160   N163    1.374   .     A
C160   C293    1.424   .     S
C161   N171    1.429   .     S
C161   N164    1.374   .     A
C162   N163    1.374   .     A
C162   N174    1.429   .     S
C162   C291    1.424   .     S
N165   O166    1.299   .     A
N165   O167    1.301   .     A
N168   O170    1.301   .     A
N168   O169    1.299   .     A
N171   O173    1.299   .     A
N171   O172    1.301   .     A
N174   O176    1.300   .     A
N174   O175    1.301   .     A
O177   C181    1.299   .     A
O177   Cu189   1.967   .     S
O178   C182    1.299   .     A
O178   Cu190   1.967   .     S
O179   Cu189   1.967   .     S
O179   C182    1.299   .     A
O180   Cu190   1.967   .     S
O180   C181    1.299   .     A
C181   C202    1.453   .     S
C182   C201    1.453   .     S
O183   C187    1.295   .     A
O183   Cu189   1.929   .     S
O184   C188    1.295   .     A
O184   Cu190   1.929   .     S
O185   C188    1.295   .     A
O185   Cu189   1.929   .     S
O186   C187    1.295   .     A
O186   Cu190   1.929   .     S
C187   C191    1.407   .     S
C188   C192    1.407   .     S
Cu189  Cu190   2.704   .     S
Cu189  N207    2.032   .     S
Cu190  N208    2.032   .     S
C191   C984    1.189   1_554 S
C192   C587    1.189   .     S
C193   C202    1.401   .     A
C193   H197    1.082   .     S
C194   C201    1.401   .     A
C194   H198    1.082   .     S
C194   C240    1.383   .     S
C195   H199    1.082   .     S
C195   C201    1.401   .     A
C195   C237    1.383   .     S
C196   H200    1.082   .     S
C196   C202    1.401   .     A
C203   N209    1.429   .     S
C203   N208    1.374   .     A
C204   N212    1.429   .     S
C204   N207    1.374   .     A
C204   C337    1.424   .     S
C205   N215    1.429   .     S
C205   N208    1.374   .     A
C206   N207    1.374   .     A
C206   N218    1.429   .     S
C206   C335    1.424   .     S
N209   O210    1.299   .     A
N209   O211    1.301   .     A
N212   O214    1.301   .     A
N212   O213    1.299   .     A
N215   O217    1.299   .     A
N215   O216    1.301   .     A
N218   O220    1.300   .     A
N218   O219    1.301   .     A
O221   C225    1.299   .     A
O221   Cu233   1.967   .     S
O222   C226    1.299   .     A
O222   Cu234   1.967   .     S
O223   Cu233   1.967   .     S
O223   C226    1.299   .     A
O224   Cu234   1.967   .     S
O224   C225    1.299   .     A
C225   C246    1.453   .     S
C226   C245    1.453   .     S
O227   C231    1.295   .     A
O227   Cu233   1.929   .     S
O228   C232    1.295   .     A
O228   Cu234   1.929   .     S
O229   C232    1.295   .     A
O229   Cu233   1.929   .     S
O230   C231    1.295   .     A
O230   Cu234   1.929   .     S
C231   C235    1.407   .     S
C232   C236    1.407   .     S
Cu233  Cu234   2.704   .     S
Cu233  N251    2.032   .     S
Cu234  N252    2.032   .     S
C235   C1028   1.189   1_554 S
C236   C631    1.189   .     S
C237   C246    1.401   .     A
C237   H241    1.082   .     S
C238   C245    1.401   .     A
C238   H242    1.082   .     S
C238   C152    1.383   1_655 S
C239   H243    1.082   .     S
C239   C245    1.401   .     A
C239   C149    1.383   1_655 S
C240   H244    1.082   .     S
C240   C246    1.401   .     A
C247   N253    1.429   .     S
C247   N252    1.374   .     A
C248   N256    1.429   .     S
C248   N251    1.374   .     A
C248   C381    1.424   .     S
C249   N259    1.429   .     S
C249   N252    1.374   .     A
C250   N251    1.374   .     A
C250   N262    1.429   .     S
C250   C379    1.424   .     S
N253   O254    1.299   .     A
N253   O255    1.301   .     A
N256   O258    1.301   .     A
N256   O257    1.299   .     A
N259   O261    1.299   .     A
N259   O260    1.301   .     A
N262   O264    1.300   .     A
N262   O263    1.301   .     A
O265   C269    1.299   .     A
O265   Cu277   1.967   .     S
O266   C270    1.299   .     A
O266   Cu278   1.967   .     S
O267   Cu277   1.967   .     S
O267   C270    1.299   .     A
O268   Cu278   1.967   .     S
O268   C269    1.299   .     A
C269   C290    1.453   .     S
C270   C289    1.453   .     S
O271   C275    1.295   .     A
O271   Cu277   1.929   .     S
O272   C276    1.295   .     A
O272   Cu278   1.929   .     S
O273   C276    1.295   .     A
O273   Cu277   1.929   .     S
O274   C275    1.295   .     A
O274   Cu278   1.929   .     S
C275   C279    1.407   .     S
C276   C280    1.407   .     S
Cu277  Cu278   2.704   .     S
Cu277  N295    2.032   .     S
Cu278  N296    2.032   .     S
C279   C1072   1.189   1_554 S
C280   C675    1.189   .     S
C281   C290    1.401   .     A
C281   H285    1.082   .     S
C281   C371    1.383   1_455 S
C282   C289    1.401   .     A
C282   H286    1.082   .     S
C282   C328    1.383   .     S
C283   H287    1.082   .     S
C283   C289    1.401   .     A
C283   C325    1.383   .     S
C284   H288    1.082   .     S
C284   C290    1.401   .     A
C284   C370    1.383   1_455 S
C291   N297    1.429   .     S
C291   N296    1.374   .     A
C292   N300    1.429   .     S
C292   N295    1.374   .     A
C292   C29     1.424   1_565 S
C293   N303    1.429   .     S
C293   N296    1.374   .     A
C294   N295    1.374   .     A
C294   N306    1.429   .     S
C294   C27     1.424   1_565 S
N297   O298    1.299   .     A
N297   O299    1.301   .     A
N300   O302    1.301   .     A
N300   O301    1.299   .     A
N303   O305    1.299   .     A
N303   O304    1.301   .     A
N306   O308    1.300   .     A
N306   O307    1.301   .     A
O309   C313    1.299   .     A
O309   Cu321   1.967   .     S
O310   C314    1.299   .     A
O310   Cu322   1.967   .     S
O311   Cu321   1.967   .     S
O311   C314    1.299   .     A
O312   Cu322   1.967   .     S
O312   C313    1.299   .     A
C313   C334    1.453   .     S
C314   C333    1.453   .     S
O315   C319    1.295   .     A
O315   Cu321   1.929   .     S
O316   C320    1.295   .     A
O316   Cu322   1.929   .     S
O317   C320    1.295   .     A
O317   Cu321   1.929   .     S
O318   C319    1.295   .     A
O318   Cu322   1.929   .     S
C319   C323    1.407   .     S
C320   C324    1.407   .     S
Cu321  Cu322   2.704   .     S
Cu321  N339    2.032   .     S
Cu322  N340    2.032   .     S
C323   C1116   1.189   1_554 S
C324   C719    1.189   .     S
C325   C334    1.401   .     A
C325   H329    1.082   .     S
C326   C333    1.401   .     A
C326   H330    1.082   .     S
C326   C372    1.383   .     S
C327   H331    1.082   .     S
C327   C333    1.401   .     A
C327   C369    1.383   .     S
C328   H332    1.082   .     S
C328   C334    1.401   .     A
C335   N341    1.429   .     S
C335   N340    1.374   .     A
C336   N344    1.429   .     S
C336   N339    1.374   .     A
C336   C73     1.424   1_565 S
C337   N347    1.429   .     S
C337   N340    1.374   .     A
C338   N339    1.374   .     A
C338   N350    1.429   .     S
C338   C71     1.424   1_565 S
N341   O342    1.299   .     A
N341   O343    1.301   .     A
N344   O346    1.301   .     A
N344   O345    1.299   .     A
N347   O349    1.299   .     A
N347   O348    1.301   .     A
N350   O352    1.300   .     A
N350   O351    1.301   .     A
O353   C357    1.299   .     A
O353   Cu365   1.967   .     S
O354   C358    1.299   .     A
O354   Cu366   1.967   .     S
O355   Cu365   1.967   .     S
O355   C358    1.299   .     A
O356   Cu366   1.967   .     S
O356   C357    1.299   .     A
C357   C378    1.453   .     S
C358   C377    1.453   .     S
O359   C363    1.295   .     A
O359   Cu365   1.929   .     S
O360   C364    1.295   .     A
O360   Cu366   1.929   .     S
O361   C364    1.295   .     A
O361   Cu365   1.929   .     S
O362   C363    1.295   .     A
O362   Cu366   1.929   .     S
C363   C367    1.407   .     S
C364   C368    1.407   .     S
Cu365  Cu366   2.704   .     S
Cu365  N383    2.032   .     S
Cu366  N384    2.032   .     S
C367   C1160   1.189   1_554 S
C368   C763    1.189   .     S
C369   C378    1.401   .     A
C369   H373    1.082   .     S
C370   C377    1.401   .     A
C370   H374    1.082   .     S
C370   C284    1.383   1_655 S
C371   H375    1.082   .     S
C371   C377    1.401   .     A
C371   C281    1.383   1_655 S
C372   H376    1.082   .     S
C372   C378    1.401   .     A
C379   N385    1.429   .     S
C379   N384    1.374   .     A
C380   N388    1.429   .     S
C380   N383    1.374   .     A
C380   C117    1.424   1_565 S
C381   N391    1.429   .     S
C381   N384    1.374   .     A
C382   N383    1.374   .     A
C382   N394    1.429   .     S
C382   C115    1.424   1_565 S
N385   O386    1.299   .     A
N385   O387    1.301   .     A
N388   O390    1.301   .     A
N388   O389    1.299   .     A
N391   O393    1.299   .     A
N391   O392    1.301   .     A
N394   O396    1.300   .     A
N394   O395    1.301   .     A
O397   C401    1.299   .     A
O397   Cu409   1.967   .     S
O398   C402    1.299   .     A
O398   Cu410   1.967   .     S
O399   Cu409   1.967   .     S
O399   C402    1.299   .     A
O400   Cu410   1.967   .     S
O400   C401    1.299   .     A
C401   C422    1.453   .     S
C402   C421    1.453   .     S
O403   C407    1.295   .     A
O403   Cu409   1.929   .     S
O404   C408    1.295   .     A
O404   Cu410   1.929   .     S
O405   C408    1.295   .     A
O405   Cu409   1.929   .     S
O406   C407    1.295   .     A
O406   Cu410   1.929   .     S
C407   C411    1.407   .     S
C408   C412    1.407   .     S
Cu409  Cu410   2.704   .     S
Cu409  N427    2.032   .     S
Cu410  N428    2.032   .     S
C412   C807    1.189   .     S
C413   C422    1.401   .     A
C413   H417    1.082   .     S
C413   C503    1.383   1_455 S
C414   C421    1.401   .     A
C414   H418    1.082   .     S
C414   C460    1.383   .     S
C415   H419    1.082   .     S
C415   C421    1.401   .     A
C415   C457    1.383   .     S
C416   H420    1.082   .     S
C416   C422    1.401   .     A
C416   C502    1.383   1_455 S
C423   N429    1.429   .     S
C423   N428    1.374   .     A
C423   C690    1.424   1_545 S
C424   N432    1.429   .     S
C424   N427    1.374   .     A
C424   C557    1.424   .     S
C425   N435    1.429   .     S
C425   N428    1.374   .     A
C425   C688    1.424   1_545 S
C426   N427    1.374   .     A
C426   N438    1.429   .     S
C426   C555    1.424   .     S
N429   O430    1.299   .     A
N429   O431    1.301   .     A
N432   O434    1.301   .     A
N432   O433    1.299   .     A
N435   O437    1.299   .     A
N435   O436    1.301   .     A
N438   O440    1.300   .     A
N438   O439    1.301   .     A
O441   C445    1.299   .     A
O441   Cu453   1.967   .     S
O442   C446    1.299   .     A
O442   Cu454   1.967   .     S
O443   Cu453   1.967   .     S
O443   C446    1.299   .     A
O444   Cu454   1.967   .     S
O444   C445    1.299   .     A
C445   C466    1.453   .     S
C446   C465    1.453   .     S
O447   C451    1.295   .     A
O447   Cu453   1.929   .     S
O448   C452    1.295   .     A
O448   Cu454   1.929   .     S
O449   C452    1.295   .     A
O449   Cu453   1.929   .     S
O450   C451    1.295   .     A
O450   Cu454   1.929   .     S
C451   C455    1.407   .     S
C452   C456    1.407   .     S
Cu453  Cu454   2.704   .     S
Cu453  N471    2.032   .     S
Cu454  N472    2.032   .     S
C456   C851    1.189   .     S
C457   C466    1.401   .     A
C457   H461    1.082   .     S
C458   C465    1.401   .     A
C458   H462    1.082   .     S
C458   C504    1.383   .     S
C459   H463    1.082   .     S
C459   C465    1.401   .     A
C459   C501    1.383   .     S
C460   H464    1.082   .     S
C460   C466    1.401   .     A
C467   N473    1.429   .     S
C467   N472    1.374   .     A
C467   C734    1.424   1_545 S
C468   N476    1.429   .     S
C468   N471    1.374   .     A
C468   C601    1.424   .     S
C469   N479    1.429   .     S
C469   N472    1.374   .     A
C469   C732    1.424   1_545 S
C470   N471    1.374   .     A
C470   N482    1.429   .     S
C470   C599    1.424   .     S
N473   O474    1.299   .     A
N473   O475    1.301   .     A
N476   O478    1.301   .     A
N476   O477    1.299   .     A
N479   O481    1.299   .     A
N479   O480    1.301   .     A
N482   O484    1.300   .     A
N482   O483    1.301   .     A
O485   C489    1.299   .     A
O485   Cu497   1.967   .     S
O486   C490    1.299   .     A
O486   Cu498   1.967   .     S
O487   Cu497   1.967   .     S
O487   C490    1.299   .     A
O488   Cu498   1.967   .     S
O488   C489    1.299   .     A
C489   C510    1.453   .     S
C490   C509    1.453   .     S
O491   C495    1.295   .     A
O491   Cu497   1.929   .     S
O492   C496    1.295   .     A
O492   Cu498   1.929   .     S
O493   C496    1.295   .     A
O493   Cu497   1.929   .     S
O494   C495    1.295   .     A
O494   Cu498   1.929   .     S
C495   C499    1.407   .     S
C496   C500    1.407   .     S
Cu497  Cu498   2.704   .     S
Cu497  N515    2.032   .     S
Cu498  N516    2.032   .     S
C500   C895    1.189   .     S
C501   C510    1.401   .     A
C501   H505    1.082   .     S
C502   C509    1.401   .     A
C502   H506    1.082   .     S
C502   C416    1.383   1_655 S
C503   H507    1.082   .     S
C503   C509    1.401   .     A
C503   C413    1.383   1_655 S
C504   H508    1.082   .     S
C504   C510    1.401   .     A
C511   N517    1.429   .     S
C511   N516    1.374   .     A
C511   C778    1.424   1_545 S
C512   N520    1.429   .     S
C512   N515    1.374   .     A
C512   C645    1.424   .     S
C513   N523    1.429   .     S
C513   N516    1.374   .     A
C513   C776    1.424   1_545 S
C514   N515    1.374   .     A
C514   N526    1.429   .     S
C514   C643    1.424   .     S
N517   O518    1.299   .     A
N517   O519    1.301   .     A
N520   O522    1.301   .     A
N520   O521    1.299   .     A
N523   O525    1.299   .     A
N523   O524    1.301   .     A
N526   O528    1.300   .     A
N526   O527    1.301   .     A
O529   C533    1.299   .     A
O529   Cu541   1.967   .     S
O530   C534    1.299   .     A
O530   Cu542   1.967   .     S
O531   Cu541   1.967   .     S
O531   C534    1.299   .     A
O532   Cu542   1.967   .     S
O532   C533    1.299   .     A
C533   C554    1.453   .     S
C534   C553    1.453   .     S
O535   C539    1.295   .     A
O535   Cu541   1.929   .     S
O536   C540    1.295   .     A
O536   Cu542   1.929   .     S
O537   C540    1.295   .     A
O537   Cu541   1.929   .     S
O538   C539    1.295   .     A
O538   Cu542   1.929   .     S
C539   C543    1.407   .     S
C540   C544    1.407   .     S
Cu541  Cu542   2.704   .     S
Cu541  N559    2.032   .     S
Cu542  N560    2.032   .     S
C544   C939    1.189   .     S
C545   C554    1.401   .     A
C545   H549    1.082   .     S
C545   C635    1.383   1_455 S
C546   C553    1.401   .     A
C546   H550    1.082   .     S
C546   C592    1.383   .     S
C547   H551    1.082   .     S
C547   C553    1.401   .     A
C547   C589    1.383   .     S
C548   H552    1.082   .     S
C548   C554    1.401   .     A
C548   C634    1.383   1_455 S
C555   N561    1.429   .     S
C555   N560    1.374   .     A
C556   N564    1.429   .     S
C556   N559    1.374   .     A
C556   C689    1.424   .     S
C557   N567    1.429   .     S
C557   N560    1.374   .     A
C558   N559    1.374   .     A
C558   N570    1.429   .     S
C558   C687    1.424   .     S
N561   O562    1.299   .     A
N561   O563    1.301   .     A
N564   O566    1.301   .     A
N564   O565    1.299   .     A
N567   O569    1.299   .     A
N567   O568    1.301   .     A
N570   O572    1.300   .     A
N570   O571    1.301   .     A
O573   C577    1.299   .     A
O573   Cu585   1.967   .     S
O574   C578    1.299   .     A
O574   Cu586   1.967   .     S
O575   Cu585   1.967   .     S
O575   C578    1.299   .     A
O576   Cu586   1.967   .     S
O576   C577    1.299   .     A
C577   C598    1.453   .     S
C578   C597    1.453   .     S
O579   C583    1.295   .     A
O579   Cu585   1.929   .     S
O580   C584    1.295   .     A
O580   Cu586   1.929   .     S
O581   C584    1.295   .     A
O581   Cu585   1.929   .     S
O582   C583    1.295   .     A
O582   Cu586   1.929   .     S
C583   C587    1.407   .     S
C584   C588    1.407   .     S
Cu585  Cu586   2.704   .     S
Cu585  N603    2.032   .     S
Cu586  N604    2.032   .     S
C588   C983    1.189   .     S
C589   C598    1.401   .     A
C589   H593    1.082   .     S
C590   C597    1.401   .     A
C590   H594    1.082   .     S
C590   C636    1.383   .     S
C591   H595    1.082   .     S
C591   C597    1.401   .     A
C591   C633    1.383   .     S
C592   H596    1.082   .     S
C592   C598    1.401   .     A
C599   N605    1.429   .     S
C599   N604    1.374   .     A
C600   N608    1.429   .     S
C600   N603    1.374   .     A
C600   C733    1.424   .     S
C601   N611    1.429   .     S
C601   N604    1.374   .     A
C602   N603    1.374   .     A
C602   N614    1.429   .     S
C602   C731    1.424   .     S
N605   O606    1.299   .     A
N605   O607    1.301   .     A
N608   O610    1.301   .     A
N608   O609    1.299   .     A
N611   O613    1.299   .     A
N611   O612    1.301   .     A
N614   O616    1.300   .     A
N614   O615    1.301   .     A
O617   C621    1.299   .     A
O617   Cu629   1.967   .     S
O618   C622    1.299   .     A
O618   Cu630   1.967   .     S
O619   Cu629   1.967   .     S
O619   C622    1.299   .     A
O620   Cu630   1.967   .     S
O620   C621    1.299   .     A
C621   C642    1.453   .     S
C622   C641    1.453   .     S
O623   C627    1.295   .     A
O623   Cu629   1.929   .     S
O624   C628    1.295   .     A
O624   Cu630   1.929   .     S
O625   C628    1.295   .     A
O625   Cu629   1.929   .     S
O626   C627    1.295   .     A
O626   Cu630   1.929   .     S
C627   C631    1.407   .     S
C628   C632    1.407   .     S
Cu629  Cu630   2.704   .     S
Cu629  N647    2.032   .     S
Cu630  N648    2.032   .     S
C632   C1027   1.189   .     S
C633   C642    1.401   .     A
C633   H637    1.082   .     S
C634   C641    1.401   .     A
C634   H638    1.082   .     S
C634   C548    1.383   1_655 S
C635   H639    1.082   .     S
C635   C641    1.401   .     A
C635   C545    1.383   1_655 S
C636   H640    1.082   .     S
C636   C642    1.401   .     A
C643   N649    1.429   .     S
C643   N648    1.374   .     A
C644   N652    1.429   .     S
C644   N647    1.374   .     A
C644   C777    1.424   .     S
C645   N655    1.429   .     S
C645   N648    1.374   .     A
C646   N647    1.374   .     A
C646   N658    1.429   .     S
C646   C775    1.424   .     S
N649   O650    1.299   .     A
N649   O651    1.301   .     A
N652   O654    1.301   .     A
N652   O653    1.299   .     A
N655   O657    1.299   .     A
N655   O656    1.301   .     A
N658   O660    1.300   .     A
N658   O659    1.301   .     A
O661   C665    1.299   .     A
O661   Cu673   1.967   .     S
O662   C666    1.299   .     A
O662   Cu674   1.967   .     S
O663   Cu673   1.967   .     S
O663   C666    1.299   .     A
O664   Cu674   1.967   .     S
O664   C665    1.299   .     A
C665   C686    1.453   .     S
C666   C685    1.453   .     S
O667   C671    1.295   .     A
O667   Cu673   1.929   .     S
O668   C672    1.295   .     A
O668   Cu674   1.929   .     S
O669   C672    1.295   .     A
O669   Cu673   1.929   .     S
O670   C671    1.295   .     A
O670   Cu674   1.929   .     S
C671   C675    1.407   .     S
C672   C676    1.407   .     S
Cu673  Cu674   2.704   .     S
Cu673  N691    2.032   .     S
Cu674  N692    2.032   .     S
C676   C1071   1.189   .     S
C677   C686    1.401   .     A
C677   H681    1.082   .     S
C677   C767    1.383   1_455 S
C678   C685    1.401   .     A
C678   H682    1.082   .     S
C678   C724    1.383   .     S
C679   H683    1.082   .     S
C679   C685    1.401   .     A
C679   C721    1.383   .     S
C680   H684    1.082   .     S
C680   C686    1.401   .     A
C680   C766    1.383   1_455 S
C687   N693    1.429   .     S
C687   N692    1.374   .     A
C688   N696    1.429   .     S
C688   N691    1.374   .     A
C688   C425    1.424   1_565 S
C689   N699    1.429   .     S
C689   N692    1.374   .     A
C690   N691    1.374   .     A
C690   N702    1.429   .     S
C690   C423    1.424   1_565 S
N693   O694    1.299   .     A
N693   O695    1.301   .     A
N696   O698    1.301   .     A
N696   O697    1.299   .     A
N699   O701    1.299   .     A
N699   O700    1.301   .     A
N702   O704    1.300   .     A
N702   O703    1.301   .     A
O705   C709    1.299   .     A
O705   Cu717   1.967   .     S
O706   C710    1.299   .     A
O706   Cu718   1.967   .     S
O707   Cu717   1.967   .     S
O707   C710    1.299   .     A
O708   Cu718   1.967   .     S
O708   C709    1.299   .     A
C709   C730    1.453   .     S
C710   C729    1.453   .     S
O711   C715    1.295   .     A
O711   Cu717   1.929   .     S
O712   C716    1.295   .     A
O712   Cu718   1.929   .     S
O713   C716    1.295   .     A
O713   Cu717   1.929   .     S
O714   C715    1.295   .     A
O714   Cu718   1.929   .     S
C715   C719    1.407   .     S
C716   C720    1.407   .     S
Cu717  Cu718   2.704   .     S
Cu717  N735    2.032   .     S
Cu718  N736    2.032   .     S
C720   C1115   1.189   .     S
C721   C730    1.401   .     A
C721   H725    1.082   .     S
C722   C729    1.401   .     A
C722   H726    1.082   .     S
C722   C768    1.383   .     S
C723   H727    1.082   .     S
C723   C729    1.401   .     A
C723   C765    1.383   .     S
C724   H728    1.082   .     S
C724   C730    1.401   .     A
C731   N737    1.429   .     S
C731   N736    1.374   .     A
C732   N740    1.429   .     S
C732   N735    1.374   .     A
C732   C469    1.424   1_565 S
C733   N743    1.429   .     S
C733   N736    1.374   .     A
C734   N735    1.374   .     A
C734   N746    1.429   .     S
C734   C467    1.424   1_565 S
N737   O738    1.299   .     A
N737   O739    1.301   .     A
N740   O742    1.301   .     A
N740   O741    1.299   .     A
N743   O745    1.299   .     A
N743   O744    1.301   .     A
N746   O748    1.300   .     A
N746   O747    1.301   .     A
O749   C753    1.299   .     A
O749   Cu761   1.967   .     S
O750   C754    1.299   .     A
O750   Cu762   1.967   .     S
O751   Cu761   1.967   .     S
O751   C754    1.299   .     A
O752   Cu762   1.967   .     S
O752   C753    1.299   .     A
C753   C774    1.453   .     S
C754   C773    1.453   .     S
O755   C759    1.295   .     A
O755   Cu761   1.929   .     S
O756   C760    1.295   .     A
O756   Cu762   1.929   .     S
O757   C760    1.295   .     A
O757   Cu761   1.929   .     S
O758   C759    1.295   .     A
O758   Cu762   1.929   .     S
C759   C763    1.407   .     S
C760   C764    1.407   .     S
Cu761  Cu762   2.704   .     S
Cu761  N779    2.032   .     S
Cu762  N780    2.032   .     S
C764   C1159   1.189   .     S
C765   C774    1.401   .     A
C765   H769    1.082   .     S
C766   C773    1.401   .     A
C766   H770    1.082   .     S
C766   C680    1.383   1_655 S
C767   H771    1.082   .     S
C767   C773    1.401   .     A
C767   C677    1.383   1_655 S
C768   H772    1.082   .     S
C768   C774    1.401   .     A
C775   N781    1.429   .     S
C775   N780    1.374   .     A
C776   N784    1.429   .     S
C776   N779    1.374   .     A
C776   C513    1.424   1_565 S
C777   N787    1.429   .     S
C777   N780    1.374   .     A
C778   N779    1.374   .     A
C778   N790    1.429   .     S
C778   C511    1.424   1_565 S
N781   O782    1.299   .     A
N781   O783    1.301   .     A
N784   O786    1.301   .     A
N784   O785    1.299   .     A
N787   O789    1.299   .     A
N787   O788    1.301   .     A
N790   O792    1.300   .     A
N790   O791    1.301   .     A
O793   C797    1.299   .     A
O793   Cu805   1.967   .     S
O794   C798    1.299   .     A
O794   Cu806   1.967   .     S
O795   Cu805   1.967   .     S
O795   C798    1.299   .     A
O796   Cu806   1.967   .     S
O796   C797    1.299   .     A
C797   C818    1.453   .     S
C798   C817    1.453   .     S
O799   C803    1.295   .     A
O799   Cu805   1.929   .     S
O800   C804    1.295   .     A
O800   Cu806   1.929   .     S
O801   C804    1.295   .     A
O801   Cu805   1.929   .     S
O802   C803    1.295   .     A
O802   Cu806   1.929   .     S
C803   C807    1.407   .     S
C804   C808    1.407   .     S
Cu805  Cu806   2.704   .     S
Cu805  N823    2.032   .     S
Cu806  N824    2.032   .     S
C808   C15     1.189   1_556 S
C809   C818    1.401   .     A
C809   H813    1.082   .     S
C809   C899    1.383   1_455 S
C810   C817    1.401   .     A
C810   H814    1.082   .     S
C810   C856    1.383   .     S
C811   H815    1.082   .     S
C811   C817    1.401   .     A
C811   C853    1.383   .     S
C812   H816    1.082   .     S
C812   C818    1.401   .     A
C812   C898    1.383   1_455 S
C819   N825    1.429   .     S
C819   N824    1.374   .     A
C819   C1086   1.424   1_545 S
C820   N828    1.429   .     S
C820   N823    1.374   .     A
C820   C953    1.424   .     S
C821   N831    1.429   .     S
C821   N824    1.374   .     A
C821   C1084   1.424   1_545 S
C822   N823    1.374   .     A
C822   N834    1.429   .     S
C822   C951    1.424   .     S
N825   O826    1.299   .     A
N825   O827    1.301   .     A
N828   O830    1.301   .     A
N828   O829    1.299   .     A
N831   O833    1.299   .     A
N831   O832    1.301   .     A
N834   O836    1.300   .     A
N834   O835    1.301   .     A
O837   C841    1.299   .     A
O837   Cu849   1.967   .     S
O838   C842    1.299   .     A
O838   Cu850   1.967   .     S
O839   Cu849   1.967   .     S
O839   C842    1.299   .     A
O840   Cu850   1.967   .     S
O840   C841    1.299   .     A
C841   C862    1.453   .     S
C842   C861    1.453   .     S
O843   C847    1.295   .     A
O843   Cu849   1.929   .     S
O844   C848    1.295   .     A
O844   Cu850   1.929   .     S
O845   C848    1.295   .     A
O845   Cu849   1.929   .     S
O846   C847    1.295   .     A
O846   Cu850   1.929   .     S
C847   C851    1.407   .     S
C848   C852    1.407   .     S
Cu849  Cu850   2.704   .     S
Cu849  N867    2.032   .     S
Cu850  N868    2.032   .     S
C852   C59     1.189   1_556 S
C853   C862    1.401   .     A
C853   H857    1.082   .     S
C854   C861    1.401   .     A
C854   H858    1.082   .     S
C854   C900    1.383   .     S
C855   H859    1.082   .     S
C855   C861    1.401   .     A
C855   C897    1.383   .     S
C856   H860    1.082   .     S
C856   C862    1.401   .     A
C863   N869    1.429   .     S
C863   N868    1.374   .     A
C863   C1130   1.424   1_545 S
C864   N872    1.429   .     S
C864   N867    1.374   .     A
C864   C997    1.424   .     S
C865   N875    1.429   .     S
C865   N868    1.374   .     A
C865   C1128   1.424   1_545 S
C866   N867    1.374   .     A
C866   N878    1.429   .     S
C866   C995    1.424   .     S
N869   O870    1.299   .     A
N869   O871    1.301   .     A
N872   O874    1.301   .     A
N872   O873    1.299   .     A
N875   O877    1.299   .     A
N875   O876    1.301   .     A
N878   O880    1.300   .     A
N878   O879    1.301   .     A
O881   C885    1.299   .     A
O881   Cu893   1.967   .     S
O882   C886    1.299   .     A
O882   Cu894   1.967   .     S
O883   Cu893   1.967   .     S
O883   C886    1.299   .     A
O884   Cu894   1.967   .     S
O884   C885    1.299   .     A
C885   C906    1.453   .     S
C886   C905    1.453   .     S
O887   C891    1.295   .     A
O887   Cu893   1.929   .     S
O888   C892    1.295   .     A
O888   Cu894   1.929   .     S
O889   C892    1.295   .     A
O889   Cu893   1.929   .     S
O890   C891    1.295   .     A
O890   Cu894   1.929   .     S
C891   C895    1.407   .     S
C892   C896    1.407   .     S
Cu893  Cu894   2.704   .     S
Cu893  N911    2.032   .     S
Cu894  N912    2.032   .     S
C896   C103    1.189   1_556 S
C897   C906    1.401   .     A
C897   H901    1.082   .     S
C898   C905    1.401   .     A
C898   H902    1.082   .     S
C898   C812    1.383   1_655 S
C899   H903    1.082   .     S
C899   C905    1.401   .     A
C899   C809    1.383   1_655 S
C900   H904    1.082   .     S
C900   C906    1.401   .     A
C907   N913    1.429   .     S
C907   N912    1.374   .     A
C907   C1174   1.424   1_545 S
C908   N916    1.429   .     S
C908   N911    1.374   .     A
C908   C1041   1.424   .     S
C909   N919    1.429   .     S
C909   N912    1.374   .     A
C909   C1172   1.424   1_545 S
C910   N911    1.374   .     A
C910   N922    1.429   .     S
C910   C1039   1.424   .     S
N913   O914    1.299   .     A
N913   O915    1.301   .     A
N916   O918    1.301   .     A
N916   O917    1.299   .     A
N919   O921    1.299   .     A
N919   O920    1.301   .     A
N922   O924    1.300   .     A
N922   O923    1.301   .     A
O925   C929    1.299   .     A
O925   Cu937   1.967   .     S
O926   C930    1.299   .     A
O926   Cu938   1.967   .     S
O927   Cu937   1.967   .     S
O927   C930    1.299   .     A
O928   Cu938   1.967   .     S
O928   C929    1.299   .     A
C929   C950    1.453   .     S
C930   C949    1.453   .     S
O931   C935    1.295   .     A
O931   Cu937   1.929   .     S
O932   C936    1.295   .     A
O932   Cu938   1.929   .     S
O933   C936    1.295   .     A
O933   Cu937   1.929   .     S
O934   C935    1.295   .     A
O934   Cu938   1.929   .     S
C935   C939    1.407   .     S
C936   C940    1.407   .     S
Cu937  Cu938   2.704   .     S
Cu937  N955    2.032   .     S
Cu938  N956    2.032   .     S
C940   C147    1.189   1_556 S
C941   C950    1.401   .     A
C941   H945    1.082   .     S
C941   C1031   1.383   1_455 S
C942   C949    1.401   .     A
C942   H946    1.082   .     S
C942   C988    1.383   .     S
C943   H947    1.082   .     S
C943   C949    1.401   .     A
C943   C985    1.383   .     S
C944   H948    1.082   .     S
C944   C950    1.401   .     A
C944   C1030   1.383   1_455 S
C951   N957    1.429   .     S
C951   N956    1.374   .     A
C952   N960    1.429   .     S
C952   N955    1.374   .     A
C952   C1085   1.424   .     S
C953   N963    1.429   .     S
C953   N956    1.374   .     A
C954   N955    1.374   .     A
C954   N966    1.429   .     S
C954   C1083   1.424   .     S
N957   O958    1.299   .     A
N957   O959    1.301   .     A
N960   O962    1.301   .     A
N960   O961    1.299   .     A
N963   O965    1.299   .     A
N963   O964    1.301   .     A
N966   O968    1.300   .     A
N966   O967    1.301   .     A
O969   C973    1.299   .     A
O969   Cu981   1.967   .     S
O970   C974    1.299   .     A
O970   Cu982   1.967   .     S
O971   Cu981   1.967   .     S
O971   C974    1.299   .     A
O972   Cu982   1.967   .     S
O972   C973    1.299   .     A
C973   C994    1.453   .     S
C974   C993    1.453   .     S
O975   C979    1.295   .     A
O975   Cu981   1.929   .     S
O976   C980    1.295   .     A
O976   Cu982   1.929   .     S
O977   C980    1.295   .     A
O977   Cu981   1.929   .     S
O978   C979    1.295   .     A
O978   Cu982   1.929   .     S
C979   C983    1.407   .     S
C980   C984    1.407   .     S
Cu981  Cu982   2.704   .     S
Cu981  N999    2.032   .     S
Cu982  N1000   2.032   .     S
C984   C191    1.189   1_556 S
C985   C994    1.401   .     A
C985   H989    1.082   .     S
C986   C993    1.401   .     A
C986   H990    1.082   .     S
C986   C1032   1.383   .     S
C987   H991    1.082   .     S
C987   C993    1.401   .     A
C987   C1029   1.383   .     S
C988   H992    1.082   .     S
C988   C994    1.401   .     A
C995   N1001   1.429   .     S
C995   N1000   1.374   .     A
C996   N1004   1.429   .     S
C996   N999    1.374   .     A
C996   C1129   1.424   .     S
C997   N1007   1.429   .     S
C997   N1000   1.374   .     A
C998   N999    1.374   .     A
C998   N1010   1.429   .     S
C998   C1127   1.424   .     S
N1001  O1002   1.299   .     A
N1001  O1003   1.301   .     A
N1004  O1006   1.301   .     A
N1004  O1005   1.299   .     A
N1007  O1009   1.299   .     A
N1007  O1008   1.301   .     A
N1010  O1012   1.300   .     A
N1010  O1011   1.301   .     A
O1013  C1017   1.299   .     A
O1013  Cu1025  1.967   .     S
O1014  C1018   1.299   .     A
O1014  Cu1026  1.967   .     S
O1015  Cu1025  1.967   .     S
O1015  C1018   1.299   .     A
O1016  Cu1026  1.967   .     S
O1016  C1017   1.299   .     A
C1017  C1038   1.453   .     S
C1018  C1037   1.453   .     S
O1019  C1023   1.295   .     A
O1019  Cu1025  1.929   .     S
O1020  C1024   1.295   .     A
O1020  Cu1026  1.929   .     S
O1021  C1024   1.295   .     A
O1021  Cu1025  1.929   .     S
O1022  C1023   1.295   .     A
O1022  Cu1026  1.929   .     S
C1023  C1027   1.407   .     S
C1024  C1028   1.407   .     S
Cu1025 Cu1026  2.704   .     S
Cu1025 N1043   2.032   .     S
Cu1026 N1044   2.032   .     S
C1028  C235    1.189   1_556 S
C1029  C1038   1.401   .     A
C1029  H1033   1.082   .     S
C1030  C1037   1.401   .     A
C1030  H1034   1.082   .     S
C1030  C944    1.383   1_655 S
C1031  H1035   1.082   .     S
C1031  C1037   1.401   .     A
C1031  C941    1.383   1_655 S
C1032  H1036   1.082   .     S
C1032  C1038   1.401   .     A
C1039  N1045   1.429   .     S
C1039  N1044   1.374   .     A
C1040  N1048   1.429   .     S
C1040  N1043   1.374   .     A
C1040  C1173   1.424   .     S
C1041  N1051   1.429   .     S
C1041  N1044   1.374   .     A
C1042  N1043   1.374   .     A
C1042  N1054   1.429   .     S
C1042  C1171   1.424   .     S
N1045  O1046   1.299   .     A
N1045  O1047   1.301   .     A
N1048  O1050   1.301   .     A
N1048  O1049   1.299   .     A
N1051  O1053   1.299   .     A
N1051  O1052   1.301   .     A
N1054  O1056   1.300   .     A
N1054  O1055   1.301   .     A
O1057  C1061   1.299   .     A
O1057  Cu1069  1.967   .     S
O1058  C1062   1.299   .     A
O1058  Cu1070  1.967   .     S
O1059  Cu1069  1.967   .     S
O1059  C1062   1.299   .     A
O1060  Cu1070  1.967   .     S
O1060  C1061   1.299   .     A
C1061  C1082   1.453   .     S
C1062  C1081   1.453   .     S
O1063  C1067   1.295   .     A
O1063  Cu1069  1.929   .     S
O1064  C1068   1.295   .     A
O1064  Cu1070  1.929   .     S
O1065  C1068   1.295   .     A
O1065  Cu1069  1.929   .     S
O1066  C1067   1.295   .     A
O1066  Cu1070  1.929   .     S
C1067  C1071   1.407   .     S
C1068  C1072   1.407   .     S
Cu1069 Cu1070  2.704   .     S
Cu1069 N1087   2.032   .     S
Cu1070 N1088   2.032   .     S
C1072  C279    1.189   1_556 S
C1073  C1082   1.401   .     A
C1073  H1077   1.082   .     S
C1073  C1163   1.383   1_455 S
C1074  C1081   1.401   .     A
C1074  H1078   1.082   .     S
C1074  C1120   1.383   .     S
C1075  H1079   1.082   .     S
C1075  C1081   1.401   .     A
C1075  C1117   1.383   .     S
C1076  H1080   1.082   .     S
C1076  C1082   1.401   .     A
C1076  C1162   1.383   1_455 S
C1083  N1089   1.429   .     S
C1083  N1088   1.374   .     A
C1084  N1092   1.429   .     S
C1084  N1087   1.374   .     A
C1084  C821    1.424   1_565 S
C1085  N1095   1.429   .     S
C1085  N1088   1.374   .     A
C1086  N1087   1.374   .     A
C1086  N1098   1.429   .     S
C1086  C819    1.424   1_565 S
N1089  O1090   1.299   .     A
N1089  O1091   1.301   .     A
N1092  O1094   1.301   .     A
N1092  O1093   1.299   .     A
N1095  O1097   1.299   .     A
N1095  O1096   1.301   .     A
N1098  O1100   1.300   .     A
N1098  O1099   1.301   .     A
O1101  C1105   1.299   .     A
O1101  Cu1113  1.967   .     S
O1102  C1106   1.299   .     A
O1102  Cu1114  1.967   .     S
O1103  Cu1113  1.967   .     S
O1103  C1106   1.299   .     A
O1104  Cu1114  1.967   .     S
O1104  C1105   1.299   .     A
C1105  C1126   1.453   .     S
C1106  C1125   1.453   .     S
O1107  C1111   1.295   .     A
O1107  Cu1113  1.929   .     S
O1108  C1112   1.295   .     A
O1108  Cu1114  1.929   .     S
O1109  C1112   1.295   .     A
O1109  Cu1113  1.929   .     S
O1110  C1111   1.295   .     A
O1110  Cu1114  1.929   .     S
C1111  C1115   1.407   .     S
C1112  C1116   1.407   .     S
Cu1113 Cu1114  2.704   .     S
Cu1113 N1131   2.032   .     S
Cu1114 N1132   2.032   .     S
C1116  C323    1.189   1_556 S
C1117  C1126   1.401   .     A
C1117  H1121   1.082   .     S
C1118  C1125   1.401   .     A
C1118  H1122   1.082   .     S
C1118  C1164   1.383   .     S
C1119  H1123   1.082   .     S
C1119  C1125   1.401   .     A
C1119  C1161   1.383   .     S
C1120  H1124   1.082   .     S
C1120  C1126   1.401   .     A
C1127  N1133   1.429   .     S
C1127  N1132   1.374   .     A
C1128  N1136   1.429   .     S
C1128  N1131   1.374   .     A
C1128  C865    1.424   1_565 S
C1129  N1139   1.429   .     S
C1129  N1132   1.374   .     A
C1130  N1131   1.374   .     A
C1130  N1142   1.429   .     S
C1130  C863    1.424   1_565 S
N1133  O1134   1.299   .     A
N1133  O1135   1.301   .     A
N1136  O1138   1.301   .     A
N1136  O1137   1.299   .     A
N1139  O1141   1.299   .     A
N1139  O1140   1.301   .     A
N1142  O1144   1.300   .     A
N1142  O1143   1.301   .     A
O1145  C1149   1.299   .     A
O1145  Cu1157  1.967   .     S
O1146  C1150   1.299   .     A
O1146  Cu1158  1.967   .     S
O1147  Cu1157  1.967   .     S
O1147  C1150   1.299   .     A
O1148  Cu1158  1.967   .     S
O1148  C1149   1.299   .     A
C1149  C1170   1.453   .     S
C1150  C1169   1.453   .     S
O1151  C1155   1.295   .     A
O1151  Cu1157  1.929   .     S
O1152  C1156   1.295   .     A
O1152  Cu1158  1.929   .     S
O1153  C1156   1.295   .     A
O1153  Cu1157  1.929   .     S
O1154  C1155   1.295   .     A
O1154  Cu1158  1.929   .     S
C1155  C1159   1.407   .     S
C1156  C1160   1.407   .     S
Cu1157 Cu1158  2.704   .     S
Cu1157 N1175   2.032   .     S
Cu1158 N1176   2.032   .     S
C1160  C367    1.189   1_556 S
C1161  C1170   1.401   .     A
C1161  H1165   1.082   .     S
C1162  C1169   1.401   .     A
C1162  H1166   1.082   .     S
C1162  C1076   1.383   1_655 S
C1163  H1167   1.082   .     S
C1163  C1169   1.401   .     A
C1163  C1073   1.383   1_655 S
C1164  H1168   1.082   .     S
C1164  C1170   1.401   .     A
C1171  N1177   1.429   .     S
C1171  N1176   1.374   .     A
C1172  N1180   1.429   .     S
C1172  N1175   1.374   .     A
C1172  C909    1.424   1_565 S
C1173  N1183   1.429   .     S
C1173  N1176   1.374   .     A
C1174  N1175   1.374   .     A
C1174  N1186   1.429   .     S
C1174  C907    1.424   1_565 S
N1177  O1178   1.299   .     A
N1177  O1179   1.301   .     A
N1180  O1182   1.301   .     A
N1180  O1181   1.299   .     A
N1183  O1185   1.299   .     A
N1183  O1184   1.301   .     A
N1186  O1188   1.300   .     A
N1186  O1187   1.301   .     A
