data_str_m2_o10_o17_pcu_sym.214
_audit_creation_date              2020-01-03
_audit_creation_method            'Materials Studio'
_symmetry_space_group_name_H-M    'P1'
_symmetry_Int_Tables_number       1
_symmetry_cell_setting            triclinic
loop_
_symmetry_equiv_pos_as_xyz
  x,y,z
_cell_length_a                    29.8573
_cell_length_b                    26.1554
_cell_length_c                    22.4530
_cell_angle_alpha                 103.2803
_cell_angle_beta                  91.5875
_cell_angle_gamma                 90.5120
loop_
_atom_site_label
_atom_site_type_symbol
_atom_site_fract_x
_atom_site_fract_y
_atom_site_fract_z
_atom_site_U_iso_or_equiv
_atom_site_adp_type
_atom_site_occupancy
C1     C     0.24859   0.06669   0.15116   0.00000  Uiso   1.00
C2     C     0.25137   0.26665   0.18218   0.00000  Uiso   1.00
C3     C     0.02631   0.07516   0.12079   0.00000  Uiso   1.00
C4     C     0.47402   0.26273   0.20609   0.00000  Uiso   1.00
C5     C     0.24785   0.01068   0.14258   0.00000  Uiso   1.00
C6     C     0.25211   0.32265   0.19075   0.00000  Uiso   1.00
C7     C     0.16484   0.16968   0.16938   0.00000  Uiso   1.00
C8     C     0.33522   0.16423   0.16402   0.00000  Uiso   1.00
C9     C     0.40564   0.21128   0.17794   0.00000  Uiso   1.00
C10    C     0.09386   0.12433   0.16108   0.00000  Uiso   1.00
C11    C     0.38329   0.16386   0.15871   0.00000  Uiso   1.00
C12    C     0.11680   0.17171   0.17479   0.00000  Uiso   1.00
C13    C     0.40651   0.11729   0.13748   0.00000  Uiso   1.00
C14    C     0.09408   0.21959   0.18715   0.00000  Uiso   1.00
C15    C     0.45405   0.11881   0.13783   0.00000  Uiso   1.00
C16    C     0.04643   0.21906   0.18801   0.00000  Uiso   1.00
C17    C     0.47668   0.16735   0.16369   0.00000  Uiso   1.00
C18    C     0.02353   0.16976   0.16802   0.00000  Uiso   1.00
C19    C     0.45222   0.21381   0.18344   0.00000  Uiso   1.00
C20    C     0.04777   0.12274   0.15080   0.00000  Uiso   1.00
C21    C     0.47888   0.07316   0.11337   0.00000  Uiso   1.00
C22    C     0.02168   0.26624   0.20526   0.00000  Uiso   1.00
Cu23   Cu    0.25501   0.17246   0.22813   0.00000  Uiso   1.00
Cu24   Cu    0.24500   0.16087   0.10521   0.00000  Uiso   1.00
N25    N     0.23745   0.15214   0.01284   0.00000  Uiso   1.00
N26    N     0.26256   0.18119   0.32049   0.00000  Uiso   1.00
O27    O     0.25326   0.09538   0.20659   0.00000  Uiso   1.00
O28    O     0.24675   0.23796   0.12674   0.00000  Uiso   1.00
O29    O     0.24480   0.08559   0.10279   0.00000  Uiso   1.00
O30    O     0.25520   0.24774   0.23055   0.00000  Uiso   1.00
O31    O     0.18936   0.17155   0.21857   0.00000  Uiso   1.00
O32    O     0.31065   0.16179   0.11476   0.00000  Uiso   1.00
O33    O     0.18090   0.16176   0.11477   0.00000  Uiso   1.00
O34    O     0.31910   0.17157   0.21857   0.00000  Uiso   1.00
H35    H     0.38553   0.24607   0.18881   0.00000  Uiso   1.00
H36    H     0.11297   0.08869   0.15504   0.00000  Uiso   1.00
O37    O     0.38255   0.07076   0.11637   0.00000  Uiso   1.00
C38    C     0.37412   0.04820   0.16639   0.00000  Uiso   1.00
H39    H     0.40365   0.05109   0.19833   0.00000  Uiso   1.00
H40    H     0.36572   0.00593   0.14867   0.00000  Uiso   1.00
H41    H     0.34503   0.06697   0.19193   0.00000  Uiso   1.00
O42    O     0.11874   0.26611   0.20231   0.00000  Uiso   1.00
C43    C     0.12863   0.28200   0.14801   0.00000  Uiso   1.00
H44    H     0.14024   0.32361   0.16046   0.00000  Uiso   1.00
H45    H     0.09883   0.27952   0.11645   0.00000  Uiso   1.00
H46    H     0.15608   0.25851   0.12366   0.00000  Uiso   1.00
O47    O     0.45580   0.03110   0.07503   0.00000  Uiso   1.00
C48    C     0.47034   0.31449   0.07996   0.00000  Uiso   1.00
H49    H     0.49273   0.29793   0.04191   0.00000  Uiso   1.00
H50    H     0.48742   0.31503   0.12390   0.00000  Uiso   1.00
H51    H     0.44067   0.28796   0.07611   0.00000  Uiso   1.00
O52    O     0.04527   0.31366   0.21065   0.00000  Uiso   1.00
C53    C     0.02740   0.02444   0.25051   0.00000  Uiso   1.00
H54    H     0.01386   0.01490   0.29216   0.00000  Uiso   1.00
H55    H     0.00201   0.04357   0.22643   0.00000  Uiso   1.00
H56    H     0.05475   0.05399   0.26466   0.00000  Uiso   1.00
O57    O     0.05115   0.02979   0.10234   0.00000  Uiso   1.00
C58    C     0.07824   0.03204   0.05226   0.00000  Uiso   1.00
H59    H     0.07318   0.06743   0.03333   0.00000  Uiso   1.00
H60    H     0.07195   0.32933   0.01585   0.00000  Uiso   1.00
H61    H     0.11409   0.03066   0.06595   0.00000  Uiso   1.00
O62    O     0.44853   0.30785   0.21655   0.00000  Uiso   1.00
C63    C     0.42621   0.31527   0.27260   0.00000  Uiso   1.00
H64    H     0.43186   0.28394   0.29809   0.00000  Uiso   1.00
H65    H     0.38963   0.31783   0.26411   0.00000  Uiso   1.00
H66    H     0.43645   0.02069   0.30131   0.00000  Uiso   1.00
H67    H     0.24378   0.32020   0.09616   0.00000  Uiso   1.00
H68    H     0.25618   0.01313   0.23717   0.00000  Uiso   1.00
H69    H     0.21547   0.12721   0.31690   0.00000  Uiso   1.00
H70    H     0.28452   0.20612   0.01644   0.00000  Uiso   1.00
C71    C     0.74859   0.06669   0.15116   0.00000  Uiso   1.00
C72    C     0.75137   0.26665   0.18218   0.00000  Uiso   1.00
C73    C     0.52631   0.07516   0.12079   0.00000  Uiso   1.00
C74    C     0.97402   0.26273   0.20609   0.00000  Uiso   1.00
C75    C     0.74785   0.01068   0.14258   0.00000  Uiso   1.00
C76    C     0.75211   0.32265   0.19075   0.00000  Uiso   1.00
C77    C     0.66484   0.16968   0.16938   0.00000  Uiso   1.00
C78    C     0.83522   0.16423   0.16402   0.00000  Uiso   1.00
C79    C     0.90564   0.21128   0.17794   0.00000  Uiso   1.00
C80    C     0.59386   0.12433   0.16108   0.00000  Uiso   1.00
C81    C     0.88329   0.16386   0.15871   0.00000  Uiso   1.00
C82    C     0.61680   0.17171   0.17479   0.00000  Uiso   1.00
C83    C     0.90651   0.11729   0.13748   0.00000  Uiso   1.00
C84    C     0.59408   0.21959   0.18715   0.00000  Uiso   1.00
C85    C     0.95405   0.11881   0.13783   0.00000  Uiso   1.00
C86    C     0.54643   0.21906   0.18801   0.00000  Uiso   1.00
C87    C     0.97668   0.16735   0.16369   0.00000  Uiso   1.00
C88    C     0.52353   0.16976   0.16802   0.00000  Uiso   1.00
C89    C     0.95222   0.21381   0.18344   0.00000  Uiso   1.00
C90    C     0.54777   0.12274   0.15080   0.00000  Uiso   1.00
C91    C     0.97888   0.07316   0.11337   0.00000  Uiso   1.00
C92    C     0.52168   0.26624   0.20526   0.00000  Uiso   1.00
Cu93   Cu    0.75501   0.17246   0.22813   0.00000  Uiso   1.00
Cu94   Cu    0.74500   0.16087   0.10521   0.00000  Uiso   1.00
N95    N     0.73745   0.15214   0.01284   0.00000  Uiso   1.00
N96    N     0.76256   0.18119   0.32049   0.00000  Uiso   1.00
O97    O     0.75326   0.09538   0.20659   0.00000  Uiso   1.00
O98    O     0.74675   0.23796   0.12674   0.00000  Uiso   1.00
O99    O     0.74480   0.08559   0.10279   0.00000  Uiso   1.00
O100   O     0.75520   0.24774   0.23055   0.00000  Uiso   1.00
O101   O     0.68936   0.17155   0.21857   0.00000  Uiso   1.00
O102   O     0.81065   0.16179   0.11476   0.00000  Uiso   1.00
O103   O     0.68090   0.16176   0.11477   0.00000  Uiso   1.00
O104   O     0.81910   0.17157   0.21857   0.00000  Uiso   1.00
H105   H     0.88553   0.24607   0.18881   0.00000  Uiso   1.00
H106   H     0.61297   0.08869   0.15504   0.00000  Uiso   1.00
O107   O     0.88255   0.07076   0.11637   0.00000  Uiso   1.00
C108   C     0.87412   0.04820   0.16639   0.00000  Uiso   1.00
H109   H     0.90365   0.05109   0.19833   0.00000  Uiso   1.00
H110   H     0.86572   0.00593   0.14867   0.00000  Uiso   1.00
H111   H     0.84503   0.06697   0.19193   0.00000  Uiso   1.00
O112   O     0.61874   0.26611   0.20231   0.00000  Uiso   1.00
C113   C     0.62863   0.28200   0.14801   0.00000  Uiso   1.00
H114   H     0.64024   0.32361   0.16046   0.00000  Uiso   1.00
H115   H     0.59883   0.27952   0.11645   0.00000  Uiso   1.00
H116   H     0.65608   0.25851   0.12366   0.00000  Uiso   1.00
O117   O     0.95580   0.03110   0.07503   0.00000  Uiso   1.00
C118   C     0.97034   0.31449   0.07996   0.00000  Uiso   1.00
H119   H     0.99273   0.29793   0.04191   0.00000  Uiso   1.00
H120   H     0.98742   0.31503   0.12390   0.00000  Uiso   1.00
H121   H     0.94067   0.28796   0.07611   0.00000  Uiso   1.00
O122   O     0.54527   0.31366   0.21065   0.00000  Uiso   1.00
C123   C     0.52740   0.02444   0.25051   0.00000  Uiso   1.00
H124   H     0.51386   0.01490   0.29216   0.00000  Uiso   1.00
H125   H     0.50201   0.04357   0.22643   0.00000  Uiso   1.00
H126   H     0.55475   0.05399   0.26466   0.00000  Uiso   1.00
O127   O     0.55115   0.02979   0.10234   0.00000  Uiso   1.00
C128   C     0.57824   0.03204   0.05226   0.00000  Uiso   1.00
H129   H     0.57318   0.06743   0.03333   0.00000  Uiso   1.00
H130   H     0.57195   0.32933   0.01585   0.00000  Uiso   1.00
H131   H     0.61409   0.03066   0.06595   0.00000  Uiso   1.00
O132   O     0.94853   0.30785   0.21655   0.00000  Uiso   1.00
C133   C     0.92621   0.31527   0.27260   0.00000  Uiso   1.00
H134   H     0.93186   0.28394   0.29809   0.00000  Uiso   1.00
H135   H     0.88963   0.31783   0.26411   0.00000  Uiso   1.00
H136   H     0.93645   0.02069   0.30131   0.00000  Uiso   1.00
H137   H     0.74378   0.32020   0.09616   0.00000  Uiso   1.00
H138   H     0.75618   0.01313   0.23717   0.00000  Uiso   1.00
H139   H     0.71547   0.12721   0.31690   0.00000  Uiso   1.00
H140   H     0.78452   0.20612   0.01644   0.00000  Uiso   1.00
C141   C     0.24859   0.40002   0.15116   0.00000  Uiso   1.00
C142   C     0.25137   0.59998   0.18218   0.00000  Uiso   1.00
C143   C     0.02631   0.40849   0.12079   0.00000  Uiso   1.00
C144   C     0.47402   0.59606   0.20609   0.00000  Uiso   1.00
C145   C     0.24785   0.34401   0.14258   0.00000  Uiso   1.00
C146   C     0.25211   0.65599   0.19075   0.00000  Uiso   1.00
C147   C     0.16484   0.50301   0.16938   0.00000  Uiso   1.00
C148   C     0.33522   0.49756   0.16402   0.00000  Uiso   1.00
C149   C     0.40564   0.54461   0.17794   0.00000  Uiso   1.00
C150   C     0.09386   0.45767   0.16108   0.00000  Uiso   1.00
C151   C     0.38329   0.49719   0.15871   0.00000  Uiso   1.00
C152   C     0.11680   0.50505   0.17479   0.00000  Uiso   1.00
C153   C     0.40651   0.45063   0.13748   0.00000  Uiso   1.00
C154   C     0.09408   0.55292   0.18715   0.00000  Uiso   1.00
C155   C     0.45405   0.45214   0.13783   0.00000  Uiso   1.00
C156   C     0.04643   0.55239   0.18801   0.00000  Uiso   1.00
C157   C     0.47668   0.50068   0.16369   0.00000  Uiso   1.00
C158   C     0.02353   0.50309   0.16802   0.00000  Uiso   1.00
C159   C     0.45222   0.54715   0.18344   0.00000  Uiso   1.00
C160   C     0.04777   0.45607   0.15080   0.00000  Uiso   1.00
C161   C     0.47888   0.40650   0.11337   0.00000  Uiso   1.00
C162   C     0.02168   0.59957   0.20526   0.00000  Uiso   1.00
Cu163  Cu    0.25501   0.50579   0.22813   0.00000  Uiso   1.00
Cu164  Cu    0.24500   0.49421   0.10521   0.00000  Uiso   1.00
N165   N     0.23745   0.48547   0.01284   0.00000  Uiso   1.00
N166   N     0.26256   0.51453   0.32049   0.00000  Uiso   1.00
O167   O     0.25326   0.42871   0.20659   0.00000  Uiso   1.00
O168   O     0.24675   0.57129   0.12674   0.00000  Uiso   1.00
O169   O     0.24480   0.41892   0.10279   0.00000  Uiso   1.00
O170   O     0.25520   0.58108   0.23055   0.00000  Uiso   1.00
O171   O     0.18936   0.50488   0.21857   0.00000  Uiso   1.00
O172   O     0.31065   0.49512   0.11476   0.00000  Uiso   1.00
O173   O     0.18090   0.49510   0.11477   0.00000  Uiso   1.00
O174   O     0.31910   0.50490   0.21857   0.00000  Uiso   1.00
H175   H     0.38553   0.57940   0.18881   0.00000  Uiso   1.00
H176   H     0.11297   0.42203   0.15504   0.00000  Uiso   1.00
O177   O     0.38255   0.40410   0.11637   0.00000  Uiso   1.00
C178   C     0.37412   0.38154   0.16639   0.00000  Uiso   1.00
H179   H     0.40365   0.38442   0.19833   0.00000  Uiso   1.00
H180   H     0.36572   0.33927   0.14867   0.00000  Uiso   1.00
H181   H     0.34503   0.40030   0.19193   0.00000  Uiso   1.00
O182   O     0.11874   0.59945   0.20231   0.00000  Uiso   1.00
C183   C     0.12863   0.61534   0.14801   0.00000  Uiso   1.00
H184   H     0.14024   0.65694   0.16046   0.00000  Uiso   1.00
H185   H     0.09883   0.61285   0.11645   0.00000  Uiso   1.00
H186   H     0.15608   0.59184   0.12366   0.00000  Uiso   1.00
O187   O     0.45580   0.36443   0.07503   0.00000  Uiso   1.00
C188   C     0.47034   0.64782   0.07996   0.00000  Uiso   1.00
H189   H     0.49273   0.63126   0.04191   0.00000  Uiso   1.00
H190   H     0.48742   0.64836   0.12390   0.00000  Uiso   1.00
H191   H     0.44067   0.62129   0.07611   0.00000  Uiso   1.00
O192   O     0.04527   0.64699   0.21065   0.00000  Uiso   1.00
C193   C     0.02740   0.35777   0.25051   0.00000  Uiso   1.00
H194   H     0.01386   0.34824   0.29216   0.00000  Uiso   1.00
H195   H     0.00201   0.37691   0.22643   0.00000  Uiso   1.00
H196   H     0.05475   0.38732   0.26466   0.00000  Uiso   1.00
O197   O     0.05115   0.36313   0.10234   0.00000  Uiso   1.00
C198   C     0.07824   0.36537   0.05226   0.00000  Uiso   1.00
H199   H     0.07318   0.40077   0.03333   0.00000  Uiso   1.00
H200   H     0.07195   0.66267   0.01585   0.00000  Uiso   1.00
H201   H     0.11409   0.36399   0.06595   0.00000  Uiso   1.00
O202   O     0.44853   0.64119   0.21655   0.00000  Uiso   1.00
C203   C     0.42621   0.64860   0.27260   0.00000  Uiso   1.00
H204   H     0.43186   0.61727   0.29809   0.00000  Uiso   1.00
H205   H     0.38963   0.65116   0.26411   0.00000  Uiso   1.00
H206   H     0.43645   0.35403   0.30131   0.00000  Uiso   1.00
H207   H     0.24378   0.65353   0.09616   0.00000  Uiso   1.00
H208   H     0.25618   0.34647   0.23717   0.00000  Uiso   1.00
H209   H     0.21547   0.46055   0.31690   0.00000  Uiso   1.00
H210   H     0.28452   0.53946   0.01644   0.00000  Uiso   1.00
C211   C     0.74859   0.40002   0.15116   0.00000  Uiso   1.00
C212   C     0.75137   0.59998   0.18218   0.00000  Uiso   1.00
C213   C     0.52631   0.40849   0.12079   0.00000  Uiso   1.00
C214   C     0.97402   0.59606   0.20609   0.00000  Uiso   1.00
C215   C     0.74785   0.34401   0.14258   0.00000  Uiso   1.00
C216   C     0.75211   0.65599   0.19075   0.00000  Uiso   1.00
C217   C     0.66484   0.50301   0.16938   0.00000  Uiso   1.00
C218   C     0.83522   0.49756   0.16402   0.00000  Uiso   1.00
C219   C     0.90564   0.54461   0.17794   0.00000  Uiso   1.00
C220   C     0.59386   0.45767   0.16108   0.00000  Uiso   1.00
C221   C     0.88329   0.49719   0.15871   0.00000  Uiso   1.00
C222   C     0.61680   0.50505   0.17479   0.00000  Uiso   1.00
C223   C     0.90651   0.45063   0.13748   0.00000  Uiso   1.00
C224   C     0.59408   0.55292   0.18715   0.00000  Uiso   1.00
C225   C     0.95405   0.45214   0.13783   0.00000  Uiso   1.00
C226   C     0.54643   0.55239   0.18801   0.00000  Uiso   1.00
C227   C     0.97668   0.50068   0.16369   0.00000  Uiso   1.00
C228   C     0.52353   0.50309   0.16802   0.00000  Uiso   1.00
C229   C     0.95222   0.54715   0.18344   0.00000  Uiso   1.00
C230   C     0.54777   0.45607   0.15080   0.00000  Uiso   1.00
C231   C     0.97888   0.40650   0.11337   0.00000  Uiso   1.00
C232   C     0.52168   0.59957   0.20526   0.00000  Uiso   1.00
Cu233  Cu    0.75501   0.50579   0.22813   0.00000  Uiso   1.00
Cu234  Cu    0.74500   0.49421   0.10521   0.00000  Uiso   1.00
N235   N     0.73745   0.48547   0.01284   0.00000  Uiso   1.00
N236   N     0.76256   0.51453   0.32049   0.00000  Uiso   1.00
O237   O     0.75326   0.42871   0.20659   0.00000  Uiso   1.00
O238   O     0.74675   0.57129   0.12674   0.00000  Uiso   1.00
O239   O     0.74480   0.41892   0.10279   0.00000  Uiso   1.00
O240   O     0.75520   0.58108   0.23055   0.00000  Uiso   1.00
O241   O     0.68936   0.50488   0.21857   0.00000  Uiso   1.00
O242   O     0.81065   0.49512   0.11476   0.00000  Uiso   1.00
O243   O     0.68090   0.49510   0.11477   0.00000  Uiso   1.00
O244   O     0.81910   0.50490   0.21857   0.00000  Uiso   1.00
H245   H     0.88553   0.57940   0.18881   0.00000  Uiso   1.00
H246   H     0.61297   0.42203   0.15504   0.00000  Uiso   1.00
O247   O     0.88255   0.40410   0.11637   0.00000  Uiso   1.00
C248   C     0.87412   0.38154   0.16639   0.00000  Uiso   1.00
H249   H     0.90365   0.38442   0.19833   0.00000  Uiso   1.00
H250   H     0.86572   0.33927   0.14867   0.00000  Uiso   1.00
H251   H     0.84503   0.40030   0.19193   0.00000  Uiso   1.00
O252   O     0.61874   0.59945   0.20231   0.00000  Uiso   1.00
C253   C     0.62863   0.61534   0.14801   0.00000  Uiso   1.00
H254   H     0.64024   0.65694   0.16046   0.00000  Uiso   1.00
H255   H     0.59883   0.61285   0.11645   0.00000  Uiso   1.00
H256   H     0.65608   0.59184   0.12366   0.00000  Uiso   1.00
O257   O     0.95580   0.36443   0.07503   0.00000  Uiso   1.00
C258   C     0.97034   0.64782   0.07996   0.00000  Uiso   1.00
H259   H     0.99273   0.63126   0.04191   0.00000  Uiso   1.00
H260   H     0.98742   0.64836   0.12390   0.00000  Uiso   1.00
H261   H     0.94067   0.62129   0.07611   0.00000  Uiso   1.00
O262   O     0.54527   0.64699   0.21065   0.00000  Uiso   1.00
C263   C     0.52740   0.35777   0.25051   0.00000  Uiso   1.00
H264   H     0.51386   0.34824   0.29216   0.00000  Uiso   1.00
H265   H     0.50201   0.37691   0.22643   0.00000  Uiso   1.00
H266   H     0.55475   0.38732   0.26466   0.00000  Uiso   1.00
O267   O     0.55115   0.36313   0.10234   0.00000  Uiso   1.00
C268   C     0.57824   0.36537   0.05226   0.00000  Uiso   1.00
H269   H     0.57318   0.40077   0.03333   0.00000  Uiso   1.00
H270   H     0.57195   0.66267   0.01585   0.00000  Uiso   1.00
H271   H     0.61409   0.36399   0.06595   0.00000  Uiso   1.00
O272   O     0.94853   0.64119   0.21655   0.00000  Uiso   1.00
C273   C     0.92621   0.64860   0.27260   0.00000  Uiso   1.00
H274   H     0.93186   0.61727   0.29809   0.00000  Uiso   1.00
H275   H     0.88963   0.65116   0.26411   0.00000  Uiso   1.00
H276   H     0.93645   0.35403   0.30131   0.00000  Uiso   1.00
H277   H     0.74378   0.65353   0.09616   0.00000  Uiso   1.00
H278   H     0.75618   0.34647   0.23717   0.00000  Uiso   1.00
H279   H     0.71547   0.46055   0.31690   0.00000  Uiso   1.00
H280   H     0.78452   0.53946   0.01644   0.00000  Uiso   1.00
C281   C     0.24859   0.73335   0.15116   0.00000  Uiso   1.00
C282   C     0.25137   0.93331   0.18218   0.00000  Uiso   1.00
C283   C     0.02631   0.74182   0.12079   0.00000  Uiso   1.00
C284   C     0.47402   0.92940   0.20609   0.00000  Uiso   1.00
C285   C     0.24785   0.67734   0.14258   0.00000  Uiso   1.00
C286   C     0.25211   0.98932   0.19075   0.00000  Uiso   1.00
C287   C     0.16484   0.83634   0.16938   0.00000  Uiso   1.00
C288   C     0.33522   0.83090   0.16402   0.00000  Uiso   1.00
C289   C     0.40564   0.87795   0.17794   0.00000  Uiso   1.00
C290   C     0.09386   0.79100   0.16108   0.00000  Uiso   1.00
C291   C     0.38329   0.83052   0.15871   0.00000  Uiso   1.00
C292   C     0.11680   0.83838   0.17479   0.00000  Uiso   1.00
C293   C     0.40651   0.78396   0.13748   0.00000  Uiso   1.00
C294   C     0.09408   0.88626   0.18715   0.00000  Uiso   1.00
C295   C     0.45405   0.78547   0.13783   0.00000  Uiso   1.00
C296   C     0.04643   0.88573   0.18801   0.00000  Uiso   1.00
C297   C     0.47668   0.83401   0.16369   0.00000  Uiso   1.00
C298   C     0.02353   0.83642   0.16802   0.00000  Uiso   1.00
C299   C     0.45222   0.88048   0.18344   0.00000  Uiso   1.00
C300   C     0.04777   0.78941   0.15080   0.00000  Uiso   1.00
C301   C     0.47888   0.73983   0.11337   0.00000  Uiso   1.00
C302   C     0.02168   0.93290   0.20526   0.00000  Uiso   1.00
Cu303  Cu    0.25501   0.83913   0.22813   0.00000  Uiso   1.00
Cu304  Cu    0.24500   0.82754   0.10521   0.00000  Uiso   1.00
N305   N     0.23745   0.81881   0.01284   0.00000  Uiso   1.00
N306   N     0.26256   0.84786   0.32049   0.00000  Uiso   1.00
O307   O     0.25326   0.76204   0.20659   0.00000  Uiso   1.00
O308   O     0.24675   0.90462   0.12674   0.00000  Uiso   1.00
O309   O     0.24480   0.75226   0.10279   0.00000  Uiso   1.00
O310   O     0.25520   0.91441   0.23055   0.00000  Uiso   1.00
O311   O     0.18936   0.83821   0.21857   0.00000  Uiso   1.00
O312   O     0.31065   0.82845   0.11476   0.00000  Uiso   1.00
O313   O     0.18090   0.82843   0.11477   0.00000  Uiso   1.00
O314   O     0.31910   0.83824   0.21857   0.00000  Uiso   1.00
H315   H     0.38553   0.91273   0.18881   0.00000  Uiso   1.00
H316   H     0.11297   0.75536   0.15504   0.00000  Uiso   1.00
O317   O     0.38255   0.73743   0.11637   0.00000  Uiso   1.00
C318   C     0.37412   0.71487   0.16639   0.00000  Uiso   1.00
H319   H     0.40365   0.71775   0.19833   0.00000  Uiso   1.00
H320   H     0.36572   0.67260   0.14867   0.00000  Uiso   1.00
H321   H     0.34503   0.73363   0.19193   0.00000  Uiso   1.00
O322   O     0.11874   0.93278   0.20231   0.00000  Uiso   1.00
C323   C     0.12863   0.94867   0.14801   0.00000  Uiso   1.00
H324   H     0.14024   0.99028   0.16046   0.00000  Uiso   1.00
H325   H     0.09883   0.94618   0.11645   0.00000  Uiso   1.00
H326   H     0.15608   0.92517   0.12366   0.00000  Uiso   1.00
O327   O     0.45580   0.69777   0.07503   0.00000  Uiso   1.00
C328   C     0.47034   0.98116   0.07996   0.00000  Uiso   1.00
H329   H     0.49273   0.96460   0.04191   0.00000  Uiso   1.00
H330   H     0.48742   0.98170   0.12390   0.00000  Uiso   1.00
H331   H     0.44067   0.95463   0.07611   0.00000  Uiso   1.00
O332   O     0.04527   0.98032   0.21065   0.00000  Uiso   1.00
C333   C     0.02740   0.69111   0.25051   0.00000  Uiso   1.00
H334   H     0.01386   0.68157   0.29216   0.00000  Uiso   1.00
H335   H     0.00201   0.71024   0.22643   0.00000  Uiso   1.00
H336   H     0.05475   0.72066   0.26466   0.00000  Uiso   1.00
O337   O     0.05115   0.69646   0.10234   0.00000  Uiso   1.00
C338   C     0.07824   0.69870   0.05226   0.00000  Uiso   1.00
H339   H     0.07318   0.73410   0.03333   0.00000  Uiso   1.00
H340   H     0.07195   0.99600   0.01585   0.00000  Uiso   1.00
H341   H     0.11409   0.69732   0.06595   0.00000  Uiso   1.00
O342   O     0.44853   0.97452   0.21655   0.00000  Uiso   1.00
C343   C     0.42621   0.98193   0.27260   0.00000  Uiso   1.00
H344   H     0.43186   0.95061   0.29809   0.00000  Uiso   1.00
H345   H     0.38963   0.98449   0.26411   0.00000  Uiso   1.00
H346   H     0.43645   0.68736   0.30131   0.00000  Uiso   1.00
H347   H     0.24378   0.98687   0.09616   0.00000  Uiso   1.00
H348   H     0.25618   0.67980   0.23717   0.00000  Uiso   1.00
H349   H     0.21547   0.79388   0.31690   0.00000  Uiso   1.00
H350   H     0.28452   0.87279   0.01644   0.00000  Uiso   1.00
C351   C     0.74859   0.73335   0.15116   0.00000  Uiso   1.00
C352   C     0.75137   0.93331   0.18218   0.00000  Uiso   1.00
C353   C     0.52631   0.74182   0.12079   0.00000  Uiso   1.00
C354   C     0.97402   0.92940   0.20609   0.00000  Uiso   1.00
C355   C     0.74785   0.67734   0.14258   0.00000  Uiso   1.00
C356   C     0.75211   0.98932   0.19075   0.00000  Uiso   1.00
C357   C     0.66484   0.83634   0.16938   0.00000  Uiso   1.00
C358   C     0.83522   0.83090   0.16402   0.00000  Uiso   1.00
C359   C     0.90564   0.87795   0.17794   0.00000  Uiso   1.00
C360   C     0.59386   0.79100   0.16108   0.00000  Uiso   1.00
C361   C     0.88329   0.83052   0.15871   0.00000  Uiso   1.00
C362   C     0.61680   0.83838   0.17479   0.00000  Uiso   1.00
C363   C     0.90651   0.78396   0.13748   0.00000  Uiso   1.00
C364   C     0.59408   0.88626   0.18715   0.00000  Uiso   1.00
C365   C     0.95405   0.78547   0.13783   0.00000  Uiso   1.00
C366   C     0.54643   0.88573   0.18801   0.00000  Uiso   1.00
C367   C     0.97668   0.83401   0.16369   0.00000  Uiso   1.00
C368   C     0.52353   0.83642   0.16802   0.00000  Uiso   1.00
C369   C     0.95222   0.88048   0.18344   0.00000  Uiso   1.00
C370   C     0.54777   0.78941   0.15080   0.00000  Uiso   1.00
C371   C     0.97888   0.73983   0.11337   0.00000  Uiso   1.00
C372   C     0.52168   0.93290   0.20526   0.00000  Uiso   1.00
Cu373  Cu    0.75501   0.83913   0.22813   0.00000  Uiso   1.00
Cu374  Cu    0.74500   0.82754   0.10521   0.00000  Uiso   1.00
N375   N     0.73745   0.81881   0.01284   0.00000  Uiso   1.00
N376   N     0.76256   0.84786   0.32049   0.00000  Uiso   1.00
O377   O     0.75326   0.76204   0.20659   0.00000  Uiso   1.00
O378   O     0.74675   0.90462   0.12674   0.00000  Uiso   1.00
O379   O     0.74480   0.75226   0.10279   0.00000  Uiso   1.00
O380   O     0.75520   0.91441   0.23055   0.00000  Uiso   1.00
O381   O     0.68936   0.83821   0.21857   0.00000  Uiso   1.00
O382   O     0.81065   0.82845   0.11476   0.00000  Uiso   1.00
O383   O     0.68090   0.82843   0.11477   0.00000  Uiso   1.00
O384   O     0.81910   0.83824   0.21857   0.00000  Uiso   1.00
H385   H     0.88553   0.91273   0.18881   0.00000  Uiso   1.00
H386   H     0.61297   0.75536   0.15504   0.00000  Uiso   1.00
O387   O     0.88255   0.73743   0.11637   0.00000  Uiso   1.00
C388   C     0.87412   0.71487   0.16639   0.00000  Uiso   1.00
H389   H     0.90365   0.71775   0.19833   0.00000  Uiso   1.00
H390   H     0.86572   0.67260   0.14867   0.00000  Uiso   1.00
H391   H     0.84503   0.73363   0.19193   0.00000  Uiso   1.00
O392   O     0.61874   0.93278   0.20231   0.00000  Uiso   1.00
C393   C     0.62863   0.94867   0.14801   0.00000  Uiso   1.00
H394   H     0.64024   0.99028   0.16046   0.00000  Uiso   1.00
H395   H     0.59883   0.94618   0.11645   0.00000  Uiso   1.00
H396   H     0.65608   0.92517   0.12366   0.00000  Uiso   1.00
O397   O     0.95580   0.69777   0.07503   0.00000  Uiso   1.00
C398   C     0.97034   0.98116   0.07996   0.00000  Uiso   1.00
H399   H     0.99273   0.96460   0.04191   0.00000  Uiso   1.00
H400   H     0.98742   0.98170   0.12390   0.00000  Uiso   1.00
H401   H     0.94067   0.95463   0.07611   0.00000  Uiso   1.00
O402   O     0.54527   0.98032   0.21065   0.00000  Uiso   1.00
C403   C     0.52740   0.69111   0.25051   0.00000  Uiso   1.00
H404   H     0.51386   0.68157   0.29216   0.00000  Uiso   1.00
H405   H     0.50201   0.71024   0.22643   0.00000  Uiso   1.00
H406   H     0.55475   0.72066   0.26466   0.00000  Uiso   1.00
O407   O     0.55115   0.69646   0.10234   0.00000  Uiso   1.00
C408   C     0.57824   0.69870   0.05226   0.00000  Uiso   1.00
H409   H     0.57318   0.73410   0.03333   0.00000  Uiso   1.00
H410   H     0.57195   0.99600   0.01585   0.00000  Uiso   1.00
H411   H     0.61409   0.69732   0.06595   0.00000  Uiso   1.00
O412   O     0.94853   0.97452   0.21655   0.00000  Uiso   1.00
C413   C     0.92621   0.98193   0.27260   0.00000  Uiso   1.00
H414   H     0.93186   0.95061   0.29809   0.00000  Uiso   1.00
H415   H     0.88963   0.98449   0.26411   0.00000  Uiso   1.00
H416   H     0.93645   0.68736   0.30131   0.00000  Uiso   1.00
H417   H     0.74378   0.98687   0.09616   0.00000  Uiso   1.00
H418   H     0.75618   0.67980   0.23717   0.00000  Uiso   1.00
H419   H     0.71547   0.79388   0.31690   0.00000  Uiso   1.00
H420   H     0.78452   0.87279   0.01644   0.00000  Uiso   1.00
C421   C     0.24859   0.06669   0.48449   0.00000  Uiso   1.00
C422   C     0.25137   0.26665   0.51551   0.00000  Uiso   1.00
C423   C     0.02631   0.07516   0.45412   0.00000  Uiso   1.00
C424   C     0.47402   0.26273   0.53942   0.00000  Uiso   1.00
C425   C     0.24785   0.01068   0.47591   0.00000  Uiso   1.00
C426   C     0.25211   0.32265   0.52408   0.00000  Uiso   1.00
C427   C     0.16484   0.16968   0.50271   0.00000  Uiso   1.00
C428   C     0.33522   0.16423   0.49736   0.00000  Uiso   1.00
C429   C     0.40564   0.21128   0.51128   0.00000  Uiso   1.00
C430   C     0.09386   0.12433   0.49441   0.00000  Uiso   1.00
C431   C     0.38329   0.16386   0.49204   0.00000  Uiso   1.00
C432   C     0.11680   0.17171   0.50812   0.00000  Uiso   1.00
C433   C     0.40651   0.11729   0.47081   0.00000  Uiso   1.00
C434   C     0.09408   0.21959   0.52049   0.00000  Uiso   1.00
C435   C     0.45405   0.11881   0.47116   0.00000  Uiso   1.00
C436   C     0.04643   0.21906   0.52134   0.00000  Uiso   1.00
C437   C     0.47668   0.16735   0.49703   0.00000  Uiso   1.00
C438   C     0.02353   0.16976   0.50135   0.00000  Uiso   1.00
C439   C     0.45222   0.21381   0.51678   0.00000  Uiso   1.00
C440   C     0.04777   0.12274   0.48414   0.00000  Uiso   1.00
C441   C     0.47888   0.07316   0.44671   0.00000  Uiso   1.00
C442   C     0.02168   0.26624   0.53859   0.00000  Uiso   1.00
Cu443  Cu    0.25501   0.17246   0.56146   0.00000  Uiso   1.00
Cu444  Cu    0.24500   0.16087   0.43854   0.00000  Uiso   1.00
N445   N     0.23745   0.15214   0.34617   0.00000  Uiso   1.00
N446   N     0.26256   0.18119   0.65383   0.00000  Uiso   1.00
O447   O     0.25326   0.09538   0.53992   0.00000  Uiso   1.00
O448   O     0.24675   0.23796   0.46008   0.00000  Uiso   1.00
O449   O     0.24480   0.08559   0.43612   0.00000  Uiso   1.00
O450   O     0.25520   0.24774   0.56388   0.00000  Uiso   1.00
O451   O     0.18936   0.17155   0.55191   0.00000  Uiso   1.00
O452   O     0.31065   0.16179   0.44809   0.00000  Uiso   1.00
O453   O     0.18090   0.16176   0.44810   0.00000  Uiso   1.00
O454   O     0.31910   0.17157   0.55190   0.00000  Uiso   1.00
H455   H     0.38553   0.24607   0.52215   0.00000  Uiso   1.00
H456   H     0.11297   0.08869   0.48837   0.00000  Uiso   1.00
O457   O     0.38255   0.07076   0.44971   0.00000  Uiso   1.00
C458   C     0.37412   0.04820   0.49972   0.00000  Uiso   1.00
H459   H     0.40365   0.05109   0.53166   0.00000  Uiso   1.00
H460   H     0.36572   0.00593   0.48201   0.00000  Uiso   1.00
H461   H     0.34503   0.06697   0.52527   0.00000  Uiso   1.00
O462   O     0.11874   0.26611   0.53564   0.00000  Uiso   1.00
C463   C     0.12863   0.28200   0.48134   0.00000  Uiso   1.00
H464   H     0.14024   0.32361   0.49379   0.00000  Uiso   1.00
H465   H     0.09883   0.27952   0.44978   0.00000  Uiso   1.00
H466   H     0.15608   0.25851   0.45700   0.00000  Uiso   1.00
O467   O     0.45580   0.03110   0.40836   0.00000  Uiso   1.00
C468   C     0.47034   0.31449   0.41329   0.00000  Uiso   1.00
H469   H     0.49273   0.29793   0.37524   0.00000  Uiso   1.00
H470   H     0.48742   0.31503   0.45723   0.00000  Uiso   1.00
H471   H     0.44067   0.28796   0.40945   0.00000  Uiso   1.00
O472   O     0.04527   0.31366   0.54398   0.00000  Uiso   1.00
C473   C     0.02740   0.02444   0.58384   0.00000  Uiso   1.00
H474   H     0.01386   0.01490   0.62550   0.00000  Uiso   1.00
H475   H     0.00201   0.04357   0.55977   0.00000  Uiso   1.00
H476   H     0.05475   0.05399   0.59800   0.00000  Uiso   1.00
O477   O     0.05115   0.02979   0.43568   0.00000  Uiso   1.00
C478   C     0.07824   0.03204   0.38559   0.00000  Uiso   1.00
H479   H     0.07318   0.06743   0.36666   0.00000  Uiso   1.00
H480   H     0.07195   0.32933   0.34918   0.00000  Uiso   1.00
H481   H     0.11409   0.03066   0.39928   0.00000  Uiso   1.00
O482   O     0.44853   0.30785   0.54989   0.00000  Uiso   1.00
C483   C     0.42621   0.31527   0.60594   0.00000  Uiso   1.00
H484   H     0.43186   0.28394   0.63142   0.00000  Uiso   1.00
H485   H     0.38963   0.31783   0.59744   0.00000  Uiso   1.00
H486   H     0.43645   0.02069   0.63464   0.00000  Uiso   1.00
H487   H     0.24378   0.32020   0.42949   0.00000  Uiso   1.00
H488   H     0.25618   0.01313   0.57050   0.00000  Uiso   1.00
H489   H     0.21547   0.12721   0.65023   0.00000  Uiso   1.00
H490   H     0.28452   0.20612   0.34977   0.00000  Uiso   1.00
C491   C     0.74859   0.06669   0.48449   0.00000  Uiso   1.00
C492   C     0.75137   0.26665   0.51551   0.00000  Uiso   1.00
C493   C     0.52631   0.07516   0.45412   0.00000  Uiso   1.00
C494   C     0.97402   0.26273   0.53942   0.00000  Uiso   1.00
C495   C     0.74785   0.01068   0.47591   0.00000  Uiso   1.00
C496   C     0.75211   0.32265   0.52408   0.00000  Uiso   1.00
C497   C     0.66484   0.16968   0.50271   0.00000  Uiso   1.00
C498   C     0.83522   0.16423   0.49736   0.00000  Uiso   1.00
C499   C     0.90564   0.21128   0.51128   0.00000  Uiso   1.00
C500   C     0.59386   0.12433   0.49441   0.00000  Uiso   1.00
C501   C     0.88329   0.16386   0.49204   0.00000  Uiso   1.00
C502   C     0.61680   0.17171   0.50812   0.00000  Uiso   1.00
C503   C     0.90651   0.11729   0.47081   0.00000  Uiso   1.00
C504   C     0.59408   0.21959   0.52049   0.00000  Uiso   1.00
C505   C     0.95405   0.11881   0.47116   0.00000  Uiso   1.00
C506   C     0.54643   0.21906   0.52134   0.00000  Uiso   1.00
C507   C     0.97668   0.16735   0.49703   0.00000  Uiso   1.00
C508   C     0.52353   0.16976   0.50135   0.00000  Uiso   1.00
C509   C     0.95222   0.21381   0.51678   0.00000  Uiso   1.00
C510   C     0.54777   0.12274   0.48414   0.00000  Uiso   1.00
C511   C     0.97888   0.07316   0.44671   0.00000  Uiso   1.00
C512   C     0.52168   0.26624   0.53859   0.00000  Uiso   1.00
Cu513  Cu    0.75501   0.17246   0.56146   0.00000  Uiso   1.00
Cu514  Cu    0.74500   0.16087   0.43854   0.00000  Uiso   1.00
N515   N     0.73745   0.15214   0.34617   0.00000  Uiso   1.00
N516   N     0.76256   0.18119   0.65383   0.00000  Uiso   1.00
O517   O     0.75326   0.09538   0.53992   0.00000  Uiso   1.00
O518   O     0.74675   0.23796   0.46008   0.00000  Uiso   1.00
O519   O     0.74480   0.08559   0.43612   0.00000  Uiso   1.00
O520   O     0.75520   0.24774   0.56388   0.00000  Uiso   1.00
O521   O     0.68936   0.17155   0.55191   0.00000  Uiso   1.00
O522   O     0.81065   0.16179   0.44809   0.00000  Uiso   1.00
O523   O     0.68090   0.16176   0.44810   0.00000  Uiso   1.00
O524   O     0.81910   0.17157   0.55190   0.00000  Uiso   1.00
H525   H     0.88553   0.24607   0.52215   0.00000  Uiso   1.00
H526   H     0.61297   0.08869   0.48837   0.00000  Uiso   1.00
O527   O     0.88255   0.07076   0.44971   0.00000  Uiso   1.00
C528   C     0.87412   0.04820   0.49972   0.00000  Uiso   1.00
H529   H     0.90365   0.05109   0.53166   0.00000  Uiso   1.00
H530   H     0.86572   0.00593   0.48201   0.00000  Uiso   1.00
H531   H     0.84503   0.06697   0.52527   0.00000  Uiso   1.00
O532   O     0.61874   0.26611   0.53564   0.00000  Uiso   1.00
C533   C     0.62863   0.28200   0.48134   0.00000  Uiso   1.00
H534   H     0.64024   0.32361   0.49379   0.00000  Uiso   1.00
H535   H     0.59883   0.27952   0.44978   0.00000  Uiso   1.00
H536   H     0.65608   0.25851   0.45700   0.00000  Uiso   1.00
O537   O     0.95580   0.03110   0.40836   0.00000  Uiso   1.00
C538   C     0.97034   0.31449   0.41329   0.00000  Uiso   1.00
H539   H     0.99273   0.29793   0.37524   0.00000  Uiso   1.00
H540   H     0.98742   0.31503   0.45723   0.00000  Uiso   1.00
H541   H     0.94067   0.28796   0.40945   0.00000  Uiso   1.00
O542   O     0.54527   0.31366   0.54398   0.00000  Uiso   1.00
C543   C     0.52740   0.02444   0.58384   0.00000  Uiso   1.00
H544   H     0.51386   0.01490   0.62550   0.00000  Uiso   1.00
H545   H     0.50201   0.04357   0.55977   0.00000  Uiso   1.00
H546   H     0.55475   0.05399   0.59800   0.00000  Uiso   1.00
O547   O     0.55115   0.02979   0.43568   0.00000  Uiso   1.00
C548   C     0.57824   0.03204   0.38559   0.00000  Uiso   1.00
H549   H     0.57318   0.06743   0.36666   0.00000  Uiso   1.00
H550   H     0.57195   0.32933   0.34918   0.00000  Uiso   1.00
H551   H     0.61409   0.03066   0.39928   0.00000  Uiso   1.00
O552   O     0.94853   0.30785   0.54989   0.00000  Uiso   1.00
C553   C     0.92621   0.31527   0.60594   0.00000  Uiso   1.00
H554   H     0.93186   0.28394   0.63142   0.00000  Uiso   1.00
H555   H     0.88963   0.31783   0.59744   0.00000  Uiso   1.00
H556   H     0.93645   0.02069   0.63464   0.00000  Uiso   1.00
H557   H     0.74378   0.32020   0.42949   0.00000  Uiso   1.00
H558   H     0.75618   0.01313   0.57050   0.00000  Uiso   1.00
H559   H     0.71547   0.12721   0.65023   0.00000  Uiso   1.00
H560   H     0.78452   0.20612   0.34977   0.00000  Uiso   1.00
C561   C     0.24859   0.40002   0.48449   0.00000  Uiso   1.00
C562   C     0.25137   0.59998   0.51551   0.00000  Uiso   1.00
C563   C     0.02631   0.40849   0.45412   0.00000  Uiso   1.00
C564   C     0.47402   0.59606   0.53942   0.00000  Uiso   1.00
C565   C     0.24785   0.34401   0.47591   0.00000  Uiso   1.00
C566   C     0.25211   0.65599   0.52408   0.00000  Uiso   1.00
C567   C     0.16484   0.50301   0.50271   0.00000  Uiso   1.00
C568   C     0.33522   0.49756   0.49736   0.00000  Uiso   1.00
C569   C     0.40564   0.54461   0.51128   0.00000  Uiso   1.00
C570   C     0.09386   0.45767   0.49441   0.00000  Uiso   1.00
C571   C     0.38329   0.49719   0.49204   0.00000  Uiso   1.00
C572   C     0.11680   0.50505   0.50812   0.00000  Uiso   1.00
C573   C     0.40651   0.45063   0.47081   0.00000  Uiso   1.00
C574   C     0.09408   0.55292   0.52049   0.00000  Uiso   1.00
C575   C     0.45405   0.45214   0.47116   0.00000  Uiso   1.00
C576   C     0.04643   0.55239   0.52134   0.00000  Uiso   1.00
C577   C     0.47668   0.50068   0.49703   0.00000  Uiso   1.00
C578   C     0.02353   0.50309   0.50135   0.00000  Uiso   1.00
C579   C     0.45222   0.54715   0.51678   0.00000  Uiso   1.00
C580   C     0.04777   0.45607   0.48414   0.00000  Uiso   1.00
C581   C     0.47888   0.40650   0.44671   0.00000  Uiso   1.00
C582   C     0.02168   0.59957   0.53859   0.00000  Uiso   1.00
Cu583  Cu    0.25501   0.50579   0.56146   0.00000  Uiso   1.00
Cu584  Cu    0.24500   0.49421   0.43854   0.00000  Uiso   1.00
N585   N     0.23745   0.48547   0.34617   0.00000  Uiso   1.00
N586   N     0.26256   0.51453   0.65383   0.00000  Uiso   1.00
O587   O     0.25326   0.42871   0.53992   0.00000  Uiso   1.00
O588   O     0.24675   0.57129   0.46008   0.00000  Uiso   1.00
O589   O     0.24480   0.41892   0.43612   0.00000  Uiso   1.00
O590   O     0.25520   0.58108   0.56388   0.00000  Uiso   1.00
O591   O     0.18936   0.50488   0.55191   0.00000  Uiso   1.00
O592   O     0.31065   0.49512   0.44809   0.00000  Uiso   1.00
O593   O     0.18090   0.49510   0.44810   0.00000  Uiso   1.00
O594   O     0.31910   0.50490   0.55190   0.00000  Uiso   1.00
H595   H     0.38553   0.57940   0.52215   0.00000  Uiso   1.00
H596   H     0.11297   0.42203   0.48837   0.00000  Uiso   1.00
O597   O     0.38255   0.40410   0.44971   0.00000  Uiso   1.00
C598   C     0.37412   0.38154   0.49972   0.00000  Uiso   1.00
H599   H     0.40365   0.38442   0.53166   0.00000  Uiso   1.00
H600   H     0.36572   0.33927   0.48201   0.00000  Uiso   1.00
H601   H     0.34503   0.40030   0.52527   0.00000  Uiso   1.00
O602   O     0.11874   0.59945   0.53564   0.00000  Uiso   1.00
C603   C     0.12863   0.61534   0.48134   0.00000  Uiso   1.00
H604   H     0.14024   0.65694   0.49379   0.00000  Uiso   1.00
H605   H     0.09883   0.61285   0.44978   0.00000  Uiso   1.00
H606   H     0.15608   0.59184   0.45700   0.00000  Uiso   1.00
O607   O     0.45580   0.36443   0.40836   0.00000  Uiso   1.00
C608   C     0.47034   0.64782   0.41329   0.00000  Uiso   1.00
H609   H     0.49273   0.63126   0.37524   0.00000  Uiso   1.00
H610   H     0.48742   0.64836   0.45723   0.00000  Uiso   1.00
H611   H     0.44067   0.62129   0.40945   0.00000  Uiso   1.00
O612   O     0.04527   0.64699   0.54398   0.00000  Uiso   1.00
C613   C     0.02740   0.35777   0.58384   0.00000  Uiso   1.00
H614   H     0.01386   0.34824   0.62550   0.00000  Uiso   1.00
H615   H     0.00201   0.37691   0.55977   0.00000  Uiso   1.00
H616   H     0.05475   0.38732   0.59800   0.00000  Uiso   1.00
O617   O     0.05115   0.36313   0.43568   0.00000  Uiso   1.00
C618   C     0.07824   0.36537   0.38559   0.00000  Uiso   1.00
H619   H     0.07318   0.40077   0.36666   0.00000  Uiso   1.00
H620   H     0.07195   0.66267   0.34918   0.00000  Uiso   1.00
H621   H     0.11409   0.36399   0.39928   0.00000  Uiso   1.00
O622   O     0.44853   0.64119   0.54989   0.00000  Uiso   1.00
C623   C     0.42621   0.64860   0.60594   0.00000  Uiso   1.00
H624   H     0.43186   0.61727   0.63142   0.00000  Uiso   1.00
H625   H     0.38963   0.65116   0.59744   0.00000  Uiso   1.00
H626   H     0.43645   0.35403   0.63464   0.00000  Uiso   1.00
H627   H     0.24378   0.65353   0.42949   0.00000  Uiso   1.00
H628   H     0.25618   0.34647   0.57050   0.00000  Uiso   1.00
H629   H     0.21547   0.46055   0.65023   0.00000  Uiso   1.00
H630   H     0.28452   0.53946   0.34977   0.00000  Uiso   1.00
C631   C     0.74859   0.40002   0.48449   0.00000  Uiso   1.00
C632   C     0.75137   0.59998   0.51551   0.00000  Uiso   1.00
C633   C     0.52631   0.40849   0.45412   0.00000  Uiso   1.00
C634   C     0.97402   0.59606   0.53942   0.00000  Uiso   1.00
C635   C     0.74785   0.34401   0.47591   0.00000  Uiso   1.00
C636   C     0.75211   0.65599   0.52408   0.00000  Uiso   1.00
C637   C     0.66484   0.50301   0.50271   0.00000  Uiso   1.00
C638   C     0.83522   0.49756   0.49736   0.00000  Uiso   1.00
C639   C     0.90564   0.54461   0.51128   0.00000  Uiso   1.00
C640   C     0.59386   0.45767   0.49441   0.00000  Uiso   1.00
C641   C     0.88329   0.49719   0.49204   0.00000  Uiso   1.00
C642   C     0.61680   0.50505   0.50812   0.00000  Uiso   1.00
C643   C     0.90651   0.45063   0.47081   0.00000  Uiso   1.00
C644   C     0.59408   0.55292   0.52049   0.00000  Uiso   1.00
C645   C     0.95405   0.45214   0.47116   0.00000  Uiso   1.00
C646   C     0.54643   0.55239   0.52134   0.00000  Uiso   1.00
C647   C     0.97668   0.50068   0.49703   0.00000  Uiso   1.00
C648   C     0.52353   0.50309   0.50135   0.00000  Uiso   1.00
C649   C     0.95222   0.54715   0.51678   0.00000  Uiso   1.00
C650   C     0.54777   0.45607   0.48414   0.00000  Uiso   1.00
C651   C     0.97888   0.40650   0.44671   0.00000  Uiso   1.00
C652   C     0.52168   0.59957   0.53859   0.00000  Uiso   1.00
Cu653  Cu    0.75501   0.50579   0.56146   0.00000  Uiso   1.00
Cu654  Cu    0.74500   0.49421   0.43854   0.00000  Uiso   1.00
N655   N     0.73745   0.48547   0.34617   0.00000  Uiso   1.00
N656   N     0.76256   0.51453   0.65383   0.00000  Uiso   1.00
O657   O     0.75326   0.42871   0.53992   0.00000  Uiso   1.00
O658   O     0.74675   0.57129   0.46008   0.00000  Uiso   1.00
O659   O     0.74480   0.41892   0.43612   0.00000  Uiso   1.00
O660   O     0.75520   0.58108   0.56388   0.00000  Uiso   1.00
O661   O     0.68936   0.50488   0.55191   0.00000  Uiso   1.00
O662   O     0.81065   0.49512   0.44809   0.00000  Uiso   1.00
O663   O     0.68090   0.49510   0.44810   0.00000  Uiso   1.00
O664   O     0.81910   0.50490   0.55190   0.00000  Uiso   1.00
H665   H     0.88553   0.57940   0.52215   0.00000  Uiso   1.00
H666   H     0.61297   0.42203   0.48837   0.00000  Uiso   1.00
O667   O     0.88255   0.40410   0.44971   0.00000  Uiso   1.00
C668   C     0.87412   0.38154   0.49972   0.00000  Uiso   1.00
H669   H     0.90365   0.38442   0.53166   0.00000  Uiso   1.00
H670   H     0.86572   0.33927   0.48201   0.00000  Uiso   1.00
H671   H     0.84503   0.40030   0.52527   0.00000  Uiso   1.00
O672   O     0.61874   0.59945   0.53564   0.00000  Uiso   1.00
C673   C     0.62863   0.61534   0.48134   0.00000  Uiso   1.00
H674   H     0.64024   0.65694   0.49379   0.00000  Uiso   1.00
H675   H     0.59883   0.61285   0.44978   0.00000  Uiso   1.00
H676   H     0.65608   0.59184   0.45700   0.00000  Uiso   1.00
O677   O     0.95580   0.36443   0.40836   0.00000  Uiso   1.00
C678   C     0.97034   0.64782   0.41329   0.00000  Uiso   1.00
H679   H     0.99273   0.63126   0.37524   0.00000  Uiso   1.00
H680   H     0.98742   0.64836   0.45723   0.00000  Uiso   1.00
H681   H     0.94067   0.62129   0.40945   0.00000  Uiso   1.00
O682   O     0.54527   0.64699   0.54398   0.00000  Uiso   1.00
C683   C     0.52740   0.35777   0.58384   0.00000  Uiso   1.00
H684   H     0.51386   0.34824   0.62550   0.00000  Uiso   1.00
H685   H     0.50201   0.37691   0.55977   0.00000  Uiso   1.00
H686   H     0.55475   0.38732   0.59800   0.00000  Uiso   1.00
O687   O     0.55115   0.36313   0.43568   0.00000  Uiso   1.00
C688   C     0.57824   0.36537   0.38559   0.00000  Uiso   1.00
H689   H     0.57318   0.40077   0.36666   0.00000  Uiso   1.00
H690   H     0.57195   0.66267   0.34918   0.00000  Uiso   1.00
H691   H     0.61409   0.36399   0.39928   0.00000  Uiso   1.00
O692   O     0.94853   0.64119   0.54989   0.00000  Uiso   1.00
C693   C     0.92621   0.64860   0.60594   0.00000  Uiso   1.00
H694   H     0.93186   0.61727   0.63142   0.00000  Uiso   1.00
H695   H     0.88963   0.65116   0.59744   0.00000  Uiso   1.00
H696   H     0.93645   0.35403   0.63464   0.00000  Uiso   1.00
H697   H     0.74378   0.65353   0.42949   0.00000  Uiso   1.00
H698   H     0.75618   0.34647   0.57050   0.00000  Uiso   1.00
H699   H     0.71547   0.46055   0.65023   0.00000  Uiso   1.00
H700   H     0.78452   0.53946   0.34977   0.00000  Uiso   1.00
C701   C     0.24859   0.73335   0.48449   0.00000  Uiso   1.00
C702   C     0.25137   0.93331   0.51551   0.00000  Uiso   1.00
C703   C     0.02631   0.74182   0.45412   0.00000  Uiso   1.00
C704   C     0.47402   0.92940   0.53942   0.00000  Uiso   1.00
C705   C     0.24785   0.67734   0.47591   0.00000  Uiso   1.00
C706   C     0.25211   0.98932   0.52408   0.00000  Uiso   1.00
C707   C     0.16484   0.83634   0.50271   0.00000  Uiso   1.00
C708   C     0.33522   0.83090   0.49736   0.00000  Uiso   1.00
C709   C     0.40564   0.87795   0.51128   0.00000  Uiso   1.00
C710   C     0.09386   0.79100   0.49441   0.00000  Uiso   1.00
C711   C     0.38329   0.83052   0.49204   0.00000  Uiso   1.00
C712   C     0.11680   0.83838   0.50812   0.00000  Uiso   1.00
C713   C     0.40651   0.78396   0.47081   0.00000  Uiso   1.00
C714   C     0.09408   0.88626   0.52049   0.00000  Uiso   1.00
C715   C     0.45405   0.78547   0.47116   0.00000  Uiso   1.00
C716   C     0.04643   0.88573   0.52134   0.00000  Uiso   1.00
C717   C     0.47668   0.83401   0.49703   0.00000  Uiso   1.00
C718   C     0.02353   0.83642   0.50135   0.00000  Uiso   1.00
C719   C     0.45222   0.88048   0.51678   0.00000  Uiso   1.00
C720   C     0.04777   0.78941   0.48414   0.00000  Uiso   1.00
C721   C     0.47888   0.73983   0.44671   0.00000  Uiso   1.00
C722   C     0.02168   0.93290   0.53859   0.00000  Uiso   1.00
Cu723  Cu    0.25501   0.83913   0.56146   0.00000  Uiso   1.00
Cu724  Cu    0.24500   0.82754   0.43854   0.00000  Uiso   1.00
N725   N     0.23745   0.81881   0.34617   0.00000  Uiso   1.00
N726   N     0.26256   0.84786   0.65383   0.00000  Uiso   1.00
O727   O     0.25326   0.76204   0.53992   0.00000  Uiso   1.00
O728   O     0.24675   0.90462   0.46008   0.00000  Uiso   1.00
O729   O     0.24480   0.75226   0.43612   0.00000  Uiso   1.00
O730   O     0.25520   0.91441   0.56388   0.00000  Uiso   1.00
O731   O     0.18936   0.83821   0.55191   0.00000  Uiso   1.00
O732   O     0.31065   0.82845   0.44809   0.00000  Uiso   1.00
O733   O     0.18090   0.82843   0.44810   0.00000  Uiso   1.00
O734   O     0.31910   0.83824   0.55190   0.00000  Uiso   1.00
H735   H     0.38553   0.91273   0.52215   0.00000  Uiso   1.00
H736   H     0.11297   0.75536   0.48837   0.00000  Uiso   1.00
O737   O     0.38255   0.73743   0.44971   0.00000  Uiso   1.00
C738   C     0.37412   0.71487   0.49972   0.00000  Uiso   1.00
H739   H     0.40365   0.71775   0.53166   0.00000  Uiso   1.00
H740   H     0.36572   0.67260   0.48201   0.00000  Uiso   1.00
H741   H     0.34503   0.73363   0.52527   0.00000  Uiso   1.00
O742   O     0.11874   0.93278   0.53564   0.00000  Uiso   1.00
C743   C     0.12863   0.94867   0.48134   0.00000  Uiso   1.00
H744   H     0.14024   0.99028   0.49379   0.00000  Uiso   1.00
H745   H     0.09883   0.94618   0.44978   0.00000  Uiso   1.00
H746   H     0.15608   0.92517   0.45700   0.00000  Uiso   1.00
O747   O     0.45580   0.69777   0.40836   0.00000  Uiso   1.00
C748   C     0.47034   0.98116   0.41329   0.00000  Uiso   1.00
H749   H     0.49273   0.96460   0.37524   0.00000  Uiso   1.00
H750   H     0.48742   0.98170   0.45723   0.00000  Uiso   1.00
H751   H     0.44067   0.95463   0.40945   0.00000  Uiso   1.00
O752   O     0.04527   0.98032   0.54398   0.00000  Uiso   1.00
C753   C     0.02740   0.69111   0.58384   0.00000  Uiso   1.00
H754   H     0.01386   0.68157   0.62550   0.00000  Uiso   1.00
H755   H     0.00201   0.71024   0.55977   0.00000  Uiso   1.00
H756   H     0.05475   0.72066   0.59800   0.00000  Uiso   1.00
O757   O     0.05115   0.69646   0.43568   0.00000  Uiso   1.00
C758   C     0.07824   0.69870   0.38559   0.00000  Uiso   1.00
H759   H     0.07318   0.73410   0.36666   0.00000  Uiso   1.00
H760   H     0.07195   0.99600   0.34918   0.00000  Uiso   1.00
H761   H     0.11409   0.69732   0.39928   0.00000  Uiso   1.00
O762   O     0.44853   0.97452   0.54989   0.00000  Uiso   1.00
C763   C     0.42621   0.98193   0.60594   0.00000  Uiso   1.00
H764   H     0.43186   0.95061   0.63142   0.00000  Uiso   1.00
H765   H     0.38963   0.98449   0.59744   0.00000  Uiso   1.00
H766   H     0.43645   0.68736   0.63464   0.00000  Uiso   1.00
H767   H     0.24378   0.98687   0.42949   0.00000  Uiso   1.00
H768   H     0.25618   0.67980   0.57050   0.00000  Uiso   1.00
H769   H     0.21547   0.79388   0.65023   0.00000  Uiso   1.00
H770   H     0.28452   0.87279   0.34977   0.00000  Uiso   1.00
C771   C     0.74859   0.73335   0.48449   0.00000  Uiso   1.00
C772   C     0.75137   0.93331   0.51551   0.00000  Uiso   1.00
C773   C     0.52631   0.74182   0.45412   0.00000  Uiso   1.00
C774   C     0.97402   0.92940   0.53942   0.00000  Uiso   1.00
C775   C     0.74785   0.67734   0.47591   0.00000  Uiso   1.00
C776   C     0.75211   0.98932   0.52408   0.00000  Uiso   1.00
C777   C     0.66484   0.83634   0.50271   0.00000  Uiso   1.00
C778   C     0.83522   0.83090   0.49736   0.00000  Uiso   1.00
C779   C     0.90564   0.87795   0.51128   0.00000  Uiso   1.00
C780   C     0.59386   0.79100   0.49441   0.00000  Uiso   1.00
C781   C     0.88329   0.83052   0.49204   0.00000  Uiso   1.00
C782   C     0.61680   0.83838   0.50812   0.00000  Uiso   1.00
C783   C     0.90651   0.78396   0.47081   0.00000  Uiso   1.00
C784   C     0.59408   0.88626   0.52049   0.00000  Uiso   1.00
C785   C     0.95405   0.78547   0.47116   0.00000  Uiso   1.00
C786   C     0.54643   0.88573   0.52134   0.00000  Uiso   1.00
C787   C     0.97668   0.83401   0.49703   0.00000  Uiso   1.00
C788   C     0.52353   0.83642   0.50135   0.00000  Uiso   1.00
C789   C     0.95222   0.88048   0.51678   0.00000  Uiso   1.00
C790   C     0.54777   0.78941   0.48414   0.00000  Uiso   1.00
C791   C     0.97888   0.73983   0.44671   0.00000  Uiso   1.00
C792   C     0.52168   0.93290   0.53859   0.00000  Uiso   1.00
Cu793  Cu    0.75501   0.83913   0.56146   0.00000  Uiso   1.00
Cu794  Cu    0.74500   0.82754   0.43854   0.00000  Uiso   1.00
N795   N     0.73745   0.81881   0.34617   0.00000  Uiso   1.00
N796   N     0.76256   0.84786   0.65383   0.00000  Uiso   1.00
O797   O     0.75326   0.76204   0.53992   0.00000  Uiso   1.00
O798   O     0.74675   0.90462   0.46008   0.00000  Uiso   1.00
O799   O     0.74480   0.75226   0.43612   0.00000  Uiso   1.00
O800   O     0.75520   0.91441   0.56388   0.00000  Uiso   1.00
O801   O     0.68936   0.83821   0.55191   0.00000  Uiso   1.00
O802   O     0.81065   0.82845   0.44809   0.00000  Uiso   1.00
O803   O     0.68090   0.82843   0.44810   0.00000  Uiso   1.00
O804   O     0.81910   0.83824   0.55190   0.00000  Uiso   1.00
H805   H     0.88553   0.91273   0.52215   0.00000  Uiso   1.00
H806   H     0.61297   0.75536   0.48837   0.00000  Uiso   1.00
O807   O     0.88255   0.73743   0.44971   0.00000  Uiso   1.00
C808   C     0.87412   0.71487   0.49972   0.00000  Uiso   1.00
H809   H     0.90365   0.71775   0.53166   0.00000  Uiso   1.00
H810   H     0.86572   0.67260   0.48201   0.00000  Uiso   1.00
H811   H     0.84503   0.73363   0.52527   0.00000  Uiso   1.00
O812   O     0.61874   0.93278   0.53564   0.00000  Uiso   1.00
C813   C     0.62863   0.94867   0.48134   0.00000  Uiso   1.00
H814   H     0.64024   0.99028   0.49379   0.00000  Uiso   1.00
H815   H     0.59883   0.94618   0.44978   0.00000  Uiso   1.00
H816   H     0.65608   0.92517   0.45700   0.00000  Uiso   1.00
O817   O     0.95580   0.69777   0.40836   0.00000  Uiso   1.00
C818   C     0.97034   0.98116   0.41329   0.00000  Uiso   1.00
H819   H     0.99273   0.96460   0.37524   0.00000  Uiso   1.00
H820   H     0.98742   0.98170   0.45723   0.00000  Uiso   1.00
H821   H     0.94067   0.95463   0.40945   0.00000  Uiso   1.00
O822   O     0.54527   0.98032   0.54398   0.00000  Uiso   1.00
C823   C     0.52740   0.69111   0.58384   0.00000  Uiso   1.00
H824   H     0.51386   0.68157   0.62550   0.00000  Uiso   1.00
H825   H     0.50201   0.71024   0.55977   0.00000  Uiso   1.00
H826   H     0.55475   0.72066   0.59800   0.00000  Uiso   1.00
O827   O     0.55115   0.69646   0.43568   0.00000  Uiso   1.00
C828   C     0.57824   0.69870   0.38559   0.00000  Uiso   1.00
H829   H     0.57318   0.73410   0.36666   0.00000  Uiso   1.00
H830   H     0.57195   0.99600   0.34918   0.00000  Uiso   1.00
H831   H     0.61409   0.69732   0.39928   0.00000  Uiso   1.00
O832   O     0.94853   0.97452   0.54989   0.00000  Uiso   1.00
C833   C     0.92621   0.98193   0.60594   0.00000  Uiso   1.00
H834   H     0.93186   0.95061   0.63142   0.00000  Uiso   1.00
H835   H     0.88963   0.98449   0.59744   0.00000  Uiso   1.00
H836   H     0.93645   0.68736   0.63464   0.00000  Uiso   1.00
H837   H     0.74378   0.98687   0.42949   0.00000  Uiso   1.00
H838   H     0.75618   0.67980   0.57050   0.00000  Uiso   1.00
H839   H     0.71547   0.79388   0.65023   0.00000  Uiso   1.00
H840   H     0.78452   0.87279   0.34977   0.00000  Uiso   1.00
C841   C     0.24859   0.06669   0.81782   0.00000  Uiso   1.00
C842   C     0.25137   0.26665   0.84884   0.00000  Uiso   1.00
C843   C     0.02631   0.07516   0.78745   0.00000  Uiso   1.00
C844   C     0.47402   0.26273   0.87275   0.00000  Uiso   1.00
C845   C     0.24785   0.01068   0.80925   0.00000  Uiso   1.00
C846   C     0.25211   0.32265   0.85741   0.00000  Uiso   1.00
C847   C     0.16484   0.16968   0.83605   0.00000  Uiso   1.00
C848   C     0.33522   0.16423   0.83069   0.00000  Uiso   1.00
C849   C     0.40564   0.21128   0.84461   0.00000  Uiso   1.00
C850   C     0.09386   0.12433   0.82774   0.00000  Uiso   1.00
C851   C     0.38329   0.16386   0.82537   0.00000  Uiso   1.00
C852   C     0.11680   0.17171   0.84145   0.00000  Uiso   1.00
C853   C     0.40651   0.11729   0.80415   0.00000  Uiso   1.00
C854   C     0.09408   0.21959   0.85382   0.00000  Uiso   1.00
C855   C     0.45405   0.11881   0.80449   0.00000  Uiso   1.00
C856   C     0.04643   0.21906   0.85467   0.00000  Uiso   1.00
C857   C     0.47668   0.16735   0.83036   0.00000  Uiso   1.00
C858   C     0.02353   0.16976   0.83469   0.00000  Uiso   1.00
C859   C     0.45222   0.21381   0.85011   0.00000  Uiso   1.00
C860   C     0.04777   0.12274   0.81747   0.00000  Uiso   1.00
C861   C     0.47888   0.07316   0.78004   0.00000  Uiso   1.00
C862   C     0.02168   0.26624   0.87193   0.00000  Uiso   1.00
Cu863  Cu    0.25501   0.17246   0.89479   0.00000  Uiso   1.00
Cu864  Cu    0.24500   0.16087   0.77187   0.00000  Uiso   1.00
N865   N     0.23745   0.15214   0.67951   0.00000  Uiso   1.00
N866   N     0.26256   0.18119   0.98716   0.00000  Uiso   1.00
O867   O     0.25326   0.09538   0.87326   0.00000  Uiso   1.00
O868   O     0.24675   0.23796   0.79341   0.00000  Uiso   1.00
O869   O     0.24480   0.08559   0.76945   0.00000  Uiso   1.00
O870   O     0.25520   0.24774   0.89721   0.00000  Uiso   1.00
O871   O     0.18936   0.17155   0.88524   0.00000  Uiso   1.00
O872   O     0.31065   0.16179   0.78143   0.00000  Uiso   1.00
O873   O     0.18090   0.16176   0.78143   0.00000  Uiso   1.00
O874   O     0.31910   0.17157   0.88523   0.00000  Uiso   1.00
H875   H     0.38553   0.24607   0.85548   0.00000  Uiso   1.00
H876   H     0.11297   0.08869   0.82170   0.00000  Uiso   1.00
O877   O     0.38255   0.07076   0.78304   0.00000  Uiso   1.00
C878   C     0.37412   0.04820   0.83306   0.00000  Uiso   1.00
H879   H     0.40365   0.05109   0.86500   0.00000  Uiso   1.00
H880   H     0.36572   0.00593   0.81534   0.00000  Uiso   1.00
H881   H     0.34503   0.06697   0.85860   0.00000  Uiso   1.00
O882   O     0.11874   0.26611   0.86897   0.00000  Uiso   1.00
C883   C     0.12863   0.28200   0.81467   0.00000  Uiso   1.00
H884   H     0.14024   0.32361   0.82713   0.00000  Uiso   1.00
H885   H     0.09883   0.27952   0.78311   0.00000  Uiso   1.00
H886   H     0.15608   0.25851   0.79033   0.00000  Uiso   1.00
O887   O     0.45580   0.03110   0.74170   0.00000  Uiso   1.00
C888   C     0.47034   0.31449   0.74662   0.00000  Uiso   1.00
H889   H     0.49273   0.29793   0.70858   0.00000  Uiso   1.00
H890   H     0.48742   0.31503   0.79056   0.00000  Uiso   1.00
H891   H     0.44067   0.28796   0.74278   0.00000  Uiso   1.00
O892   O     0.04527   0.31366   0.87731   0.00000  Uiso   1.00
C893   C     0.02740   0.02444   0.91718   0.00000  Uiso   1.00
H894   H     0.01386   0.01490   0.95883   0.00000  Uiso   1.00
H895   H     0.00201   0.04357   0.89310   0.00000  Uiso   1.00
H896   H     0.05475   0.05399   0.93133   0.00000  Uiso   1.00
O897   O     0.05115   0.02979   0.76901   0.00000  Uiso   1.00
C898   C     0.07824   0.03204   0.71893   0.00000  Uiso   1.00
H899   H     0.07318   0.06743   0.69999   0.00000  Uiso   1.00
H900   H     0.07195   0.32933   0.68252   0.00000  Uiso   1.00
H901   H     0.11409   0.03066   0.73262   0.00000  Uiso   1.00
O902   O     0.44853   0.30785   0.88322   0.00000  Uiso   1.00
C903   C     0.42621   0.31527   0.93927   0.00000  Uiso   1.00
H904   H     0.43186   0.28394   0.96475   0.00000  Uiso   1.00
H905   H     0.38963   0.31783   0.93077   0.00000  Uiso   1.00
H906   H     0.43645   0.02069   0.96798   0.00000  Uiso   1.00
H907   H     0.24378   0.32020   0.76283   0.00000  Uiso   1.00
H908   H     0.25618   0.01313   0.90384   0.00000  Uiso   1.00
H909   H     0.21547   0.12721   0.98357   0.00000  Uiso   1.00
H910   H     0.28452   0.20612   0.68310   0.00000  Uiso   1.00
C911   C     0.74859   0.06669   0.81782   0.00000  Uiso   1.00
C912   C     0.75137   0.26665   0.84884   0.00000  Uiso   1.00
C913   C     0.52631   0.07516   0.78745   0.00000  Uiso   1.00
C914   C     0.97402   0.26273   0.87275   0.00000  Uiso   1.00
C915   C     0.74785   0.01068   0.80925   0.00000  Uiso   1.00
C916   C     0.75211   0.32265   0.85741   0.00000  Uiso   1.00
C917   C     0.66484   0.16968   0.83605   0.00000  Uiso   1.00
C918   C     0.83522   0.16423   0.83069   0.00000  Uiso   1.00
C919   C     0.90564   0.21128   0.84461   0.00000  Uiso   1.00
C920   C     0.59386   0.12433   0.82774   0.00000  Uiso   1.00
C921   C     0.88329   0.16386   0.82537   0.00000  Uiso   1.00
C922   C     0.61680   0.17171   0.84145   0.00000  Uiso   1.00
C923   C     0.90651   0.11729   0.80415   0.00000  Uiso   1.00
C924   C     0.59408   0.21959   0.85382   0.00000  Uiso   1.00
C925   C     0.95405   0.11881   0.80449   0.00000  Uiso   1.00
C926   C     0.54643   0.21906   0.85467   0.00000  Uiso   1.00
C927   C     0.97668   0.16735   0.83036   0.00000  Uiso   1.00
C928   C     0.52353   0.16976   0.83469   0.00000  Uiso   1.00
C929   C     0.95222   0.21381   0.85011   0.00000  Uiso   1.00
C930   C     0.54777   0.12274   0.81747   0.00000  Uiso   1.00
C931   C     0.97888   0.07316   0.78004   0.00000  Uiso   1.00
C932   C     0.52168   0.26624   0.87193   0.00000  Uiso   1.00
Cu933  Cu    0.75501   0.17246   0.89479   0.00000  Uiso   1.00
Cu934  Cu    0.74500   0.16087   0.77187   0.00000  Uiso   1.00
N935   N     0.73745   0.15214   0.67951   0.00000  Uiso   1.00
N936   N     0.76256   0.18119   0.98716   0.00000  Uiso   1.00
O937   O     0.75326   0.09538   0.87326   0.00000  Uiso   1.00
O938   O     0.74675   0.23796   0.79341   0.00000  Uiso   1.00
O939   O     0.74480   0.08559   0.76945   0.00000  Uiso   1.00
O940   O     0.75520   0.24774   0.89721   0.00000  Uiso   1.00
O941   O     0.68936   0.17155   0.88524   0.00000  Uiso   1.00
O942   O     0.81065   0.16179   0.78143   0.00000  Uiso   1.00
O943   O     0.68090   0.16176   0.78143   0.00000  Uiso   1.00
O944   O     0.81910   0.17157   0.88523   0.00000  Uiso   1.00
H945   H     0.88553   0.24607   0.85548   0.00000  Uiso   1.00
H946   H     0.61297   0.08869   0.82170   0.00000  Uiso   1.00
O947   O     0.88255   0.07076   0.78304   0.00000  Uiso   1.00
C948   C     0.87412   0.04820   0.83306   0.00000  Uiso   1.00
H949   H     0.90365   0.05109   0.86500   0.00000  Uiso   1.00
H950   H     0.86572   0.00593   0.81534   0.00000  Uiso   1.00
H951   H     0.84503   0.06697   0.85860   0.00000  Uiso   1.00
O952   O     0.61874   0.26611   0.86897   0.00000  Uiso   1.00
C953   C     0.62863   0.28200   0.81467   0.00000  Uiso   1.00
H954   H     0.64024   0.32361   0.82713   0.00000  Uiso   1.00
H955   H     0.59883   0.27952   0.78311   0.00000  Uiso   1.00
H956   H     0.65608   0.25851   0.79033   0.00000  Uiso   1.00
O957   O     0.95580   0.03110   0.74170   0.00000  Uiso   1.00
C958   C     0.97034   0.31449   0.74662   0.00000  Uiso   1.00
H959   H     0.99273   0.29793   0.70858   0.00000  Uiso   1.00
H960   H     0.98742   0.31503   0.79056   0.00000  Uiso   1.00
H961   H     0.94067   0.28796   0.74278   0.00000  Uiso   1.00
O962   O     0.54527   0.31366   0.87731   0.00000  Uiso   1.00
C963   C     0.52740   0.02444   0.91718   0.00000  Uiso   1.00
H964   H     0.51386   0.01490   0.95883   0.00000  Uiso   1.00
H965   H     0.50201   0.04357   0.89310   0.00000  Uiso   1.00
H966   H     0.55475   0.05399   0.93133   0.00000  Uiso   1.00
O967   O     0.55115   0.02979   0.76901   0.00000  Uiso   1.00
C968   C     0.57824   0.03204   0.71893   0.00000  Uiso   1.00
H969   H     0.57318   0.06743   0.69999   0.00000  Uiso   1.00
H970   H     0.57195   0.32933   0.68252   0.00000  Uiso   1.00
H971   H     0.61409   0.03066   0.73262   0.00000  Uiso   1.00
O972   O     0.94853   0.30785   0.88322   0.00000  Uiso   1.00
C973   C     0.92621   0.31527   0.93927   0.00000  Uiso   1.00
H974   H     0.93186   0.28394   0.96475   0.00000  Uiso   1.00
H975   H     0.88963   0.31783   0.93077   0.00000  Uiso   1.00
H976   H     0.93645   0.02069   0.96798   0.00000  Uiso   1.00
H977   H     0.74378   0.32020   0.76283   0.00000  Uiso   1.00
H978   H     0.75618   0.01313   0.90384   0.00000  Uiso   1.00
H979   H     0.71547   0.12721   0.98357   0.00000  Uiso   1.00
H980   H     0.78452   0.20612   0.68310   0.00000  Uiso   1.00
C981   C     0.24859   0.40002   0.81782   0.00000  Uiso   1.00
C982   C     0.25137   0.59998   0.84884   0.00000  Uiso   1.00
C983   C     0.02631   0.40849   0.78745   0.00000  Uiso   1.00
C984   C     0.47402   0.59606   0.87275   0.00000  Uiso   1.00
C985   C     0.24785   0.34401   0.80925   0.00000  Uiso   1.00
C986   C     0.25211   0.65599   0.85741   0.00000  Uiso   1.00
C987   C     0.16484   0.50301   0.83605   0.00000  Uiso   1.00
C988   C     0.33522   0.49756   0.83069   0.00000  Uiso   1.00
C989   C     0.40564   0.54461   0.84461   0.00000  Uiso   1.00
C990   C     0.09386   0.45767   0.82774   0.00000  Uiso   1.00
C991   C     0.38329   0.49719   0.82537   0.00000  Uiso   1.00
C992   C     0.11680   0.50505   0.84145   0.00000  Uiso   1.00
C993   C     0.40651   0.45063   0.80415   0.00000  Uiso   1.00
C994   C     0.09408   0.55292   0.85382   0.00000  Uiso   1.00
C995   C     0.45405   0.45214   0.80449   0.00000  Uiso   1.00
C996   C     0.04643   0.55239   0.85467   0.00000  Uiso   1.00
C997   C     0.47668   0.50068   0.83036   0.00000  Uiso   1.00
C998   C     0.02353   0.50309   0.83469   0.00000  Uiso   1.00
C999   C     0.45222   0.54715   0.85011   0.00000  Uiso   1.00
C1000  C     0.04777   0.45607   0.81747   0.00000  Uiso   1.00
C1001  C     0.47888   0.40650   0.78004   0.00000  Uiso   1.00
C1002  C     0.02168   0.59957   0.87193   0.00000  Uiso   1.00
Cu1003 Cu    0.25501   0.50579   0.89479   0.00000  Uiso   1.00
Cu1004 Cu    0.24500   0.49421   0.77187   0.00000  Uiso   1.00
N1005  N     0.23745   0.48547   0.67951   0.00000  Uiso   1.00
N1006  N     0.26256   0.51453   0.98716   0.00000  Uiso   1.00
O1007  O     0.25326   0.42871   0.87326   0.00000  Uiso   1.00
O1008  O     0.24675   0.57129   0.79341   0.00000  Uiso   1.00
O1009  O     0.24480   0.41892   0.76945   0.00000  Uiso   1.00
O1010  O     0.25520   0.58108   0.89721   0.00000  Uiso   1.00
O1011  O     0.18936   0.50488   0.88524   0.00000  Uiso   1.00
O1012  O     0.31065   0.49512   0.78143   0.00000  Uiso   1.00
O1013  O     0.18090   0.49510   0.78143   0.00000  Uiso   1.00
O1014  O     0.31910   0.50490   0.88523   0.00000  Uiso   1.00
H1015  H     0.38553   0.57940   0.85548   0.00000  Uiso   1.00
H1016  H     0.11297   0.42203   0.82170   0.00000  Uiso   1.00
O1017  O     0.38255   0.40410   0.78304   0.00000  Uiso   1.00
C1018  C     0.37412   0.38154   0.83306   0.00000  Uiso   1.00
H1019  H     0.40365   0.38442   0.86500   0.00000  Uiso   1.00
H1020  H     0.36572   0.33927   0.81534   0.00000  Uiso   1.00
H1021  H     0.34503   0.40030   0.85860   0.00000  Uiso   1.00
O1022  O     0.11874   0.59945   0.86897   0.00000  Uiso   1.00
C1023  C     0.12863   0.61534   0.81467   0.00000  Uiso   1.00
H1024  H     0.14024   0.65694   0.82713   0.00000  Uiso   1.00
H1025  H     0.09883   0.61285   0.78311   0.00000  Uiso   1.00
H1026  H     0.15608   0.59184   0.79033   0.00000  Uiso   1.00
O1027  O     0.45580   0.36443   0.74170   0.00000  Uiso   1.00
C1028  C     0.47034   0.64782   0.74662   0.00000  Uiso   1.00
H1029  H     0.49273   0.63126   0.70858   0.00000  Uiso   1.00
H1030  H     0.48742   0.64836   0.79056   0.00000  Uiso   1.00
H1031  H     0.44067   0.62129   0.74278   0.00000  Uiso   1.00
O1032  O     0.04527   0.64699   0.87731   0.00000  Uiso   1.00
C1033  C     0.02740   0.35777   0.91718   0.00000  Uiso   1.00
H1034  H     0.01386   0.34824   0.95883   0.00000  Uiso   1.00
H1035  H     0.00201   0.37691   0.89310   0.00000  Uiso   1.00
H1036  H     0.05475   0.38732   0.93133   0.00000  Uiso   1.00
O1037  O     0.05115   0.36313   0.76901   0.00000  Uiso   1.00
C1038  C     0.07824   0.36537   0.71893   0.00000  Uiso   1.00
H1039  H     0.07318   0.40077   0.69999   0.00000  Uiso   1.00
H1040  H     0.07195   0.66267   0.68252   0.00000  Uiso   1.00
H1041  H     0.11409   0.36399   0.73262   0.00000  Uiso   1.00
O1042  O     0.44853   0.64119   0.88322   0.00000  Uiso   1.00
C1043  C     0.42621   0.64860   0.93927   0.00000  Uiso   1.00
H1044  H     0.43186   0.61727   0.96475   0.00000  Uiso   1.00
H1045  H     0.38963   0.65116   0.93077   0.00000  Uiso   1.00
H1046  H     0.43645   0.35403   0.96798   0.00000  Uiso   1.00
H1047  H     0.24378   0.65353   0.76283   0.00000  Uiso   1.00
H1048  H     0.25618   0.34647   0.90384   0.00000  Uiso   1.00
H1049  H     0.21547   0.46055   0.98357   0.00000  Uiso   1.00
H1050  H     0.28452   0.53946   0.68310   0.00000  Uiso   1.00
C1051  C     0.74859   0.40002   0.81782   0.00000  Uiso   1.00
C1052  C     0.75137   0.59998   0.84884   0.00000  Uiso   1.00
C1053  C     0.52631   0.40849   0.78745   0.00000  Uiso   1.00
C1054  C     0.97402   0.59606   0.87275   0.00000  Uiso   1.00
C1055  C     0.74785   0.34401   0.80925   0.00000  Uiso   1.00
C1056  C     0.75211   0.65599   0.85741   0.00000  Uiso   1.00
C1057  C     0.66484   0.50301   0.83605   0.00000  Uiso   1.00
C1058  C     0.83522   0.49756   0.83069   0.00000  Uiso   1.00
C1059  C     0.90564   0.54461   0.84461   0.00000  Uiso   1.00
C1060  C     0.59386   0.45767   0.82774   0.00000  Uiso   1.00
C1061  C     0.88329   0.49719   0.82537   0.00000  Uiso   1.00
C1062  C     0.61680   0.50505   0.84145   0.00000  Uiso   1.00
C1063  C     0.90651   0.45063   0.80415   0.00000  Uiso   1.00
C1064  C     0.59408   0.55292   0.85382   0.00000  Uiso   1.00
C1065  C     0.95405   0.45214   0.80449   0.00000  Uiso   1.00
C1066  C     0.54643   0.55239   0.85467   0.00000  Uiso   1.00
C1067  C     0.97668   0.50068   0.83036   0.00000  Uiso   1.00
C1068  C     0.52353   0.50309   0.83469   0.00000  Uiso   1.00
C1069  C     0.95222   0.54715   0.85011   0.00000  Uiso   1.00
C1070  C     0.54777   0.45607   0.81747   0.00000  Uiso   1.00
C1071  C     0.97888   0.40650   0.78004   0.00000  Uiso   1.00
C1072  C     0.52168   0.59957   0.87193   0.00000  Uiso   1.00
Cu1073 Cu    0.75501   0.50579   0.89479   0.00000  Uiso   1.00
Cu1074 Cu    0.74500   0.49421   0.77187   0.00000  Uiso   1.00
N1075  N     0.73745   0.48547   0.67951   0.00000  Uiso   1.00
N1076  N     0.76256   0.51453   0.98716   0.00000  Uiso   1.00
O1077  O     0.75326   0.42871   0.87326   0.00000  Uiso   1.00
O1078  O     0.74675   0.57129   0.79341   0.00000  Uiso   1.00
O1079  O     0.74480   0.41892   0.76945   0.00000  Uiso   1.00
O1080  O     0.75520   0.58108   0.89721   0.00000  Uiso   1.00
O1081  O     0.68936   0.50488   0.88524   0.00000  Uiso   1.00
O1082  O     0.81065   0.49512   0.78143   0.00000  Uiso   1.00
O1083  O     0.68090   0.49510   0.78143   0.00000  Uiso   1.00
O1084  O     0.81910   0.50490   0.88523   0.00000  Uiso   1.00
H1085  H     0.88553   0.57940   0.85548   0.00000  Uiso   1.00
H1086  H     0.61297   0.42203   0.82170   0.00000  Uiso   1.00
O1087  O     0.88255   0.40410   0.78304   0.00000  Uiso   1.00
C1088  C     0.87412   0.38154   0.83306   0.00000  Uiso   1.00
H1089  H     0.90365   0.38442   0.86500   0.00000  Uiso   1.00
H1090  H     0.86572   0.33927   0.81534   0.00000  Uiso   1.00
H1091  H     0.84503   0.40030   0.85860   0.00000  Uiso   1.00
O1092  O     0.61874   0.59945   0.86897   0.00000  Uiso   1.00
C1093  C     0.62863   0.61534   0.81467   0.00000  Uiso   1.00
H1094  H     0.64024   0.65694   0.82713   0.00000  Uiso   1.00
H1095  H     0.59883   0.61285   0.78311   0.00000  Uiso   1.00
H1096  H     0.65608   0.59184   0.79033   0.00000  Uiso   1.00
O1097  O     0.95580   0.36443   0.74170   0.00000  Uiso   1.00
C1098  C     0.97034   0.64782   0.74662   0.00000  Uiso   1.00
H1099  H     0.99273   0.63126   0.70858   0.00000  Uiso   1.00
H1100  H     0.98742   0.64836   0.79056   0.00000  Uiso   1.00
H1101  H     0.94067   0.62129   0.74278   0.00000  Uiso   1.00
O1102  O     0.54527   0.64699   0.87731   0.00000  Uiso   1.00
C1103  C     0.52740   0.35777   0.91718   0.00000  Uiso   1.00
H1104  H     0.51386   0.34824   0.95883   0.00000  Uiso   1.00
H1105  H     0.50201   0.37691   0.89310   0.00000  Uiso   1.00
H1106  H     0.55475   0.38732   0.93133   0.00000  Uiso   1.00
O1107  O     0.55115   0.36313   0.76901   0.00000  Uiso   1.00
C1108  C     0.57824   0.36537   0.71893   0.00000  Uiso   1.00
H1109  H     0.57318   0.40077   0.69999   0.00000  Uiso   1.00
H1110  H     0.57195   0.66267   0.68252   0.00000  Uiso   1.00
H1111  H     0.61409   0.36399   0.73262   0.00000  Uiso   1.00
O1112  O     0.94853   0.64119   0.88322   0.00000  Uiso   1.00
C1113  C     0.92621   0.64860   0.93927   0.00000  Uiso   1.00
H1114  H     0.93186   0.61727   0.96475   0.00000  Uiso   1.00
H1115  H     0.88963   0.65116   0.93077   0.00000  Uiso   1.00
H1116  H     0.93645   0.35403   0.96798   0.00000  Uiso   1.00
H1117  H     0.74378   0.65353   0.76283   0.00000  Uiso   1.00
H1118  H     0.75618   0.34647   0.90384   0.00000  Uiso   1.00
H1119  H     0.71547   0.46055   0.98357   0.00000  Uiso   1.00
H1120  H     0.78452   0.53946   0.68310   0.00000  Uiso   1.00
C1121  C     0.24859   0.73335   0.81782   0.00000  Uiso   1.00
C1122  C     0.25137   0.93331   0.84884   0.00000  Uiso   1.00
C1123  C     0.02631   0.74182   0.78745   0.00000  Uiso   1.00
C1124  C     0.47402   0.92940   0.87275   0.00000  Uiso   1.00
C1125  C     0.24785   0.67734   0.80925   0.00000  Uiso   1.00
C1126  C     0.25211   0.98932   0.85741   0.00000  Uiso   1.00
C1127  C     0.16484   0.83634   0.83605   0.00000  Uiso   1.00
C1128  C     0.33522   0.83090   0.83069   0.00000  Uiso   1.00
C1129  C     0.40564   0.87795   0.84461   0.00000  Uiso   1.00
C1130  C     0.09386   0.79100   0.82774   0.00000  Uiso   1.00
C1131  C     0.38329   0.83052   0.82537   0.00000  Uiso   1.00
C1132  C     0.11680   0.83838   0.84145   0.00000  Uiso   1.00
C1133  C     0.40651   0.78396   0.80415   0.00000  Uiso   1.00
C1134  C     0.09408   0.88626   0.85382   0.00000  Uiso   1.00
C1135  C     0.45405   0.78547   0.80449   0.00000  Uiso   1.00
C1136  C     0.04643   0.88573   0.85467   0.00000  Uiso   1.00
C1137  C     0.47668   0.83401   0.83036   0.00000  Uiso   1.00
C1138  C     0.02353   0.83642   0.83469   0.00000  Uiso   1.00
C1139  C     0.45222   0.88048   0.85011   0.00000  Uiso   1.00
C1140  C     0.04777   0.78941   0.81747   0.00000  Uiso   1.00
C1141  C     0.47888   0.73983   0.78004   0.00000  Uiso   1.00
C1142  C     0.02168   0.93290   0.87193   0.00000  Uiso   1.00
Cu1143 Cu    0.25501   0.83913   0.89479   0.00000  Uiso   1.00
Cu1144 Cu    0.24500   0.82754   0.77187   0.00000  Uiso   1.00
N1145  N     0.23745   0.81881   0.67951   0.00000  Uiso   1.00
N1146  N     0.26256   0.84786   0.98716   0.00000  Uiso   1.00
O1147  O     0.25326   0.76204   0.87326   0.00000  Uiso   1.00
O1148  O     0.24675   0.90462   0.79341   0.00000  Uiso   1.00
O1149  O     0.24480   0.75226   0.76945   0.00000  Uiso   1.00
O1150  O     0.25520   0.91441   0.89721   0.00000  Uiso   1.00
O1151  O     0.18936   0.83821   0.88524   0.00000  Uiso   1.00
O1152  O     0.31065   0.82845   0.78143   0.00000  Uiso   1.00
O1153  O     0.18090   0.82843   0.78143   0.00000  Uiso   1.00
O1154  O     0.31910   0.83824   0.88523   0.00000  Uiso   1.00
H1155  H     0.38553   0.91273   0.85548   0.00000  Uiso   1.00
H1156  H     0.11297   0.75536   0.82170   0.00000  Uiso   1.00
O1157  O     0.38255   0.73743   0.78304   0.00000  Uiso   1.00
C1158  C     0.37412   0.71487   0.83306   0.00000  Uiso   1.00
H1159  H     0.40365   0.71775   0.86500   0.00000  Uiso   1.00
H1160  H     0.36572   0.67260   0.81534   0.00000  Uiso   1.00
H1161  H     0.34503   0.73363   0.85860   0.00000  Uiso   1.00
O1162  O     0.11874   0.93278   0.86897   0.00000  Uiso   1.00
C1163  C     0.12863   0.94867   0.81467   0.00000  Uiso   1.00
H1164  H     0.14024   0.99028   0.82713   0.00000  Uiso   1.00
H1165  H     0.09883   0.94618   0.78311   0.00000  Uiso   1.00
H1166  H     0.15608   0.92517   0.79033   0.00000  Uiso   1.00
O1167  O     0.45580   0.69777   0.74170   0.00000  Uiso   1.00
C1168  C     0.47034   0.98116   0.74662   0.00000  Uiso   1.00
H1169  H     0.49273   0.96460   0.70858   0.00000  Uiso   1.00
H1170  H     0.48742   0.98170   0.79056   0.00000  Uiso   1.00
H1171  H     0.44067   0.95463   0.74278   0.00000  Uiso   1.00
O1172  O     0.04527   0.98032   0.87731   0.00000  Uiso   1.00
C1173  C     0.02740   0.69111   0.91718   0.00000  Uiso   1.00
H1174  H     0.01386   0.68157   0.95883   0.00000  Uiso   1.00
H1175  H     0.00201   0.71024   0.89310   0.00000  Uiso   1.00
H1176  H     0.05475   0.72066   0.93133   0.00000  Uiso   1.00
O1177  O     0.05115   0.69646   0.76901   0.00000  Uiso   1.00
C1178  C     0.07824   0.69870   0.71893   0.00000  Uiso   1.00
H1179  H     0.07318   0.73410   0.69999   0.00000  Uiso   1.00
H1180  H     0.07195   0.99600   0.68252   0.00000  Uiso   1.00
H1181  H     0.11409   0.69732   0.73262   0.00000  Uiso   1.00
O1182  O     0.44853   0.97452   0.88322   0.00000  Uiso   1.00
C1183  C     0.42621   0.98193   0.93927   0.00000  Uiso   1.00
H1184  H     0.43186   0.95061   0.96475   0.00000  Uiso   1.00
H1185  H     0.38963   0.98449   0.93077   0.00000  Uiso   1.00
H1186  H     0.43645   0.68736   0.96798   0.00000  Uiso   1.00
H1187  H     0.24378   0.98687   0.76283   0.00000  Uiso   1.00
H1188  H     0.25618   0.67980   0.90384   0.00000  Uiso   1.00
H1189  H     0.21547   0.79388   0.98357   0.00000  Uiso   1.00
H1190  H     0.28452   0.87279   0.68310   0.00000  Uiso   1.00
C1191  C     0.74859   0.73335   0.81782   0.00000  Uiso   1.00
C1192  C     0.75137   0.93331   0.84884   0.00000  Uiso   1.00
C1193  C     0.52631   0.74182   0.78745   0.00000  Uiso   1.00
C1194  C     0.97402   0.92940   0.87275   0.00000  Uiso   1.00
C1195  C     0.74785   0.67734   0.80925   0.00000  Uiso   1.00
C1196  C     0.75211   0.98932   0.85741   0.00000  Uiso   1.00
C1197  C     0.66484   0.83634   0.83605   0.00000  Uiso   1.00
C1198  C     0.83522   0.83090   0.83069   0.00000  Uiso   1.00
C1199  C     0.90564   0.87795   0.84461   0.00000  Uiso   1.00
C1200  C     0.59386   0.79100   0.82774   0.00000  Uiso   1.00
C1201  C     0.88329   0.83052   0.82537   0.00000  Uiso   1.00
C1202  C     0.61680   0.83838   0.84145   0.00000  Uiso   1.00
C1203  C     0.90651   0.78396   0.80415   0.00000  Uiso   1.00
C1204  C     0.59408   0.88626   0.85382   0.00000  Uiso   1.00
C1205  C     0.95405   0.78547   0.80449   0.00000  Uiso   1.00
C1206  C     0.54643   0.88573   0.85467   0.00000  Uiso   1.00
C1207  C     0.97668   0.83401   0.83036   0.00000  Uiso   1.00
C1208  C     0.52353   0.83642   0.83469   0.00000  Uiso   1.00
C1209  C     0.95222   0.88048   0.85011   0.00000  Uiso   1.00
C1210  C     0.54777   0.78941   0.81747   0.00000  Uiso   1.00
C1211  C     0.97888   0.73983   0.78004   0.00000  Uiso   1.00
C1212  C     0.52168   0.93290   0.87193   0.00000  Uiso   1.00
Cu1213 Cu    0.75501   0.83913   0.89479   0.00000  Uiso   1.00
Cu1214 Cu    0.74500   0.82754   0.77187   0.00000  Uiso   1.00
N1215  N     0.73745   0.81881   0.67951   0.00000  Uiso   1.00
N1216  N     0.76256   0.84786   0.98716   0.00000  Uiso   1.00
O1217  O     0.75326   0.76204   0.87326   0.00000  Uiso   1.00
O1218  O     0.74675   0.90462   0.79341   0.00000  Uiso   1.00
O1219  O     0.74480   0.75226   0.76945   0.00000  Uiso   1.00
O1220  O     0.75520   0.91441   0.89721   0.00000  Uiso   1.00
O1221  O     0.68936   0.83821   0.88524   0.00000  Uiso   1.00
O1222  O     0.81065   0.82845   0.78143   0.00000  Uiso   1.00
O1223  O     0.68090   0.82843   0.78143   0.00000  Uiso   1.00
O1224  O     0.81910   0.83824   0.88523   0.00000  Uiso   1.00
H1225  H     0.88553   0.91273   0.85548   0.00000  Uiso   1.00
H1226  H     0.61297   0.75536   0.82170   0.00000  Uiso   1.00
O1227  O     0.88255   0.73743   0.78304   0.00000  Uiso   1.00
C1228  C     0.87412   0.71487   0.83306   0.00000  Uiso   1.00
H1229  H     0.90365   0.71775   0.86500   0.00000  Uiso   1.00
H1230  H     0.86572   0.67260   0.81534   0.00000  Uiso   1.00
H1231  H     0.84503   0.73363   0.85860   0.00000  Uiso   1.00
O1232  O     0.61874   0.93278   0.86897   0.00000  Uiso   1.00
C1233  C     0.62863   0.94867   0.81467   0.00000  Uiso   1.00
H1234  H     0.64024   0.99028   0.82713   0.00000  Uiso   1.00
H1235  H     0.59883   0.94618   0.78311   0.00000  Uiso   1.00
H1236  H     0.65608   0.92517   0.79033   0.00000  Uiso   1.00
O1237  O     0.95580   0.69777   0.74170   0.00000  Uiso   1.00
C1238  C     0.97034   0.98116   0.74662   0.00000  Uiso   1.00
H1239  H     0.99273   0.96460   0.70858   0.00000  Uiso   1.00
H1240  H     0.98742   0.98170   0.79056   0.00000  Uiso   1.00
H1241  H     0.94067   0.95463   0.74278   0.00000  Uiso   1.00
O1242  O     0.54527   0.98032   0.87731   0.00000  Uiso   1.00
C1243  C     0.52740   0.69111   0.91718   0.00000  Uiso   1.00
H1244  H     0.51386   0.68157   0.95883   0.00000  Uiso   1.00
H1245  H     0.50201   0.71024   0.89310   0.00000  Uiso   1.00
H1246  H     0.55475   0.72066   0.93133   0.00000  Uiso   1.00
O1247  O     0.55115   0.69646   0.76901   0.00000  Uiso   1.00
C1248  C     0.57824   0.69870   0.71893   0.00000  Uiso   1.00
H1249  H     0.57318   0.73410   0.69999   0.00000  Uiso   1.00
H1250  H     0.57195   0.99600   0.68252   0.00000  Uiso   1.00
H1251  H     0.61409   0.69732   0.73262   0.00000  Uiso   1.00
O1252  O     0.94853   0.97452   0.88322   0.00000  Uiso   1.00
C1253  C     0.92621   0.98193   0.93927   0.00000  Uiso   1.00
H1254  H     0.93186   0.95061   0.96475   0.00000  Uiso   1.00
H1255  H     0.88963   0.98449   0.93077   0.00000  Uiso   1.00
H1256  H     0.93645   0.68736   0.96798   0.00000  Uiso   1.00
H1257  H     0.74378   0.98687   0.76283   0.00000  Uiso   1.00
H1258  H     0.75618   0.67980   0.90384   0.00000  Uiso   1.00
H1259  H     0.71547   0.79388   0.98357   0.00000  Uiso   1.00
H1260  H     0.78452   0.87279   0.68310   0.00000  Uiso   1.00
loop_
_geom_bond_atom_site_label_1
_geom_bond_atom_site_label_2
_geom_bond_distance
_geom_bond_site_symmetry_2
_ccdc_geom_bond_type
C1     O29     1.295   .     A
C1     C5      1.433   .     S
C1     O27     1.300   .     A
C2     O30     1.295   .     A
C2     O28     1.300   .     A
C2     C6      1.433   .     S
C3     C20     1.411   .     A
C3     O57     1.392   .     S
C3     C91     1.420   1_455 S
C4     O62     1.388   .     S
C4     C19     1.410   .     A
C4     C92     1.426   .     S
C5     C286    1.330   1_545 S
C5     H347    1.087   1_545 S
C6     C145    1.330   .     S
C6     H208    1.087   .     S
C7     O33     1.302   .     A
C7     C12     1.443   .     S
C7     O31     1.299   .     A
C8     O34     1.302   .     A
C8     C11     1.443   .     S
C8     O32     1.299   .     A
C9     C11     1.376   .     A
C9     H35     1.079   .     S
C9     C19     1.392   .     A
C10    H36     1.081   .     S
C10    C12     1.378   .     A
C10    C20     1.387   .     A
C11    C13     1.399   .     A
C12    C14     1.404   .     A
C13    O37     1.385   .     S
C13    C15     1.419   .     A
C14    O42     1.385   .     S
C14    C16     1.423   .     A
C15    C17     1.425   .     A
C15    C21     1.419   .     A
C16    C22     1.425   .     A
C16    C18     1.426   .     A
C17    C19     1.412   .     A
C17    C88     1.399   .     S
C18    C20     1.414   .     A
C18    C87     1.399   1_455 S
C21    O47     1.395   .     S
C21    C73     1.420   .     S
C22    O52     1.400   .     S
C22    C74     1.426   1_455 S
Cu23   Cu24    2.714   .     S
Cu23   O27     1.962   .     S
Cu23   O34     1.931   .     S
Cu23   O30     1.957   .     S
Cu23   N26     2.040   .     S
Cu23   O31     1.965   .     S
Cu24   O33     1.931   .     S
Cu24   N25     2.040   .     S
Cu24   O28     1.962   .     S
Cu24   O32     1.965   .     S
Cu24   O29     1.957   .     S
N25    N866    1.299   1_554 S
N25    H909    1.029   1_554 S
N26    N445    1.299   .     S
N26    H490    1.029   .     S
O37    C38     1.411   .     S
C38    H40     1.109   .     S
C38    H41     1.109   .     S
C38    H39     1.112   .     S
O42    C43     1.413   .     S
C43    H45     1.114   .     S
C43    H44     1.109   .     S
C43    H46     1.108   .     S
O47    C328    1.407   1_545 S
C48    H50     1.095   .     S
C48    H49     1.110   .     S
C48    H51     1.109   .     S
C48    O187    1.407   .     S
O52    C193    1.407   .     S
C53    H56     1.107   .     S
C53    H54     1.108   .     S
C53    H55     1.107   .     S
C53    O332    1.407   1_545 S
O57    C58     1.415   .     S
C58    H61     1.109   .     S
C58    H59     1.114   .     S
C58    H340    1.107   1_545 S
H60    C198    1.107   .     S
O62    C63     1.415   .     S
C63    H65     1.109   .     S
C63    H64     1.113   .     S
C63    H206    1.105   .     S
H66    C343    1.105   1_545 S
H67    C145    1.087   .     S
H68    C286    1.087   1_545 S
H69    N445    1.029   .     S
H70    N866    1.029   1_554 S
C71    O99     1.295   .     A
C71    C75     1.433   .     S
C71    O97     1.300   .     A
C72    O100    1.295   .     A
C72    O98     1.300   .     A
C72    C76     1.433   .     S
C73    C90     1.411   .     A
C73    O127    1.392   .     S
C74    O132    1.388   .     S
C74    C89     1.410   .     A
C74    C22     1.426   1_655 S
C75    C356    1.330   1_545 S
C75    H417    1.087   1_545 S
C76    C215    1.330   .     S
C76    H278    1.087   .     S
C77    O103    1.302   .     A
C77    C82     1.443   .     S
C77    O101    1.299   .     A
C78    O104    1.302   .     A
C78    C81     1.443   .     S
C78    O102    1.299   .     A
C79    C81     1.376   .     A
C79    H105    1.079   .     S
C79    C89     1.392   .     A
C80    H106    1.081   .     S
C80    C82     1.378   .     A
C80    C90     1.387   .     A
C81    C83     1.399   .     A
C82    C84     1.404   .     A
C83    O107    1.385   .     S
C83    C85     1.419   .     A
C84    O112    1.385   .     S
C84    C86     1.423   .     A
C85    C87     1.425   .     A
C85    C91     1.419   .     A
C86    C92     1.425   .     A
C86    C88     1.426   .     A
C87    C89     1.412   .     A
C87    C18     1.399   1_655 S
C88    C90     1.414   .     A
C91    O117    1.395   .     S
C91    C3      1.420   1_655 S
C92    O122    1.400   .     S
Cu93   Cu94    2.714   .     S
Cu93   O97     1.962   .     S
Cu93   O104    1.931   .     S
Cu93   O100    1.957   .     S
Cu93   N96     2.040   .     S
Cu93   O101    1.965   .     S
Cu94   O103    1.931   .     S
Cu94   N95     2.040   .     S
Cu94   O98     1.962   .     S
Cu94   O102    1.965   .     S
Cu94   O99     1.957   .     S
N95    N936    1.299   1_554 S
N95    H979    1.029   1_554 S
N96    N515    1.299   .     S
N96    H560    1.029   .     S
O107   C108    1.411   .     S
C108   H110    1.109   .     S
C108   H111    1.109   .     S
C108   H109    1.112   .     S
O112   C113    1.413   .     S
C113   H115    1.114   .     S
C113   H114    1.109   .     S
C113   H116    1.108   .     S
O117   C398    1.407   1_545 S
C118   H120    1.095   .     S
C118   H119    1.110   .     S
C118   H121    1.109   .     S
C118   O257    1.407   .     S
O122   C263    1.407   .     S
C123   H126    1.107   .     S
C123   H124    1.108   .     S
C123   H125    1.107   .     S
C123   O402    1.407   1_545 S
O127   C128    1.415   .     S
C128   H131    1.109   .     S
C128   H129    1.114   .     S
C128   H410    1.107   1_545 S
H130   C268    1.107   .     S
O132   C133    1.415   .     S
C133   H135    1.109   .     S
C133   H134    1.113   .     S
C133   H276    1.105   .     S
H136   C413    1.105   1_545 S
H137   C215    1.087   .     S
H138   C356    1.087   1_545 S
H139   N515    1.029   .     S
H140   N936    1.029   1_554 S
C141   O169    1.295   .     A
C141   C145    1.433   .     S
C141   O167    1.300   .     A
C142   O170    1.295   .     A
C142   O168    1.300   .     A
C142   C146    1.433   .     S
C143   C160    1.411   .     A
C143   O197    1.392   .     S
C143   C231    1.420   1_455 S
C144   O202    1.388   .     S
C144   C159    1.410   .     A
C144   C232    1.426   .     S
C146   C285    1.330   .     S
C146   H348    1.087   .     S
C147   O173    1.302   .     A
C147   C152    1.443   .     S
C147   O171    1.299   .     A
C148   O174    1.302   .     A
C148   C151    1.443   .     S
C148   O172    1.299   .     A
C149   C151    1.376   .     A
C149   H175    1.079   .     S
C149   C159    1.392   .     A
C150   H176    1.081   .     S
C150   C152    1.378   .     A
C150   C160    1.387   .     A
C151   C153    1.399   .     A
C152   C154    1.404   .     A
C153   O177    1.385   .     S
C153   C155    1.419   .     A
C154   O182    1.385   .     S
C154   C156    1.423   .     A
C155   C157    1.425   .     A
C155   C161    1.419   .     A
C156   C162    1.425   .     A
C156   C158    1.426   .     A
C157   C159    1.412   .     A
C157   C228    1.399   .     S
C158   C160    1.414   .     A
C158   C227    1.399   1_455 S
C161   O187    1.395   .     S
C161   C213    1.420   .     S
C162   O192    1.400   .     S
C162   C214    1.426   1_455 S
Cu163  Cu164   2.714   .     S
Cu163  O167    1.962   .     S
Cu163  O174    1.931   .     S
Cu163  O170    1.957   .     S
Cu163  N166    2.040   .     S
Cu163  O171    1.965   .     S
Cu164  O173    1.931   .     S
Cu164  N165    2.040   .     S
Cu164  O168    1.962   .     S
Cu164  O172    1.965   .     S
Cu164  O169    1.957   .     S
N165   N1006   1.299   1_554 S
N165   H1049   1.029   1_554 S
N166   N585    1.299   .     S
N166   H630    1.029   .     S
O177   C178    1.411   .     S
C178   H180    1.109   .     S
C178   H181    1.109   .     S
C178   H179    1.112   .     S
O182   C183    1.413   .     S
C183   H185    1.114   .     S
C183   H184    1.109   .     S
C183   H186    1.108   .     S
C188   H190    1.095   .     S
C188   H189    1.110   .     S
C188   H191    1.109   .     S
C188   O327    1.407   .     S
O192   C333    1.407   .     S
C193   H196    1.107   .     S
C193   H194    1.108   .     S
C193   H195    1.107   .     S
O197   C198    1.415   .     S
C198   H201    1.109   .     S
C198   H199    1.114   .     S
H200   C338    1.107   .     S
O202   C203    1.415   .     S
C203   H205    1.109   .     S
C203   H204    1.113   .     S
C203   H346    1.105   .     S
H207   C285    1.087   .     S
H209   N585    1.029   .     S
H210   N1006   1.029   1_554 S
C211   O239    1.295   .     A
C211   C215    1.433   .     S
C211   O237    1.300   .     A
C212   O240    1.295   .     A
C212   O238    1.300   .     A
C212   C216    1.433   .     S
C213   C230    1.411   .     A
C213   O267    1.392   .     S
C214   O272    1.388   .     S
C214   C229    1.410   .     A
C214   C162    1.426   1_655 S
C216   C355    1.330   .     S
C216   H418    1.087   .     S
C217   O243    1.302   .     A
C217   C222    1.443   .     S
C217   O241    1.299   .     A
C218   O244    1.302   .     A
C218   C221    1.443   .     S
C218   O242    1.299   .     A
C219   C221    1.376   .     A
C219   H245    1.079   .     S
C219   C229    1.392   .     A
C220   H246    1.081   .     S
C220   C222    1.378   .     A
C220   C230    1.387   .     A
C221   C223    1.399   .     A
C222   C224    1.404   .     A
C223   O247    1.385   .     S
C223   C225    1.419   .     A
C224   O252    1.385   .     S
C224   C226    1.423   .     A
C225   C227    1.425   .     A
C225   C231    1.419   .     A
C226   C232    1.425   .     A
C226   C228    1.426   .     A
C227   C229    1.412   .     A
C227   C158    1.399   1_655 S
C228   C230    1.414   .     A
C231   O257    1.395   .     S
C231   C143    1.420   1_655 S
C232   O262    1.400   .     S
Cu233  Cu234   2.714   .     S
Cu233  O237    1.962   .     S
Cu233  O244    1.931   .     S
Cu233  O240    1.957   .     S
Cu233  N236    2.040   .     S
Cu233  O241    1.965   .     S
Cu234  O243    1.931   .     S
Cu234  N235    2.040   .     S
Cu234  O238    1.962   .     S
Cu234  O242    1.965   .     S
Cu234  O239    1.957   .     S
N235   N1076   1.299   1_554 S
N235   H1119   1.029   1_554 S
N236   N655    1.299   .     S
N236   H700    1.029   .     S
O247   C248    1.411   .     S
C248   H250    1.109   .     S
C248   H251    1.109   .     S
C248   H249    1.112   .     S
O252   C253    1.413   .     S
C253   H255    1.114   .     S
C253   H254    1.109   .     S
C253   H256    1.108   .     S
C258   H260    1.095   .     S
C258   H259    1.110   .     S
C258   H261    1.109   .     S
C258   O397    1.407   .     S
O262   C403    1.407   .     S
C263   H266    1.107   .     S
C263   H264    1.108   .     S
C263   H265    1.107   .     S
O267   C268    1.415   .     S
C268   H271    1.109   .     S
C268   H269    1.114   .     S
H270   C408    1.107   .     S
O272   C273    1.415   .     S
C273   H275    1.109   .     S
C273   H274    1.113   .     S
C273   H416    1.105   .     S
H277   C355    1.087   .     S
H279   N655    1.029   .     S
H280   N1076   1.029   1_554 S
C281   O309    1.295   .     A
C281   C285    1.433   .     S
C281   O307    1.300   .     A
C282   O310    1.295   .     A
C282   O308    1.300   .     A
C282   C286    1.433   .     S
C283   C300    1.411   .     A
C283   O337    1.392   .     S
C283   C371    1.420   1_455 S
C284   O342    1.388   .     S
C284   C299    1.410   .     A
C284   C372    1.426   .     S
C286   C5      1.330   1_565 S
C286   H68     1.087   1_565 S
C287   O313    1.302   .     A
C287   C292    1.443   .     S
C287   O311    1.299   .     A
C288   O314    1.302   .     A
C288   C291    1.443   .     S
C288   O312    1.299   .     A
C289   C291    1.376   .     A
C289   H315    1.079   .     S
C289   C299    1.392   .     A
C290   H316    1.081   .     S
C290   C292    1.378   .     A
C290   C300    1.387   .     A
C291   C293    1.399   .     A
C292   C294    1.404   .     A
C293   O317    1.385   .     S
C293   C295    1.419   .     A
C294   O322    1.385   .     S
C294   C296    1.423   .     A
C295   C297    1.425   .     A
C295   C301    1.419   .     A
C296   C302    1.425   .     A
C296   C298    1.426   .     A
C297   C299    1.412   .     A
C297   C368    1.399   .     S
C298   C300    1.414   .     A
C298   C367    1.399   1_455 S
C301   O327    1.395   .     S
C301   C353    1.420   .     S
C302   O332    1.400   .     S
C302   C354    1.426   1_455 S
Cu303  Cu304   2.714   .     S
Cu303  O307    1.962   .     S
Cu303  O314    1.931   .     S
Cu303  O310    1.957   .     S
Cu303  N306    2.040   .     S
Cu303  O311    1.965   .     S
Cu304  O313    1.931   .     S
Cu304  N305    2.040   .     S
Cu304  O308    1.962   .     S
Cu304  O312    1.965   .     S
Cu304  O309    1.957   .     S
N305   N1146   1.299   1_554 S
N305   H1189   1.029   1_554 S
N306   N725    1.299   .     S
N306   H770    1.029   .     S
O317   C318    1.411   .     S
C318   H320    1.109   .     S
C318   H321    1.109   .     S
C318   H319    1.112   .     S
O322   C323    1.413   .     S
C323   H325    1.114   .     S
C323   H324    1.109   .     S
C323   H326    1.108   .     S
C328   H330    1.095   .     S
C328   H329    1.110   .     S
C328   H331    1.109   .     S
C328   O47     1.407   1_565 S
O332   C53     1.407   1_565 S
C333   H336    1.107   .     S
C333   H334    1.108   .     S
C333   H335    1.107   .     S
O337   C338    1.415   .     S
C338   H341    1.109   .     S
C338   H339    1.114   .     S
H340   C58     1.107   1_565 S
O342   C343    1.415   .     S
C343   H345    1.109   .     S
C343   H344    1.113   .     S
C343   H66     1.105   1_565 S
H347   C5      1.087   1_565 S
H349   N725    1.029   .     S
H350   N1146   1.029   1_554 S
C351   O379    1.295   .     A
C351   C355    1.433   .     S
C351   O377    1.300   .     A
C352   O380    1.295   .     A
C352   O378    1.300   .     A
C352   C356    1.433   .     S
C353   C370    1.411   .     A
C353   O407    1.392   .     S
C354   O412    1.388   .     S
C354   C369    1.410   .     A
C354   C302    1.426   1_655 S
C356   C75     1.330   1_565 S
C356   H138    1.087   1_565 S
C357   O383    1.302   .     A
C357   C362    1.443   .     S
C357   O381    1.299   .     A
C358   O384    1.302   .     A
C358   C361    1.443   .     S
C358   O382    1.299   .     A
C359   C361    1.376   .     A
C359   H385    1.079   .     S
C359   C369    1.392   .     A
C360   H386    1.081   .     S
C360   C362    1.378   .     A
C360   C370    1.387   .     A
C361   C363    1.399   .     A
C362   C364    1.404   .     A
C363   O387    1.385   .     S
C363   C365    1.419   .     A
C364   O392    1.385   .     S
C364   C366    1.423   .     A
C365   C367    1.425   .     A
C365   C371    1.419   .     A
C366   C372    1.425   .     A
C366   C368    1.426   .     A
C367   C369    1.412   .     A
C367   C298    1.399   1_655 S
C368   C370    1.414   .     A
C371   O397    1.395   .     S
C371   C283    1.420   1_655 S
C372   O402    1.400   .     S
Cu373  Cu374   2.714   .     S
Cu373  O377    1.962   .     S
Cu373  O384    1.931   .     S
Cu373  O380    1.957   .     S
Cu373  N376    2.040   .     S
Cu373  O381    1.965   .     S
Cu374  O383    1.931   .     S
Cu374  N375    2.040   .     S
Cu374  O378    1.962   .     S
Cu374  O382    1.965   .     S
Cu374  O379    1.957   .     S
N375   N1216   1.299   1_554 S
N375   H1259   1.029   1_554 S
N376   N795    1.299   .     S
N376   H840    1.029   .     S
O387   C388    1.411   .     S
C388   H390    1.109   .     S
C388   H391    1.109   .     S
C388   H389    1.112   .     S
O392   C393    1.413   .     S
C393   H395    1.114   .     S
C393   H394    1.109   .     S
C393   H396    1.108   .     S
C398   H400    1.095   .     S
C398   H399    1.110   .     S
C398   H401    1.109   .     S
C398   O117    1.407   1_565 S
O402   C123    1.407   1_565 S
C403   H406    1.107   .     S
C403   H404    1.108   .     S
C403   H405    1.107   .     S
O407   C408    1.415   .     S
C408   H411    1.109   .     S
C408   H409    1.114   .     S
H410   C128    1.107   1_565 S
O412   C413    1.415   .     S
C413   H415    1.109   .     S
C413   H414    1.113   .     S
C413   H136    1.105   1_565 S
H417   C75     1.087   1_565 S
H419   N795    1.029   .     S
H420   N1216   1.029   1_554 S
C421   O449    1.295   .     A
C421   C425    1.433   .     S
C421   O447    1.300   .     A
C422   O450    1.295   .     A
C422   O448    1.300   .     A
C422   C426    1.433   .     S
C423   C440    1.411   .     A
C423   O477    1.392   .     S
C423   C511    1.420   1_455 S
C424   O482    1.388   .     S
C424   C439    1.410   .     A
C424   C512    1.426   .     S
C425   C706    1.330   1_545 S
C425   H767    1.087   1_545 S
C426   C565    1.330   .     S
C426   H628    1.087   .     S
C427   O453    1.302   .     A
C427   C432    1.443   .     S
C427   O451    1.299   .     A
C428   O454    1.302   .     A
C428   C431    1.443   .     S
C428   O452    1.299   .     A
C429   C431    1.376   .     A
C429   H455    1.079   .     S
C429   C439    1.392   .     A
C430   H456    1.081   .     S
C430   C432    1.378   .     A
C430   C440    1.387   .     A
C431   C433    1.399   .     A
C432   C434    1.404   .     A
C433   O457    1.385   .     S
C433   C435    1.419   .     A
C434   O462    1.385   .     S
C434   C436    1.423   .     A
C435   C437    1.425   .     A
C435   C441    1.419   .     A
C436   C442    1.425   .     A
C436   C438    1.426   .     A
C437   C439    1.412   .     A
C437   C508    1.399   .     S
C438   C440    1.414   .     A
C438   C507    1.399   1_455 S
C441   O467    1.395   .     S
C441   C493    1.420   .     S
C442   O472    1.400   .     S
C442   C494    1.426   1_455 S
Cu443  Cu444   2.714   .     S
Cu443  O447    1.962   .     S
Cu443  O454    1.931   .     S
Cu443  O450    1.957   .     S
Cu443  N446    2.040   .     S
Cu443  O451    1.965   .     S
Cu444  O453    1.931   .     S
Cu444  N445    2.040   .     S
Cu444  O448    1.962   .     S
Cu444  O452    1.965   .     S
Cu444  O449    1.957   .     S
N446   N865    1.299   .     S
N446   H910    1.029   .     S
O457   C458    1.411   .     S
C458   H460    1.109   .     S
C458   H461    1.109   .     S
C458   H459    1.112   .     S
O462   C463    1.413   .     S
C463   H465    1.114   .     S
C463   H464    1.109   .     S
C463   H466    1.108   .     S
O467   C748    1.407   1_545 S
C468   H470    1.095   .     S
C468   H469    1.110   .     S
C468   H471    1.109   .     S
C468   O607    1.407   .     S
O472   C613    1.407   .     S
C473   H476    1.107   .     S
C473   H474    1.108   .     S
C473   H475    1.107   .     S
C473   O752    1.407   1_545 S
O477   C478    1.415   .     S
C478   H481    1.109   .     S
C478   H479    1.114   .     S
C478   H760    1.107   1_545 S
H480   C618    1.107   .     S
O482   C483    1.415   .     S
C483   H485    1.109   .     S
C483   H484    1.113   .     S
C483   H626    1.105   .     S
H486   C763    1.105   1_545 S
H487   C565    1.087   .     S
H488   C706    1.087   1_545 S
H489   N865    1.029   .     S
C491   O519    1.295   .     A
C491   C495    1.433   .     S
C491   O517    1.300   .     A
C492   O520    1.295   .     A
C492   O518    1.300   .     A
C492   C496    1.433   .     S
C493   C510    1.411   .     A
C493   O547    1.392   .     S
C494   O552    1.388   .     S
C494   C509    1.410   .     A
C494   C442    1.426   1_655 S
C495   C776    1.330   1_545 S
C495   H837    1.087   1_545 S
C496   C635    1.330   .     S
C496   H698    1.087   .     S
C497   O523    1.302   .     A
C497   C502    1.443   .     S
C497   O521    1.299   .     A
C498   O524    1.302   .     A
C498   C501    1.443   .     S
C498   O522    1.299   .     A
C499   C501    1.376   .     A
C499   H525    1.079   .     S
C499   C509    1.392   .     A
C500   H526    1.081   .     S
C500   C502    1.378   .     A
C500   C510    1.387   .     A
C501   C503    1.399   .     A
C502   C504    1.404   .     A
C503   O527    1.385   .     S
C503   C505    1.419   .     A
C504   O532    1.385   .     S
C504   C506    1.423   .     A
C505   C507    1.425   .     A
C505   C511    1.419   .     A
C506   C512    1.425   .     A
C506   C508    1.426   .     A
C507   C509    1.412   .     A
C507   C438    1.399   1_655 S
C508   C510    1.414   .     A
C511   O537    1.395   .     S
C511   C423    1.420   1_655 S
C512   O542    1.400   .     S
Cu513  Cu514   2.714   .     S
Cu513  O517    1.962   .     S
Cu513  O524    1.931   .     S
Cu513  O520    1.957   .     S
Cu513  N516    2.040   .     S
Cu513  O521    1.965   .     S
Cu514  O523    1.931   .     S
Cu514  N515    2.040   .     S
Cu514  O518    1.962   .     S
Cu514  O522    1.965   .     S
Cu514  O519    1.957   .     S
N516   N935    1.299   .     S
N516   H980    1.029   .     S
O527   C528    1.411   .     S
C528   H530    1.109   .     S
C528   H531    1.109   .     S
C528   H529    1.112   .     S
O532   C533    1.413   .     S
C533   H535    1.114   .     S
C533   H534    1.109   .     S
C533   H536    1.108   .     S
O537   C818    1.407   1_545 S
C538   H540    1.095   .     S
C538   H539    1.110   .     S
C538   H541    1.109   .     S
C538   O677    1.407   .     S
O542   C683    1.407   .     S
C543   H546    1.107   .     S
C543   H544    1.108   .     S
C543   H545    1.107   .     S
C543   O822    1.407   1_545 S
O547   C548    1.415   .     S
C548   H551    1.109   .     S
C548   H549    1.114   .     S
C548   H830    1.107   1_545 S
H550   C688    1.107   .     S
O552   C553    1.415   .     S
C553   H555    1.109   .     S
C553   H554    1.113   .     S
C553   H696    1.105   .     S
H556   C833    1.105   1_545 S
H557   C635    1.087   .     S
H558   C776    1.087   1_545 S
H559   N935    1.029   .     S
C561   O589    1.295   .     A
C561   C565    1.433   .     S
C561   O587    1.300   .     A
C562   O590    1.295   .     A
C562   O588    1.300   .     A
C562   C566    1.433   .     S
C563   C580    1.411   .     A
C563   O617    1.392   .     S
C563   C651    1.420   1_455 S
C564   O622    1.388   .     S
C564   C579    1.410   .     A
C564   C652    1.426   .     S
C566   C705    1.330   .     S
C566   H768    1.087   .     S
C567   O593    1.302   .     A
C567   C572    1.443   .     S
C567   O591    1.299   .     A
C568   O594    1.302   .     A
C568   C571    1.443   .     S
C568   O592    1.299   .     A
C569   C571    1.376   .     A
C569   H595    1.079   .     S
C569   C579    1.392   .     A
C570   H596    1.081   .     S
C570   C572    1.378   .     A
C570   C580    1.387   .     A
C571   C573    1.399   .     A
C572   C574    1.404   .     A
C573   O597    1.385   .     S
C573   C575    1.419   .     A
C574   O602    1.385   .     S
C574   C576    1.423   .     A
C575   C577    1.425   .     A
C575   C581    1.419   .     A
C576   C582    1.425   .     A
C576   C578    1.426   .     A
C577   C579    1.412   .     A
C577   C648    1.399   .     S
C578   C580    1.414   .     A
C578   C647    1.399   1_455 S
C581   O607    1.395   .     S
C581   C633    1.420   .     S
C582   O612    1.400   .     S
C582   C634    1.426   1_455 S
Cu583  Cu584   2.714   .     S
Cu583  O587    1.962   .     S
Cu583  O594    1.931   .     S
Cu583  O590    1.957   .     S
Cu583  N586    2.040   .     S
Cu583  O591    1.965   .     S
Cu584  O593    1.931   .     S
Cu584  N585    2.040   .     S
Cu584  O588    1.962   .     S
Cu584  O592    1.965   .     S
Cu584  O589    1.957   .     S
N586   N1005   1.299   .     S
N586   H1050   1.029   .     S
O597   C598    1.411   .     S
C598   H600    1.109   .     S
C598   H601    1.109   .     S
C598   H599    1.112   .     S
O602   C603    1.413   .     S
C603   H605    1.114   .     S
C603   H604    1.109   .     S
C603   H606    1.108   .     S
C608   H610    1.095   .     S
C608   H609    1.110   .     S
C608   H611    1.109   .     S
C608   O747    1.407   .     S
O612   C753    1.407   .     S
C613   H616    1.107   .     S
C613   H614    1.108   .     S
C613   H615    1.107   .     S
O617   C618    1.415   .     S
C618   H621    1.109   .     S
C618   H619    1.114   .     S
H620   C758    1.107   .     S
O622   C623    1.415   .     S
C623   H625    1.109   .     S
C623   H624    1.113   .     S
C623   H766    1.105   .     S
H627   C705    1.087   .     S
H629   N1005   1.029   .     S
C631   O659    1.295   .     A
C631   C635    1.433   .     S
C631   O657    1.300   .     A
C632   O660    1.295   .     A
C632   O658    1.300   .     A
C632   C636    1.433   .     S
C633   C650    1.411   .     A
C633   O687    1.392   .     S
C634   O692    1.388   .     S
C634   C649    1.410   .     A
C634   C582    1.426   1_655 S
C636   C775    1.330   .     S
C636   H838    1.087   .     S
C637   O663    1.302   .     A
C637   C642    1.443   .     S
C637   O661    1.299   .     A
C638   O664    1.302   .     A
C638   C641    1.443   .     S
C638   O662    1.299   .     A
C639   C641    1.376   .     A
C639   H665    1.079   .     S
C639   C649    1.392   .     A
C640   H666    1.081   .     S
C640   C642    1.378   .     A
C640   C650    1.387   .     A
C641   C643    1.399   .     A
C642   C644    1.404   .     A
C643   O667    1.385   .     S
C643   C645    1.419   .     A
C644   O672    1.385   .     S
C644   C646    1.423   .     A
C645   C647    1.425   .     A
C645   C651    1.419   .     A
C646   C652    1.425   .     A
C646   C648    1.426   .     A
C647   C649    1.412   .     A
C647   C578    1.399   1_655 S
C648   C650    1.414   .     A
C651   O677    1.395   .     S
C651   C563    1.420   1_655 S
C652   O682    1.400   .     S
Cu653  Cu654   2.714   .     S
Cu653  O657    1.962   .     S
Cu653  O664    1.931   .     S
Cu653  O660    1.957   .     S
Cu653  N656    2.040   .     S
Cu653  O661    1.965   .     S
Cu654  O663    1.931   .     S
Cu654  N655    2.040   .     S
Cu654  O658    1.962   .     S
Cu654  O662    1.965   .     S
Cu654  O659    1.957   .     S
N656   N1075   1.299   .     S
N656   H1120   1.029   .     S
O667   C668    1.411   .     S
C668   H670    1.109   .     S
C668   H671    1.109   .     S
C668   H669    1.112   .     S
O672   C673    1.413   .     S
C673   H675    1.114   .     S
C673   H674    1.109   .     S
C673   H676    1.108   .     S
C678   H680    1.095   .     S
C678   H679    1.110   .     S
C678   H681    1.109   .     S
C678   O817    1.407   .     S
O682   C823    1.407   .     S
C683   H686    1.107   .     S
C683   H684    1.108   .     S
C683   H685    1.107   .     S
O687   C688    1.415   .     S
C688   H691    1.109   .     S
C688   H689    1.114   .     S
H690   C828    1.107   .     S
O692   C693    1.415   .     S
C693   H695    1.109   .     S
C693   H694    1.113   .     S
C693   H836    1.105   .     S
H697   C775    1.087   .     S
H699   N1075   1.029   .     S
C701   O729    1.295   .     A
C701   C705    1.433   .     S
C701   O727    1.300   .     A
C702   O730    1.295   .     A
C702   O728    1.300   .     A
C702   C706    1.433   .     S
C703   C720    1.411   .     A
C703   O757    1.392   .     S
C703   C791    1.420   1_455 S
C704   O762    1.388   .     S
C704   C719    1.410   .     A
C704   C792    1.426   .     S
C706   C425    1.330   1_565 S
C706   H488    1.087   1_565 S
C707   O733    1.302   .     A
C707   C712    1.443   .     S
C707   O731    1.299   .     A
C708   O734    1.302   .     A
C708   C711    1.443   .     S
C708   O732    1.299   .     A
C709   C711    1.376   .     A
C709   H735    1.079   .     S
C709   C719    1.392   .     A
C710   H736    1.081   .     S
C710   C712    1.378   .     A
C710   C720    1.387   .     A
C711   C713    1.399   .     A
C712   C714    1.404   .     A
C713   O737    1.385   .     S
C713   C715    1.419   .     A
C714   O742    1.385   .     S
C714   C716    1.423   .     A
C715   C717    1.425   .     A
C715   C721    1.419   .     A
C716   C722    1.425   .     A
C716   C718    1.426   .     A
C717   C719    1.412   .     A
C717   C788    1.399   .     S
C718   C720    1.414   .     A
C718   C787    1.399   1_455 S
C721   O747    1.395   .     S
C721   C773    1.420   .     S
C722   O752    1.400   .     S
C722   C774    1.426   1_455 S
Cu723  Cu724   2.714   .     S
Cu723  O727    1.962   .     S
Cu723  O734    1.931   .     S
Cu723  O730    1.957   .     S
Cu723  N726    2.040   .     S
Cu723  O731    1.965   .     S
Cu724  O733    1.931   .     S
Cu724  N725    2.040   .     S
Cu724  O728    1.962   .     S
Cu724  O732    1.965   .     S
Cu724  O729    1.957   .     S
N726   N1145   1.299   .     S
N726   H1190   1.029   .     S
O737   C738    1.411   .     S
C738   H740    1.109   .     S
C738   H741    1.109   .     S
C738   H739    1.112   .     S
O742   C743    1.413   .     S
C743   H745    1.114   .     S
C743   H744    1.109   .     S
C743   H746    1.108   .     S
C748   H750    1.095   .     S
C748   H749    1.110   .     S
C748   H751    1.109   .     S
C748   O467    1.407   1_565 S
O752   C473    1.407   1_565 S
C753   H756    1.107   .     S
C753   H754    1.108   .     S
C753   H755    1.107   .     S
O757   C758    1.415   .     S
C758   H761    1.109   .     S
C758   H759    1.114   .     S
H760   C478    1.107   1_565 S
O762   C763    1.415   .     S
C763   H765    1.109   .     S
C763   H764    1.113   .     S
C763   H486    1.105   1_565 S
H767   C425    1.087   1_565 S
H769   N1145   1.029   .     S
C771   O799    1.295   .     A
C771   C775    1.433   .     S
C771   O797    1.300   .     A
C772   O800    1.295   .     A
C772   O798    1.300   .     A
C772   C776    1.433   .     S
C773   C790    1.411   .     A
C773   O827    1.392   .     S
C774   O832    1.388   .     S
C774   C789    1.410   .     A
C774   C722    1.426   1_655 S
C776   C495    1.330   1_565 S
C776   H558    1.087   1_565 S
C777   O803    1.302   .     A
C777   C782    1.443   .     S
C777   O801    1.299   .     A
C778   O804    1.302   .     A
C778   C781    1.443   .     S
C778   O802    1.299   .     A
C779   C781    1.376   .     A
C779   H805    1.079   .     S
C779   C789    1.392   .     A
C780   H806    1.081   .     S
C780   C782    1.378   .     A
C780   C790    1.387   .     A
C781   C783    1.399   .     A
C782   C784    1.404   .     A
C783   O807    1.385   .     S
C783   C785    1.419   .     A
C784   O812    1.385   .     S
C784   C786    1.423   .     A
C785   C787    1.425   .     A
C785   C791    1.419   .     A
C786   C792    1.425   .     A
C786   C788    1.426   .     A
C787   C789    1.412   .     A
C787   C718    1.399   1_655 S
C788   C790    1.414   .     A
C791   O817    1.395   .     S
C791   C703    1.420   1_655 S
C792   O822    1.400   .     S
Cu793  Cu794   2.714   .     S
Cu793  O797    1.962   .     S
Cu793  O804    1.931   .     S
Cu793  O800    1.957   .     S
Cu793  N796    2.040   .     S
Cu793  O801    1.965   .     S
Cu794  O803    1.931   .     S
Cu794  N795    2.040   .     S
Cu794  O798    1.962   .     S
Cu794  O802    1.965   .     S
Cu794  O799    1.957   .     S
N796   N1215   1.299   .     S
N796   H1260   1.029   .     S
O807   C808    1.411   .     S
C808   H810    1.109   .     S
C808   H811    1.109   .     S
C808   H809    1.112   .     S
O812   C813    1.413   .     S
C813   H815    1.114   .     S
C813   H814    1.109   .     S
C813   H816    1.108   .     S
C818   H820    1.095   .     S
C818   H819    1.110   .     S
C818   H821    1.109   .     S
C818   O537    1.407   1_565 S
O822   C543    1.407   1_565 S
C823   H826    1.107   .     S
C823   H824    1.108   .     S
C823   H825    1.107   .     S
O827   C828    1.415   .     S
C828   H831    1.109   .     S
C828   H829    1.114   .     S
H830   C548    1.107   1_565 S
O832   C833    1.415   .     S
C833   H835    1.109   .     S
C833   H834    1.113   .     S
C833   H556    1.105   1_565 S
H837   C495    1.087   1_565 S
H839   N1215   1.029   .     S
C841   O869    1.295   .     A
C841   C845    1.433   .     S
C841   O867    1.300   .     A
C842   O870    1.295   .     A
C842   O868    1.300   .     A
C842   C846    1.433   .     S
C843   C860    1.411   .     A
C843   O897    1.392   .     S
C843   C931    1.420   1_455 S
C844   O902    1.388   .     S
C844   C859    1.410   .     A
C844   C932    1.426   .     S
C845   C1126   1.330   1_545 S
C845   H1187   1.087   1_545 S
C846   C985    1.330   .     S
C846   H1048   1.087   .     S
C847   O873    1.302   .     A
C847   C852    1.443   .     S
C847   O871    1.299   .     A
C848   O874    1.302   .     A
C848   C851    1.443   .     S
C848   O872    1.299   .     A
C849   C851    1.376   .     A
C849   H875    1.079   .     S
C849   C859    1.392   .     A
C850   H876    1.081   .     S
C850   C852    1.378   .     A
C850   C860    1.387   .     A
C851   C853    1.399   .     A
C852   C854    1.404   .     A
C853   O877    1.385   .     S
C853   C855    1.419   .     A
C854   O882    1.385   .     S
C854   C856    1.423   .     A
C855   C857    1.425   .     A
C855   C861    1.419   .     A
C856   C862    1.425   .     A
C856   C858    1.426   .     A
C857   C859    1.412   .     A
C857   C928    1.399   .     S
C858   C860    1.414   .     A
C858   C927    1.399   1_455 S
C861   O887    1.395   .     S
C861   C913    1.420   .     S
C862   O892    1.400   .     S
C862   C914    1.426   1_455 S
Cu863  Cu864   2.714   .     S
Cu863  O867    1.962   .     S
Cu863  O874    1.931   .     S
Cu863  O870    1.957   .     S
Cu863  N866    2.040   .     S
Cu863  O871    1.965   .     S
Cu864  O873    1.931   .     S
Cu864  N865    2.040   .     S
Cu864  O868    1.962   .     S
Cu864  O872    1.965   .     S
Cu864  O869    1.957   .     S
N866   N25     1.299   1_556 S
N866   H70     1.029   1_556 S
O877   C878    1.411   .     S
C878   H880    1.109   .     S
C878   H881    1.109   .     S
C878   H879    1.112   .     S
O882   C883    1.413   .     S
C883   H885    1.114   .     S
C883   H884    1.109   .     S
C883   H886    1.108   .     S
O887   C1168   1.407   1_545 S
C888   H890    1.095   .     S
C888   H889    1.110   .     S
C888   H891    1.109   .     S
C888   O1027   1.407   .     S
O892   C1033   1.407   .     S
C893   H896    1.107   .     S
C893   H894    1.108   .     S
C893   H895    1.107   .     S
C893   O1172   1.407   1_545 S
O897   C898    1.415   .     S
C898   H901    1.109   .     S
C898   H899    1.114   .     S
C898   H1180   1.107   1_545 S
H900   C1038   1.107   .     S
O902   C903    1.415   .     S
C903   H905    1.109   .     S
C903   H904    1.113   .     S
C903   H1046   1.105   .     S
H906   C1183   1.105   1_545 S
H907   C985    1.087   .     S
H908   C1126   1.087   1_545 S
H909   N25     1.029   1_556 S
C911   O939    1.295   .     A
C911   C915    1.433   .     S
C911   O937    1.300   .     A
C912   O940    1.295   .     A
C912   O938    1.300   .     A
C912   C916    1.433   .     S
C913   C930    1.411   .     A
C913   O967    1.392   .     S
C914   O972    1.388   .     S
C914   C929    1.410   .     A
C914   C862    1.426   1_655 S
C915   C1196   1.330   1_545 S
C915   H1257   1.087   1_545 S
C916   C1055   1.330   .     S
C916   H1118   1.087   .     S
C917   O943    1.302   .     A
C917   C922    1.443   .     S
C917   O941    1.299   .     A
C918   O944    1.302   .     A
C918   C921    1.443   .     S
C918   O942    1.299   .     A
C919   C921    1.376   .     A
C919   H945    1.079   .     S
C919   C929    1.392   .     A
C920   H946    1.081   .     S
C920   C922    1.378   .     A
C920   C930    1.387   .     A
C921   C923    1.399   .     A
C922   C924    1.404   .     A
C923   O947    1.385   .     S
C923   C925    1.419   .     A
C924   O952    1.385   .     S
C924   C926    1.423   .     A
C925   C927    1.425   .     A
C925   C931    1.419   .     A
C926   C932    1.425   .     A
C926   C928    1.426   .     A
C927   C929    1.412   .     A
C927   C858    1.399   1_655 S
C928   C930    1.414   .     A
C931   O957    1.395   .     S
C931   C843    1.420   1_655 S
C932   O962    1.400   .     S
Cu933  Cu934   2.714   .     S
Cu933  O937    1.962   .     S
Cu933  O944    1.931   .     S
Cu933  O940    1.957   .     S
Cu933  N936    2.040   .     S
Cu933  O941    1.965   .     S
Cu934  O943    1.931   .     S
Cu934  N935    2.040   .     S
Cu934  O938    1.962   .     S
Cu934  O942    1.965   .     S
Cu934  O939    1.957   .     S
N936   N95     1.299   1_556 S
N936   H140    1.029   1_556 S
O947   C948    1.411   .     S
C948   H950    1.109   .     S
C948   H951    1.109   .     S
C948   H949    1.112   .     S
O952   C953    1.413   .     S
C953   H955    1.114   .     S
C953   H954    1.109   .     S
C953   H956    1.108   .     S
O957   C1238   1.407   1_545 S
C958   H960    1.095   .     S
C958   H959    1.110   .     S
C958   H961    1.109   .     S
C958   O1097   1.407   .     S
O962   C1103   1.407   .     S
C963   H966    1.107   .     S
C963   H964    1.108   .     S
C963   H965    1.107   .     S
C963   O1242   1.407   1_545 S
O967   C968    1.415   .     S
C968   H971    1.109   .     S
C968   H969    1.114   .     S
C968   H1250   1.107   1_545 S
H970   C1108   1.107   .     S
O972   C973    1.415   .     S
C973   H975    1.109   .     S
C973   H974    1.113   .     S
C973   H1116   1.105   .     S
H976   C1253   1.105   1_545 S
H977   C1055   1.087   .     S
H978   C1196   1.087   1_545 S
H979   N95     1.029   1_556 S
C981   O1009   1.295   .     A
C981   C985    1.433   .     S
C981   O1007   1.300   .     A
C982   O1010   1.295   .     A
C982   O1008   1.300   .     A
C982   C986    1.433   .     S
C983   C1000   1.411   .     A
C983   O1037   1.392   .     S
C983   C1071   1.420   1_455 S
C984   O1042   1.388   .     S
C984   C999    1.410   .     A
C984   C1072   1.426   .     S
C986   C1125   1.330   .     S
C986   H1188   1.087   .     S
C987   O1013   1.302   .     A
C987   C992    1.443   .     S
C987   O1011   1.299   .     A
C988   O1014   1.302   .     A
C988   C991    1.443   .     S
C988   O1012   1.299   .     A
C989   C991    1.376   .     A
C989   H1015   1.079   .     S
C989   C999    1.392   .     A
C990   H1016   1.081   .     S
C990   C992    1.378   .     A
C990   C1000   1.387   .     A
C991   C993    1.399   .     A
C992   C994    1.404   .     A
C993   O1017   1.385   .     S
C993   C995    1.419   .     A
C994   O1022   1.385   .     S
C994   C996    1.423   .     A
C995   C997    1.425   .     A
C995   C1001   1.419   .     A
C996   C1002   1.425   .     A
C996   C998    1.426   .     A
C997   C999    1.412   .     A
C997   C1068   1.399   .     S
C998   C1000   1.414   .     A
C998   C1067   1.399   1_455 S
C1001  O1027   1.395   .     S
C1001  C1053   1.420   .     S
C1002  O1032   1.400   .     S
C1002  C1054   1.426   1_455 S
Cu1003 Cu1004  2.714   .     S
Cu1003 O1007   1.962   .     S
Cu1003 O1014   1.931   .     S
Cu1003 O1010   1.957   .     S
Cu1003 N1006   2.040   .     S
Cu1003 O1011   1.965   .     S
Cu1004 O1013   1.931   .     S
Cu1004 N1005   2.040   .     S
Cu1004 O1008   1.962   .     S
Cu1004 O1012   1.965   .     S
Cu1004 O1009   1.957   .     S
N1006  N165    1.299   1_556 S
N1006  H210    1.029   1_556 S
O1017  C1018   1.411   .     S
C1018  H1020   1.109   .     S
C1018  H1021   1.109   .     S
C1018  H1019   1.112   .     S
O1022  C1023   1.413   .     S
C1023  H1025   1.114   .     S
C1023  H1024   1.109   .     S
C1023  H1026   1.108   .     S
C1028  H1030   1.095   .     S
C1028  H1029   1.110   .     S
C1028  H1031   1.109   .     S
C1028  O1167   1.407   .     S
O1032  C1173   1.407   .     S
C1033  H1036   1.107   .     S
C1033  H1034   1.108   .     S
C1033  H1035   1.107   .     S
O1037  C1038   1.415   .     S
C1038  H1041   1.109   .     S
C1038  H1039   1.114   .     S
H1040  C1178   1.107   .     S
O1042  C1043   1.415   .     S
C1043  H1045   1.109   .     S
C1043  H1044   1.113   .     S
C1043  H1186   1.105   .     S
H1047  C1125   1.087   .     S
H1049  N165    1.029   1_556 S
C1051  O1079   1.295   .     A
C1051  C1055   1.433   .     S
C1051  O1077   1.300   .     A
C1052  O1080   1.295   .     A
C1052  O1078   1.300   .     A
C1052  C1056   1.433   .     S
C1053  C1070   1.411   .     A
C1053  O1107   1.392   .     S
C1054  O1112   1.388   .     S
C1054  C1069   1.410   .     A
C1054  C1002   1.426   1_655 S
C1056  C1195   1.330   .     S
C1056  H1258   1.087   .     S
C1057  O1083   1.302   .     A
C1057  C1062   1.443   .     S
C1057  O1081   1.299   .     A
C1058  O1084   1.302   .     A
C1058  C1061   1.443   .     S
C1058  O1082   1.299   .     A
C1059  C1061   1.376   .     A
C1059  H1085   1.079   .     S
C1059  C1069   1.392   .     A
C1060  H1086   1.081   .     S
C1060  C1062   1.378   .     A
C1060  C1070   1.387   .     A
C1061  C1063   1.399   .     A
C1062  C1064   1.404   .     A
C1063  O1087   1.385   .     S
C1063  C1065   1.419   .     A
C1064  O1092   1.385   .     S
C1064  C1066   1.423   .     A
C1065  C1067   1.425   .     A
C1065  C1071   1.419   .     A
C1066  C1072   1.425   .     A
C1066  C1068   1.426   .     A
C1067  C1069   1.412   .     A
C1067  C998    1.399   1_655 S
C1068  C1070   1.414   .     A
C1071  O1097   1.395   .     S
C1071  C983    1.420   1_655 S
C1072  O1102   1.400   .     S
Cu1073 Cu1074  2.714   .     S
Cu1073 O1077   1.962   .     S
Cu1073 O1084   1.931   .     S
Cu1073 O1080   1.957   .     S
Cu1073 N1076   2.040   .     S
Cu1073 O1081   1.965   .     S
Cu1074 O1083   1.931   .     S
Cu1074 N1075   2.040   .     S
Cu1074 O1078   1.962   .     S
Cu1074 O1082   1.965   .     S
Cu1074 O1079   1.957   .     S
N1076  N235    1.299   1_556 S
N1076  H280    1.029   1_556 S
O1087  C1088   1.411   .     S
C1088  H1090   1.109   .     S
C1088  H1091   1.109   .     S
C1088  H1089   1.112   .     S
O1092  C1093   1.413   .     S
C1093  H1095   1.114   .     S
C1093  H1094   1.109   .     S
C1093  H1096   1.108   .     S
C1098  H1100   1.095   .     S
C1098  H1099   1.110   .     S
C1098  H1101   1.109   .     S
C1098  O1237   1.407   .     S
O1102  C1243   1.407   .     S
C1103  H1106   1.107   .     S
C1103  H1104   1.108   .     S
C1103  H1105   1.107   .     S
O1107  C1108   1.415   .     S
C1108  H1111   1.109   .     S
C1108  H1109   1.114   .     S
H1110  C1248   1.107   .     S
O1112  C1113   1.415   .     S
C1113  H1115   1.109   .     S
C1113  H1114   1.113   .     S
C1113  H1256   1.105   .     S
H1117  C1195   1.087   .     S
H1119  N235    1.029   1_556 S
C1121  O1149   1.295   .     A
C1121  C1125   1.433   .     S
C1121  O1147   1.300   .     A
C1122  O1150   1.295   .     A
C1122  O1148   1.300   .     A
C1122  C1126   1.433   .     S
C1123  C1140   1.411   .     A
C1123  O1177   1.392   .     S
C1123  C1211   1.420   1_455 S
C1124  O1182   1.388   .     S
C1124  C1139   1.410   .     A
C1124  C1212   1.426   .     S
C1126  C845    1.330   1_565 S
C1126  H908    1.087   1_565 S
C1127  O1153   1.302   .     A
C1127  C1132   1.443   .     S
C1127  O1151   1.299   .     A
C1128  O1154   1.302   .     A
C1128  C1131   1.443   .     S
C1128  O1152   1.299   .     A
C1129  C1131   1.376   .     A
C1129  H1155   1.079   .     S
C1129  C1139   1.392   .     A
C1130  H1156   1.081   .     S
C1130  C1132   1.378   .     A
C1130  C1140   1.387   .     A
C1131  C1133   1.399   .     A
C1132  C1134   1.404   .     A
C1133  O1157   1.385   .     S
C1133  C1135   1.419   .     A
C1134  O1162   1.385   .     S
C1134  C1136   1.423   .     A
C1135  C1137   1.425   .     A
C1135  C1141   1.419   .     A
C1136  C1142   1.425   .     A
C1136  C1138   1.426   .     A
C1137  C1139   1.412   .     A
C1137  C1208   1.399   .     S
C1138  C1140   1.414   .     A
C1138  C1207   1.399   1_455 S
C1141  O1167   1.395   .     S
C1141  C1193   1.420   .     S
C1142  O1172   1.400   .     S
C1142  C1194   1.426   1_455 S
Cu1143 Cu1144  2.714   .     S
Cu1143 O1147   1.962   .     S
Cu1143 O1154   1.931   .     S
Cu1143 O1150   1.957   .     S
Cu1143 N1146   2.040   .     S
Cu1143 O1151   1.965   .     S
Cu1144 O1153   1.931   .     S
Cu1144 N1145   2.040   .     S
Cu1144 O1148   1.962   .     S
Cu1144 O1152   1.965   .     S
Cu1144 O1149   1.957   .     S
N1146  N305    1.299   1_556 S
N1146  H350    1.029   1_556 S
O1157  C1158   1.411   .     S
C1158  H1160   1.109   .     S
C1158  H1161   1.109   .     S
C1158  H1159   1.112   .     S
O1162  C1163   1.413   .     S
C1163  H1165   1.114   .     S
C1163  H1164   1.109   .     S
C1163  H1166   1.108   .     S
C1168  H1170   1.095   .     S
C1168  H1169   1.110   .     S
C1168  H1171   1.109   .     S
C1168  O887    1.407   1_565 S
O1172  C893    1.407   1_565 S
C1173  H1176   1.107   .     S
C1173  H1174   1.108   .     S
C1173  H1175   1.107   .     S
O1177  C1178   1.415   .     S
C1178  H1181   1.109   .     S
C1178  H1179   1.114   .     S
H1180  C898    1.107   1_565 S
O1182  C1183   1.415   .     S
C1183  H1185   1.109   .     S
C1183  H1184   1.113   .     S
C1183  H906    1.105   1_565 S
H1187  C845    1.087   1_565 S
H1189  N305    1.029   1_556 S
C1191  O1219   1.295   .     A
C1191  C1195   1.433   .     S
C1191  O1217   1.300   .     A
C1192  O1220   1.295   .     A
C1192  O1218   1.300   .     A
C1192  C1196   1.433   .     S
C1193  C1210   1.411   .     A
C1193  O1247   1.392   .     S
C1194  O1252   1.388   .     S
C1194  C1209   1.410   .     A
C1194  C1142   1.426   1_655 S
C1196  C915    1.330   1_565 S
C1196  H978    1.087   1_565 S
C1197  O1223   1.302   .     A
C1197  C1202   1.443   .     S
C1197  O1221   1.299   .     A
C1198  O1224   1.302   .     A
C1198  C1201   1.443   .     S
C1198  O1222   1.299   .     A
C1199  C1201   1.376   .     A
C1199  H1225   1.079   .     S
C1199  C1209   1.392   .     A
C1200  H1226   1.081   .     S
C1200  C1202   1.378   .     A
C1200  C1210   1.387   .     A
C1201  C1203   1.399   .     A
C1202  C1204   1.404   .     A
C1203  O1227   1.385   .     S
C1203  C1205   1.419   .     A
C1204  O1232   1.385   .     S
C1204  C1206   1.423   .     A
C1205  C1207   1.425   .     A
C1205  C1211   1.419   .     A
C1206  C1212   1.425   .     A
C1206  C1208   1.426   .     A
C1207  C1209   1.412   .     A
C1207  C1138   1.399   1_655 S
C1208  C1210   1.414   .     A
C1211  O1237   1.395   .     S
C1211  C1123   1.420   1_655 S
C1212  O1242   1.400   .     S
Cu1213 Cu1214  2.714   .     S
Cu1213 O1217   1.962   .     S
Cu1213 O1224   1.931   .     S
Cu1213 O1220   1.957   .     S
Cu1213 N1216   2.040   .     S
Cu1213 O1221   1.965   .     S
Cu1214 O1223   1.931   .     S
Cu1214 N1215   2.040   .     S
Cu1214 O1218   1.962   .     S
Cu1214 O1222   1.965   .     S
Cu1214 O1219   1.957   .     S
N1216  N375    1.299   1_556 S
N1216  H420    1.029   1_556 S
O1227  C1228   1.411   .     S
C1228  H1230   1.109   .     S
C1228  H1231   1.109   .     S
C1228  H1229   1.112   .     S
O1232  C1233   1.413   .     S
C1233  H1235   1.114   .     S
C1233  H1234   1.109   .     S
C1233  H1236   1.108   .     S
C1238  H1240   1.095   .     S
C1238  H1239   1.110   .     S
C1238  H1241   1.109   .     S
C1238  O957    1.407   1_565 S
O1242  C963    1.407   1_565 S
C1243  H1246   1.107   .     S
C1243  H1244   1.108   .     S
C1243  H1245   1.107   .     S
O1247  C1248   1.415   .     S
C1248  H1251   1.109   .     S
C1248  H1249   1.114   .     S
H1250  C968    1.107   1_565 S
O1252  C1253   1.415   .     S
C1253  H1255   1.109   .     S
C1253  H1254   1.113   .     S
C1253  H976    1.105   1_565 S
H1257  C915    1.087   1_565 S
H1259  N375    1.029   1_556 S
