data_str_m2_o10_o17_pcu_sym.112
_audit_creation_date              2020-01-03
_audit_creation_method            'Materials Studio'
_symmetry_space_group_name_H-M    'P1'
_symmetry_Int_Tables_number       1
_symmetry_cell_setting            triclinic
loop_
_symmetry_equiv_pos_as_xyz
  x,y,z
_cell_length_a                    30.1667
_cell_length_b                    26.1091
_cell_length_c                    22.4473
_cell_angle_alpha                 102.5484
_cell_angle_beta                  94.2857
_cell_angle_gamma                 93.7487
loop_
_atom_site_label
_atom_site_type_symbol
_atom_site_fract_x
_atom_site_fract_y
_atom_site_fract_z
_atom_site_U_iso_or_equiv
_atom_site_adp_type
_atom_site_occupancy
C1     C     0.24952   0.06698   0.15164   0.00000  Uiso   1.00
C2     C     0.24754   0.26585   0.18162   0.00000  Uiso   1.00
C3     C     0.00772   0.07075   0.11808   0.00000  Uiso   1.00
C4     C     0.49479   0.26888   0.21246   0.00000  Uiso   1.00
C5     C     0.25579   0.01247   0.14523   0.00000  Uiso   1.00
C6     C     0.24122   0.32039   0.18790   0.00000  Uiso   1.00
C7     C     0.16469   0.16319   0.16680   0.00000  Uiso   1.00
C8     C     0.33560   0.17348   0.16714   0.00000  Uiso   1.00
C9     C     0.41377   0.22498   0.19565   0.00000  Uiso   1.00
C10    C     0.08879   0.11254   0.14509   0.00000  Uiso   1.00
C11    C     0.38462   0.17895   0.16698   0.00000  Uiso   1.00
C12    C     0.11650   0.15995   0.16747   0.00000  Uiso   1.00
C13    C     0.40220   0.13334   0.13857   0.00000  Uiso   1.00
C14    C     0.09934   0.20695   0.18926   0.00000  Uiso   1.00
C15    C     0.44773   0.12930   0.14015   0.00000  Uiso   1.00
C16    C     0.05405   0.21037   0.18855   0.00000  Uiso   1.00
C17    C     0.47782   0.17316   0.16546   0.00000  Uiso   1.00
C18    C     0.02409   0.16594   0.16519   0.00000  Uiso   1.00
C19    C     0.46166   0.22359   0.19126   0.00000  Uiso   1.00
C20    C     0.04056   0.11493   0.14224   0.00000  Uiso   1.00
C21    C     0.46245   0.08014   0.11727   0.00000  Uiso   1.00
C22    C     0.03970   0.25962   0.21000   0.00000  Uiso   1.00
Cu23   Cu    0.25501   0.17246   0.22813   0.00000  Uiso   1.00
Cu24   Cu    0.24500   0.16087   0.10521   0.00000  Uiso   1.00
H25    H     0.37956   0.09888   0.11779   0.00000  Uiso   1.00
H26    H     0.12219   0.24201   0.20624   0.00000  Uiso   1.00
H27    H     0.43696   0.04829   0.10011   0.00000  Uiso   1.00
H28    H     0.06540   0.29158   0.22429   0.00000  Uiso   1.00
H29    H     0.21353   0.12730   0.31676   0.00000  Uiso   1.00
H30    H     0.28639   0.20614   0.01660   0.00000  Uiso   1.00
N31    N     0.23745   0.15214   0.01284   0.00000  Uiso   1.00
N32    N     0.26256   0.18119   0.32049   0.00000  Uiso   1.00
O33    O     0.25326   0.09538   0.20659   0.00000  Uiso   1.00
O34    O     0.24675   0.23796   0.12674   0.00000  Uiso   1.00
O35    O     0.24480   0.08559   0.10279   0.00000  Uiso   1.00
O36    O     0.25520   0.24774   0.23055   0.00000  Uiso   1.00
O37    O     0.18936   0.17155   0.21857   0.00000  Uiso   1.00
O38    O     0.31065   0.16179   0.11476   0.00000  Uiso   1.00
O39    O     0.18090   0.16176   0.11477   0.00000  Uiso   1.00
O40    O     0.31910   0.17157   0.21857   0.00000  Uiso   1.00
C41    C     0.39723   0.27467   0.23338   0.00000  Uiso   1.00
C42    C     0.34930   0.28107   0.24633   0.00000  Uiso   1.00
C43    C     0.34358   0.00431   0.27982   0.00000  Uiso   1.00
H44    H     0.30901   0.00718   0.29295   0.00000  Uiso   1.00
H45    H     0.36669   0.01597   0.32233   0.00000  Uiso   1.00
H46    H     0.35006   0.03212   0.24976   0.00000  Uiso   1.00
H47    H     0.32960   0.27296   0.20168   0.00000  Uiso   1.00
H48    H     0.33898   0.25533   0.27695   0.00000  Uiso   1.00
H49    H     0.41464   0.27975   0.27959   0.00000  Uiso   1.00
H50    H     0.40459   0.30612   0.20886   0.00000  Uiso   1.00
C51    C     0.11357   0.06257   0.12928   0.00000  Uiso   1.00
C52    C     0.12536   0.04957   0.06240   0.00000  Uiso   1.00
C53    C     0.13309   0.32475   0.04092   0.00000  Uiso   1.00
H54    H     0.16292   0.31533   0.06732   0.00000  Uiso   1.00
H55    H     0.10383   0.29893   0.04692   0.00000  Uiso   1.00
H56    H     0.13861   0.31627   0.32490   0.00000  Uiso   1.00
H57    H     0.09909   0.06071   0.03180   0.00000  Uiso   1.00
H58    H     0.15633   0.07292   0.05766   0.00000  Uiso   1.00
H59    H     0.14550   0.06757   0.15840   0.00000  Uiso   1.00
H60    H     0.09792   0.02906   0.14407   0.00000  Uiso   1.00
C61    C     0.01864   0.01371   0.09327   0.00000  Uiso   1.00
C62    C     0.48016   0.30530   0.06381   0.00000  Uiso   1.00
C63    C     0.49761   0.25274   0.03512   0.00000  Uiso   1.00
H64    H     0.02079   0.25785   0.00039   0.00000  Uiso   1.00
H65    H     0.01549   0.23642   0.07090   0.00000  Uiso   1.00
H66    H     0.46925   0.22416   0.01247   0.00000  Uiso   1.00
H67    H     0.45741   0.29808   0.09821   0.00000  Uiso   1.00
H68    H     0.46043   0.31923   0.02832   0.00000  Uiso   1.00
H69    H     0.04182   0.01408   0.05819   0.00000  Uiso   1.00
H70    H     0.03359   0.33115   0.13074   0.00000  Uiso   1.00
C71    C     0.48565   0.32777   0.23409   0.00000  Uiso   1.00
C72    C     0.02524   0.03576   0.26054   0.00000  Uiso   1.00
C73    C     0.00959   0.08960   0.28850   0.00000  Uiso   1.00
H74    H     0.48849   0.10381   0.25388   0.00000  Uiso   1.00
H75    H     0.48999   0.08720   0.32785   0.00000  Uiso   1.00
H76    H     0.03895   0.11851   0.30506   0.00000  Uiso   1.00
H77    H     0.04469   0.02220   0.29675   0.00000  Uiso   1.00
H78    H     0.04775   0.04112   0.22540   0.00000  Uiso   1.00
H79    H     0.46812   0.00784   0.19606   0.00000  Uiso   1.00
H80    H     0.46531   0.33287   0.27248   0.00000  Uiso   1.00
C81    C     0.28302   0.32196   0.09318   0.00000  Uiso   1.00
H82    H     0.29998   0.01942   0.07362   0.00000  Uiso   1.00
H83    H     0.30995   0.30006   0.10963   0.00000  Uiso   1.00
H84    H     0.26088   0.29592   0.05543   0.00000  Uiso   1.00
C85    C     0.21484   0.01128   0.24062   0.00000  Uiso   1.00
H86    H     0.19940   0.31404   0.26190   0.00000  Uiso   1.00
H87    H     0.23700   0.03855   0.27715   0.00000  Uiso   1.00
H88    H     0.18718   0.03209   0.22439   0.00000  Uiso   1.00
C89    C     0.74952   0.06698   0.15164   0.00000  Uiso   1.00
C90    C     0.74754   0.26585   0.18162   0.00000  Uiso   1.00
C91    C     0.50772   0.07075   0.11808   0.00000  Uiso   1.00
C92    C     0.99479   0.26888   0.21246   0.00000  Uiso   1.00
C93    C     0.75579   0.01247   0.14523   0.00000  Uiso   1.00
C94    C     0.74122   0.32039   0.18790   0.00000  Uiso   1.00
C95    C     0.66469   0.16319   0.16680   0.00000  Uiso   1.00
C96    C     0.83560   0.17348   0.16714   0.00000  Uiso   1.00
C97    C     0.91377   0.22498   0.19565   0.00000  Uiso   1.00
C98    C     0.58879   0.11254   0.14509   0.00000  Uiso   1.00
C99    C     0.88462   0.17895   0.16698   0.00000  Uiso   1.00
C100   C     0.61650   0.15995   0.16747   0.00000  Uiso   1.00
C101   C     0.90220   0.13334   0.13857   0.00000  Uiso   1.00
C102   C     0.59934   0.20695   0.18926   0.00000  Uiso   1.00
C103   C     0.94773   0.12930   0.14015   0.00000  Uiso   1.00
C104   C     0.55405   0.21037   0.18855   0.00000  Uiso   1.00
C105   C     0.97782   0.17316   0.16546   0.00000  Uiso   1.00
C106   C     0.52409   0.16594   0.16519   0.00000  Uiso   1.00
C107   C     0.96166   0.22359   0.19126   0.00000  Uiso   1.00
C108   C     0.54056   0.11493   0.14224   0.00000  Uiso   1.00
C109   C     0.96245   0.08014   0.11727   0.00000  Uiso   1.00
C110   C     0.53970   0.25962   0.21000   0.00000  Uiso   1.00
Cu111  Cu    0.75501   0.17246   0.22813   0.00000  Uiso   1.00
Cu112  Cu    0.74500   0.16087   0.10521   0.00000  Uiso   1.00
H113   H     0.87956   0.09888   0.11779   0.00000  Uiso   1.00
H114   H     0.62219   0.24201   0.20624   0.00000  Uiso   1.00
H115   H     0.93696   0.04829   0.10011   0.00000  Uiso   1.00
H116   H     0.56540   0.29158   0.22429   0.00000  Uiso   1.00
H117   H     0.71353   0.12730   0.31676   0.00000  Uiso   1.00
H118   H     0.78639   0.20614   0.01660   0.00000  Uiso   1.00
N119   N     0.73745   0.15214   0.01284   0.00000  Uiso   1.00
N120   N     0.76256   0.18119   0.32049   0.00000  Uiso   1.00
O121   O     0.75326   0.09538   0.20659   0.00000  Uiso   1.00
O122   O     0.74675   0.23796   0.12674   0.00000  Uiso   1.00
O123   O     0.74480   0.08559   0.10279   0.00000  Uiso   1.00
O124   O     0.75520   0.24774   0.23055   0.00000  Uiso   1.00
O125   O     0.68936   0.17155   0.21857   0.00000  Uiso   1.00
O126   O     0.81065   0.16179   0.11476   0.00000  Uiso   1.00
O127   O     0.68090   0.16176   0.11477   0.00000  Uiso   1.00
O128   O     0.81910   0.17157   0.21857   0.00000  Uiso   1.00
C129   C     0.89723   0.27467   0.23338   0.00000  Uiso   1.00
C130   C     0.84930   0.28107   0.24633   0.00000  Uiso   1.00
C131   C     0.84358   0.00431   0.27982   0.00000  Uiso   1.00
H132   H     0.80901   0.00718   0.29295   0.00000  Uiso   1.00
H133   H     0.86669   0.01597   0.32233   0.00000  Uiso   1.00
H134   H     0.85006   0.03212   0.24976   0.00000  Uiso   1.00
H135   H     0.82960   0.27296   0.20168   0.00000  Uiso   1.00
H136   H     0.83898   0.25533   0.27695   0.00000  Uiso   1.00
H137   H     0.91464   0.27975   0.27959   0.00000  Uiso   1.00
H138   H     0.90459   0.30612   0.20886   0.00000  Uiso   1.00
C139   C     0.61357   0.06257   0.12928   0.00000  Uiso   1.00
C140   C     0.62536   0.04957   0.06240   0.00000  Uiso   1.00
C141   C     0.63309   0.32475   0.04092   0.00000  Uiso   1.00
H142   H     0.66292   0.31533   0.06732   0.00000  Uiso   1.00
H143   H     0.60383   0.29893   0.04692   0.00000  Uiso   1.00
H144   H     0.63861   0.31627   0.32490   0.00000  Uiso   1.00
H145   H     0.59909   0.06071   0.03180   0.00000  Uiso   1.00
H146   H     0.65633   0.07292   0.05766   0.00000  Uiso   1.00
H147   H     0.64550   0.06757   0.15840   0.00000  Uiso   1.00
H148   H     0.59792   0.02906   0.14407   0.00000  Uiso   1.00
C149   C     0.51864   0.01371   0.09327   0.00000  Uiso   1.00
C150   C     0.98016   0.30530   0.06381   0.00000  Uiso   1.00
C151   C     0.99761   0.25274   0.03512   0.00000  Uiso   1.00
H152   H     0.52079   0.25785   0.00039   0.00000  Uiso   1.00
H153   H     0.51549   0.23642   0.07090   0.00000  Uiso   1.00
H154   H     0.96925   0.22416   0.01247   0.00000  Uiso   1.00
H155   H     0.95741   0.29808   0.09821   0.00000  Uiso   1.00
H156   H     0.96043   0.31923   0.02832   0.00000  Uiso   1.00
H157   H     0.54182   0.01408   0.05819   0.00000  Uiso   1.00
H158   H     0.53359   0.33115   0.13074   0.00000  Uiso   1.00
C159   C     0.98565   0.32777   0.23409   0.00000  Uiso   1.00
C160   C     0.52524   0.03576   0.26054   0.00000  Uiso   1.00
C161   C     0.50959   0.08960   0.28850   0.00000  Uiso   1.00
H162   H     0.98849   0.10381   0.25388   0.00000  Uiso   1.00
H163   H     0.98999   0.08720   0.32785   0.00000  Uiso   1.00
H164   H     0.53895   0.11851   0.30506   0.00000  Uiso   1.00
H165   H     0.54469   0.02220   0.29675   0.00000  Uiso   1.00
H166   H     0.54775   0.04112   0.22540   0.00000  Uiso   1.00
H167   H     0.96812   0.00784   0.19606   0.00000  Uiso   1.00
H168   H     0.96531   0.33287   0.27248   0.00000  Uiso   1.00
C169   C     0.78302   0.32196   0.09318   0.00000  Uiso   1.00
H170   H     0.79998   0.01942   0.07362   0.00000  Uiso   1.00
H171   H     0.80995   0.30006   0.10963   0.00000  Uiso   1.00
H172   H     0.76088   0.29592   0.05543   0.00000  Uiso   1.00
C173   C     0.71484   0.01128   0.24062   0.00000  Uiso   1.00
H174   H     0.69940   0.31404   0.26190   0.00000  Uiso   1.00
H175   H     0.73700   0.03855   0.27715   0.00000  Uiso   1.00
H176   H     0.68718   0.03209   0.22439   0.00000  Uiso   1.00
C177   C     0.24952   0.40032   0.15164   0.00000  Uiso   1.00
C178   C     0.24754   0.59918   0.18162   0.00000  Uiso   1.00
C179   C     0.00772   0.40408   0.11808   0.00000  Uiso   1.00
C180   C     0.49479   0.60221   0.21246   0.00000  Uiso   1.00
C181   C     0.25579   0.34581   0.14523   0.00000  Uiso   1.00
C182   C     0.24122   0.65373   0.18790   0.00000  Uiso   1.00
C183   C     0.16469   0.49652   0.16680   0.00000  Uiso   1.00
C184   C     0.33560   0.50682   0.16714   0.00000  Uiso   1.00
C185   C     0.41377   0.55831   0.19565   0.00000  Uiso   1.00
C186   C     0.08879   0.44587   0.14509   0.00000  Uiso   1.00
C187   C     0.38462   0.51229   0.16698   0.00000  Uiso   1.00
C188   C     0.11650   0.49328   0.16747   0.00000  Uiso   1.00
C189   C     0.40220   0.46667   0.13857   0.00000  Uiso   1.00
C190   C     0.09934   0.54029   0.18926   0.00000  Uiso   1.00
C191   C     0.44773   0.46263   0.14015   0.00000  Uiso   1.00
C192   C     0.05405   0.54370   0.18855   0.00000  Uiso   1.00
C193   C     0.47782   0.50649   0.16546   0.00000  Uiso   1.00
C194   C     0.02409   0.49927   0.16519   0.00000  Uiso   1.00
C195   C     0.46166   0.55692   0.19126   0.00000  Uiso   1.00
C196   C     0.04056   0.44826   0.14224   0.00000  Uiso   1.00
C197   C     0.46245   0.41347   0.11727   0.00000  Uiso   1.00
C198   C     0.03970   0.59295   0.21000   0.00000  Uiso   1.00
Cu199  Cu    0.25501   0.50579   0.22813   0.00000  Uiso   1.00
Cu200  Cu    0.24500   0.49421   0.10521   0.00000  Uiso   1.00
H201   H     0.37956   0.43222   0.11779   0.00000  Uiso   1.00
H202   H     0.12219   0.57534   0.20624   0.00000  Uiso   1.00
H203   H     0.43696   0.38163   0.10011   0.00000  Uiso   1.00
H204   H     0.06540   0.62492   0.22429   0.00000  Uiso   1.00
H205   H     0.21353   0.46063   0.31676   0.00000  Uiso   1.00
H206   H     0.28639   0.53947   0.01660   0.00000  Uiso   1.00
N207   N     0.23745   0.48547   0.01284   0.00000  Uiso   1.00
N208   N     0.26256   0.51453   0.32049   0.00000  Uiso   1.00
O209   O     0.25326   0.42871   0.20659   0.00000  Uiso   1.00
O210   O     0.24675   0.57129   0.12674   0.00000  Uiso   1.00
O211   O     0.24480   0.41892   0.10279   0.00000  Uiso   1.00
O212   O     0.25520   0.58108   0.23055   0.00000  Uiso   1.00
O213   O     0.18936   0.50488   0.21857   0.00000  Uiso   1.00
O214   O     0.31065   0.49512   0.11476   0.00000  Uiso   1.00
O215   O     0.18090   0.49510   0.11477   0.00000  Uiso   1.00
O216   O     0.31910   0.50490   0.21857   0.00000  Uiso   1.00
C217   C     0.39723   0.60801   0.23338   0.00000  Uiso   1.00
C218   C     0.34930   0.61440   0.24633   0.00000  Uiso   1.00
C219   C     0.34358   0.33764   0.27982   0.00000  Uiso   1.00
H220   H     0.30901   0.34051   0.29295   0.00000  Uiso   1.00
H221   H     0.36669   0.34930   0.32233   0.00000  Uiso   1.00
H222   H     0.35006   0.36546   0.24976   0.00000  Uiso   1.00
H223   H     0.32960   0.60629   0.20168   0.00000  Uiso   1.00
H224   H     0.33898   0.58866   0.27695   0.00000  Uiso   1.00
H225   H     0.41464   0.61308   0.27959   0.00000  Uiso   1.00
H226   H     0.40459   0.63945   0.20886   0.00000  Uiso   1.00
C227   C     0.11357   0.39590   0.12928   0.00000  Uiso   1.00
C228   C     0.12536   0.38290   0.06240   0.00000  Uiso   1.00
C229   C     0.13309   0.65808   0.04092   0.00000  Uiso   1.00
H230   H     0.16292   0.64866   0.06732   0.00000  Uiso   1.00
H231   H     0.10383   0.63226   0.04692   0.00000  Uiso   1.00
H232   H     0.13861   0.64960   0.32490   0.00000  Uiso   1.00
H233   H     0.09909   0.39404   0.03180   0.00000  Uiso   1.00
H234   H     0.15633   0.40625   0.05766   0.00000  Uiso   1.00
H235   H     0.14550   0.40090   0.15840   0.00000  Uiso   1.00
H236   H     0.09792   0.36239   0.14407   0.00000  Uiso   1.00
C237   C     0.01864   0.34705   0.09327   0.00000  Uiso   1.00
C238   C     0.48016   0.63863   0.06381   0.00000  Uiso   1.00
C239   C     0.49761   0.58607   0.03512   0.00000  Uiso   1.00
H240   H     0.02079   0.59118   0.00039   0.00000  Uiso   1.00
H241   H     0.01549   0.56976   0.07090   0.00000  Uiso   1.00
H242   H     0.46925   0.55749   0.01247   0.00000  Uiso   1.00
H243   H     0.45741   0.63141   0.09821   0.00000  Uiso   1.00
H244   H     0.46043   0.65257   0.02832   0.00000  Uiso   1.00
H245   H     0.04182   0.34741   0.05819   0.00000  Uiso   1.00
H246   H     0.03359   0.66448   0.13074   0.00000  Uiso   1.00
C247   C     0.48565   0.66111   0.23409   0.00000  Uiso   1.00
C248   C     0.02524   0.36909   0.26054   0.00000  Uiso   1.00
C249   C     0.00959   0.42294   0.28850   0.00000  Uiso   1.00
H250   H     0.48849   0.43714   0.25388   0.00000  Uiso   1.00
H251   H     0.48999   0.42054   0.32785   0.00000  Uiso   1.00
H252   H     0.03895   0.45184   0.30506   0.00000  Uiso   1.00
H253   H     0.04469   0.35554   0.29675   0.00000  Uiso   1.00
H254   H     0.04775   0.37445   0.22540   0.00000  Uiso   1.00
H255   H     0.46812   0.34118   0.19606   0.00000  Uiso   1.00
H256   H     0.46531   0.66621   0.27248   0.00000  Uiso   1.00
C257   C     0.28302   0.65529   0.09318   0.00000  Uiso   1.00
H258   H     0.29998   0.35275   0.07362   0.00000  Uiso   1.00
H259   H     0.30995   0.63339   0.10963   0.00000  Uiso   1.00
H260   H     0.26088   0.62925   0.05543   0.00000  Uiso   1.00
C261   C     0.21484   0.34461   0.24062   0.00000  Uiso   1.00
H262   H     0.19940   0.64738   0.26190   0.00000  Uiso   1.00
H263   H     0.23700   0.37188   0.27715   0.00000  Uiso   1.00
H264   H     0.18718   0.36542   0.22439   0.00000  Uiso   1.00
C265   C     0.74952   0.40032   0.15164   0.00000  Uiso   1.00
C266   C     0.74754   0.59918   0.18162   0.00000  Uiso   1.00
C267   C     0.50772   0.40408   0.11808   0.00000  Uiso   1.00
C268   C     0.99479   0.60221   0.21246   0.00000  Uiso   1.00
C269   C     0.75579   0.34581   0.14523   0.00000  Uiso   1.00
C270   C     0.74122   0.65373   0.18790   0.00000  Uiso   1.00
C271   C     0.66469   0.49652   0.16680   0.00000  Uiso   1.00
C272   C     0.83560   0.50682   0.16714   0.00000  Uiso   1.00
C273   C     0.91377   0.55831   0.19565   0.00000  Uiso   1.00
C274   C     0.58879   0.44587   0.14509   0.00000  Uiso   1.00
C275   C     0.88462   0.51229   0.16698   0.00000  Uiso   1.00
C276   C     0.61650   0.49328   0.16747   0.00000  Uiso   1.00
C277   C     0.90220   0.46667   0.13857   0.00000  Uiso   1.00
C278   C     0.59934   0.54029   0.18926   0.00000  Uiso   1.00
C279   C     0.94773   0.46263   0.14015   0.00000  Uiso   1.00
C280   C     0.55405   0.54370   0.18855   0.00000  Uiso   1.00
C281   C     0.97782   0.50649   0.16546   0.00000  Uiso   1.00
C282   C     0.52409   0.49927   0.16519   0.00000  Uiso   1.00
C283   C     0.96166   0.55692   0.19126   0.00000  Uiso   1.00
C284   C     0.54056   0.44826   0.14224   0.00000  Uiso   1.00
C285   C     0.96245   0.41347   0.11727   0.00000  Uiso   1.00
C286   C     0.53970   0.59295   0.21000   0.00000  Uiso   1.00
Cu287  Cu    0.75501   0.50579   0.22813   0.00000  Uiso   1.00
Cu288  Cu    0.74500   0.49421   0.10521   0.00000  Uiso   1.00
H289   H     0.87956   0.43222   0.11779   0.00000  Uiso   1.00
H290   H     0.62219   0.57534   0.20624   0.00000  Uiso   1.00
H291   H     0.93696   0.38163   0.10011   0.00000  Uiso   1.00
H292   H     0.56540   0.62492   0.22429   0.00000  Uiso   1.00
H293   H     0.71353   0.46063   0.31676   0.00000  Uiso   1.00
H294   H     0.78639   0.53947   0.01660   0.00000  Uiso   1.00
N295   N     0.73745   0.48547   0.01284   0.00000  Uiso   1.00
N296   N     0.76256   0.51453   0.32049   0.00000  Uiso   1.00
O297   O     0.75326   0.42871   0.20659   0.00000  Uiso   1.00
O298   O     0.74675   0.57129   0.12674   0.00000  Uiso   1.00
O299   O     0.74480   0.41892   0.10279   0.00000  Uiso   1.00
O300   O     0.75520   0.58108   0.23055   0.00000  Uiso   1.00
O301   O     0.68936   0.50488   0.21857   0.00000  Uiso   1.00
O302   O     0.81065   0.49512   0.11476   0.00000  Uiso   1.00
O303   O     0.68090   0.49510   0.11477   0.00000  Uiso   1.00
O304   O     0.81910   0.50490   0.21857   0.00000  Uiso   1.00
C305   C     0.89723   0.60801   0.23338   0.00000  Uiso   1.00
C306   C     0.84930   0.61440   0.24633   0.00000  Uiso   1.00
C307   C     0.84358   0.33764   0.27982   0.00000  Uiso   1.00
H308   H     0.80901   0.34051   0.29295   0.00000  Uiso   1.00
H309   H     0.86669   0.34930   0.32233   0.00000  Uiso   1.00
H310   H     0.85006   0.36546   0.24976   0.00000  Uiso   1.00
H311   H     0.82960   0.60629   0.20168   0.00000  Uiso   1.00
H312   H     0.83898   0.58866   0.27695   0.00000  Uiso   1.00
H313   H     0.91464   0.61308   0.27959   0.00000  Uiso   1.00
H314   H     0.90459   0.63945   0.20886   0.00000  Uiso   1.00
C315   C     0.61357   0.39590   0.12928   0.00000  Uiso   1.00
C316   C     0.62536   0.38290   0.06240   0.00000  Uiso   1.00
C317   C     0.63309   0.65808   0.04092   0.00000  Uiso   1.00
H318   H     0.66292   0.64866   0.06732   0.00000  Uiso   1.00
H319   H     0.60383   0.63226   0.04692   0.00000  Uiso   1.00
H320   H     0.63861   0.64960   0.32490   0.00000  Uiso   1.00
H321   H     0.59909   0.39404   0.03180   0.00000  Uiso   1.00
H322   H     0.65633   0.40625   0.05766   0.00000  Uiso   1.00
H323   H     0.64550   0.40090   0.15840   0.00000  Uiso   1.00
H324   H     0.59792   0.36239   0.14407   0.00000  Uiso   1.00
C325   C     0.51864   0.34705   0.09327   0.00000  Uiso   1.00
C326   C     0.98016   0.63863   0.06381   0.00000  Uiso   1.00
C327   C     0.99761   0.58607   0.03512   0.00000  Uiso   1.00
H328   H     0.52079   0.59118   0.00039   0.00000  Uiso   1.00
H329   H     0.51549   0.56976   0.07090   0.00000  Uiso   1.00
H330   H     0.96925   0.55749   0.01247   0.00000  Uiso   1.00
H331   H     0.95741   0.63141   0.09821   0.00000  Uiso   1.00
H332   H     0.96043   0.65257   0.02832   0.00000  Uiso   1.00
H333   H     0.54182   0.34741   0.05819   0.00000  Uiso   1.00
H334   H     0.53359   0.66448   0.13074   0.00000  Uiso   1.00
C335   C     0.98565   0.66111   0.23409   0.00000  Uiso   1.00
C336   C     0.52524   0.36909   0.26054   0.00000  Uiso   1.00
C337   C     0.50959   0.42294   0.28850   0.00000  Uiso   1.00
H338   H     0.98849   0.43714   0.25388   0.00000  Uiso   1.00
H339   H     0.98999   0.42054   0.32785   0.00000  Uiso   1.00
H340   H     0.53895   0.45184   0.30506   0.00000  Uiso   1.00
H341   H     0.54469   0.35554   0.29675   0.00000  Uiso   1.00
H342   H     0.54775   0.37445   0.22540   0.00000  Uiso   1.00
H343   H     0.96812   0.34118   0.19606   0.00000  Uiso   1.00
H344   H     0.96531   0.66621   0.27248   0.00000  Uiso   1.00
C345   C     0.78302   0.65529   0.09318   0.00000  Uiso   1.00
H346   H     0.79998   0.35275   0.07362   0.00000  Uiso   1.00
H347   H     0.80995   0.63339   0.10963   0.00000  Uiso   1.00
H348   H     0.76088   0.62925   0.05543   0.00000  Uiso   1.00
C349   C     0.71484   0.34461   0.24062   0.00000  Uiso   1.00
H350   H     0.69940   0.64738   0.26190   0.00000  Uiso   1.00
H351   H     0.73700   0.37188   0.27715   0.00000  Uiso   1.00
H352   H     0.68718   0.36542   0.22439   0.00000  Uiso   1.00
C353   C     0.24952   0.73365   0.15164   0.00000  Uiso   1.00
C354   C     0.24754   0.93251   0.18162   0.00000  Uiso   1.00
C355   C     0.00772   0.73741   0.11808   0.00000  Uiso   1.00
C356   C     0.49479   0.93554   0.21246   0.00000  Uiso   1.00
C357   C     0.25579   0.67914   0.14523   0.00000  Uiso   1.00
C358   C     0.24122   0.98706   0.18790   0.00000  Uiso   1.00
C359   C     0.16469   0.82985   0.16680   0.00000  Uiso   1.00
C360   C     0.33560   0.84015   0.16714   0.00000  Uiso   1.00
C361   C     0.41377   0.89164   0.19565   0.00000  Uiso   1.00
C362   C     0.08879   0.77921   0.14509   0.00000  Uiso   1.00
C363   C     0.38462   0.84562   0.16698   0.00000  Uiso   1.00
C364   C     0.11650   0.82662   0.16747   0.00000  Uiso   1.00
C365   C     0.40220   0.80001   0.13857   0.00000  Uiso   1.00
C366   C     0.09934   0.87362   0.18926   0.00000  Uiso   1.00
C367   C     0.44773   0.79597   0.14015   0.00000  Uiso   1.00
C368   C     0.05405   0.87703   0.18855   0.00000  Uiso   1.00
C369   C     0.47782   0.83982   0.16546   0.00000  Uiso   1.00
C370   C     0.02409   0.83261   0.16519   0.00000  Uiso   1.00
C371   C     0.46166   0.89025   0.19126   0.00000  Uiso   1.00
C372   C     0.04056   0.78159   0.14224   0.00000  Uiso   1.00
C373   C     0.46245   0.74681   0.11727   0.00000  Uiso   1.00
C374   C     0.03970   0.92628   0.21000   0.00000  Uiso   1.00
Cu375  Cu    0.25501   0.83913   0.22813   0.00000  Uiso   1.00
Cu376  Cu    0.24500   0.82754   0.10521   0.00000  Uiso   1.00
H377   H     0.37956   0.76555   0.11779   0.00000  Uiso   1.00
H378   H     0.12219   0.90867   0.20624   0.00000  Uiso   1.00
H379   H     0.43696   0.71496   0.10011   0.00000  Uiso   1.00
H380   H     0.06540   0.95825   0.22429   0.00000  Uiso   1.00
H381   H     0.21353   0.79396   0.31676   0.00000  Uiso   1.00
H382   H     0.28639   0.87281   0.01660   0.00000  Uiso   1.00
N383   N     0.23745   0.81881   0.01284   0.00000  Uiso   1.00
N384   N     0.26256   0.84786   0.32049   0.00000  Uiso   1.00
O385   O     0.25326   0.76204   0.20659   0.00000  Uiso   1.00
O386   O     0.24675   0.90462   0.12674   0.00000  Uiso   1.00
O387   O     0.24480   0.75226   0.10279   0.00000  Uiso   1.00
O388   O     0.25520   0.91441   0.23055   0.00000  Uiso   1.00
O389   O     0.18936   0.83821   0.21857   0.00000  Uiso   1.00
O390   O     0.31065   0.82845   0.11476   0.00000  Uiso   1.00
O391   O     0.18090   0.82843   0.11477   0.00000  Uiso   1.00
O392   O     0.31910   0.83824   0.21857   0.00000  Uiso   1.00
C393   C     0.39723   0.94134   0.23338   0.00000  Uiso   1.00
C394   C     0.34930   0.94774   0.24633   0.00000  Uiso   1.00
C395   C     0.34358   0.67098   0.27982   0.00000  Uiso   1.00
H396   H     0.30901   0.67385   0.29295   0.00000  Uiso   1.00
H397   H     0.36669   0.68263   0.32233   0.00000  Uiso   1.00
H398   H     0.35006   0.69879   0.24976   0.00000  Uiso   1.00
H399   H     0.32960   0.93963   0.20168   0.00000  Uiso   1.00
H400   H     0.33898   0.92200   0.27695   0.00000  Uiso   1.00
H401   H     0.41464   0.94642   0.27959   0.00000  Uiso   1.00
H402   H     0.40459   0.97278   0.20886   0.00000  Uiso   1.00
C403   C     0.11357   0.72923   0.12928   0.00000  Uiso   1.00
C404   C     0.12536   0.71623   0.06240   0.00000  Uiso   1.00
C405   C     0.13309   0.99142   0.04092   0.00000  Uiso   1.00
H406   H     0.16292   0.98200   0.06732   0.00000  Uiso   1.00
H407   H     0.10383   0.96560   0.04692   0.00000  Uiso   1.00
H408   H     0.13861   0.98293   0.32490   0.00000  Uiso   1.00
H409   H     0.09909   0.72738   0.03180   0.00000  Uiso   1.00
H410   H     0.15633   0.73958   0.05766   0.00000  Uiso   1.00
H411   H     0.14550   0.73424   0.15840   0.00000  Uiso   1.00
H412   H     0.09792   0.69573   0.14407   0.00000  Uiso   1.00
C413   C     0.01864   0.68038   0.09327   0.00000  Uiso   1.00
C414   C     0.48016   0.97197   0.06381   0.00000  Uiso   1.00
C415   C     0.49761   0.91940   0.03512   0.00000  Uiso   1.00
H416   H     0.02079   0.92451   0.00039   0.00000  Uiso   1.00
H417   H     0.01549   0.90309   0.07090   0.00000  Uiso   1.00
H418   H     0.46925   0.89083   0.01247   0.00000  Uiso   1.00
H419   H     0.45741   0.96475   0.09821   0.00000  Uiso   1.00
H420   H     0.46043   0.98590   0.02832   0.00000  Uiso   1.00
H421   H     0.04182   0.68075   0.05819   0.00000  Uiso   1.00
H422   H     0.03359   0.99782   0.13074   0.00000  Uiso   1.00
C423   C     0.48565   0.99444   0.23409   0.00000  Uiso   1.00
C424   C     0.02524   0.70242   0.26054   0.00000  Uiso   1.00
C425   C     0.00959   0.75627   0.28850   0.00000  Uiso   1.00
H426   H     0.48849   0.77047   0.25388   0.00000  Uiso   1.00
H427   H     0.48999   0.75387   0.32785   0.00000  Uiso   1.00
H428   H     0.03895   0.78517   0.30506   0.00000  Uiso   1.00
H429   H     0.04469   0.68887   0.29675   0.00000  Uiso   1.00
H430   H     0.04775   0.70779   0.22540   0.00000  Uiso   1.00
H431   H     0.46812   0.67451   0.19606   0.00000  Uiso   1.00
H432   H     0.46531   0.99954   0.27248   0.00000  Uiso   1.00
C433   C     0.28302   0.98862   0.09318   0.00000  Uiso   1.00
H434   H     0.29998   0.68608   0.07362   0.00000  Uiso   1.00
H435   H     0.30995   0.96673   0.10963   0.00000  Uiso   1.00
H436   H     0.26088   0.96258   0.05543   0.00000  Uiso   1.00
C437   C     0.21484   0.67794   0.24062   0.00000  Uiso   1.00
H438   H     0.19940   0.98071   0.26190   0.00000  Uiso   1.00
H439   H     0.23700   0.70522   0.27715   0.00000  Uiso   1.00
H440   H     0.18718   0.69875   0.22439   0.00000  Uiso   1.00
C441   C     0.74952   0.73365   0.15164   0.00000  Uiso   1.00
C442   C     0.74754   0.93251   0.18162   0.00000  Uiso   1.00
C443   C     0.50772   0.73741   0.11808   0.00000  Uiso   1.00
C444   C     0.99479   0.93554   0.21246   0.00000  Uiso   1.00
C445   C     0.75579   0.67914   0.14523   0.00000  Uiso   1.00
C446   C     0.74122   0.98706   0.18790   0.00000  Uiso   1.00
C447   C     0.66469   0.82985   0.16680   0.00000  Uiso   1.00
C448   C     0.83560   0.84015   0.16714   0.00000  Uiso   1.00
C449   C     0.91377   0.89164   0.19565   0.00000  Uiso   1.00
C450   C     0.58879   0.77921   0.14509   0.00000  Uiso   1.00
C451   C     0.88462   0.84562   0.16698   0.00000  Uiso   1.00
C452   C     0.61650   0.82662   0.16747   0.00000  Uiso   1.00
C453   C     0.90220   0.80001   0.13857   0.00000  Uiso   1.00
C454   C     0.59934   0.87362   0.18926   0.00000  Uiso   1.00
C455   C     0.94773   0.79597   0.14015   0.00000  Uiso   1.00
C456   C     0.55405   0.87703   0.18855   0.00000  Uiso   1.00
C457   C     0.97782   0.83982   0.16546   0.00000  Uiso   1.00
C458   C     0.52409   0.83261   0.16519   0.00000  Uiso   1.00
C459   C     0.96166   0.89025   0.19126   0.00000  Uiso   1.00
C460   C     0.54056   0.78159   0.14224   0.00000  Uiso   1.00
C461   C     0.96245   0.74681   0.11727   0.00000  Uiso   1.00
C462   C     0.53970   0.92628   0.21000   0.00000  Uiso   1.00
Cu463  Cu    0.75501   0.83913   0.22813   0.00000  Uiso   1.00
Cu464  Cu    0.74500   0.82754   0.10521   0.00000  Uiso   1.00
H465   H     0.87956   0.76555   0.11779   0.00000  Uiso   1.00
H466   H     0.62219   0.90867   0.20624   0.00000  Uiso   1.00
H467   H     0.93696   0.71496   0.10011   0.00000  Uiso   1.00
H468   H     0.56540   0.95825   0.22429   0.00000  Uiso   1.00
H469   H     0.71353   0.79396   0.31676   0.00000  Uiso   1.00
H470   H     0.78639   0.87281   0.01660   0.00000  Uiso   1.00
N471   N     0.73745   0.81881   0.01284   0.00000  Uiso   1.00
N472   N     0.76256   0.84786   0.32049   0.00000  Uiso   1.00
O473   O     0.75326   0.76204   0.20659   0.00000  Uiso   1.00
O474   O     0.74675   0.90462   0.12674   0.00000  Uiso   1.00
O475   O     0.74480   0.75226   0.10279   0.00000  Uiso   1.00
O476   O     0.75520   0.91441   0.23055   0.00000  Uiso   1.00
O477   O     0.68936   0.83821   0.21857   0.00000  Uiso   1.00
O478   O     0.81065   0.82845   0.11476   0.00000  Uiso   1.00
O479   O     0.68090   0.82843   0.11477   0.00000  Uiso   1.00
O480   O     0.81910   0.83824   0.21857   0.00000  Uiso   1.00
C481   C     0.89723   0.94134   0.23338   0.00000  Uiso   1.00
C482   C     0.84930   0.94774   0.24633   0.00000  Uiso   1.00
C483   C     0.84358   0.67098   0.27982   0.00000  Uiso   1.00
H484   H     0.80901   0.67385   0.29295   0.00000  Uiso   1.00
H485   H     0.86669   0.68263   0.32233   0.00000  Uiso   1.00
H486   H     0.85006   0.69879   0.24976   0.00000  Uiso   1.00
H487   H     0.82960   0.93963   0.20168   0.00000  Uiso   1.00
H488   H     0.83898   0.92200   0.27695   0.00000  Uiso   1.00
H489   H     0.91464   0.94642   0.27959   0.00000  Uiso   1.00
H490   H     0.90459   0.97278   0.20886   0.00000  Uiso   1.00
C491   C     0.61357   0.72923   0.12928   0.00000  Uiso   1.00
C492   C     0.62536   0.71623   0.06240   0.00000  Uiso   1.00
C493   C     0.63309   0.99142   0.04092   0.00000  Uiso   1.00
H494   H     0.66292   0.98200   0.06732   0.00000  Uiso   1.00
H495   H     0.60383   0.96560   0.04692   0.00000  Uiso   1.00
H496   H     0.63861   0.98293   0.32490   0.00000  Uiso   1.00
H497   H     0.59909   0.72738   0.03180   0.00000  Uiso   1.00
H498   H     0.65633   0.73958   0.05766   0.00000  Uiso   1.00
H499   H     0.64550   0.73424   0.15840   0.00000  Uiso   1.00
H500   H     0.59792   0.69573   0.14407   0.00000  Uiso   1.00
C501   C     0.51864   0.68038   0.09327   0.00000  Uiso   1.00
C502   C     0.98016   0.97197   0.06381   0.00000  Uiso   1.00
C503   C     0.99761   0.91940   0.03512   0.00000  Uiso   1.00
H504   H     0.52079   0.92451   0.00039   0.00000  Uiso   1.00
H505   H     0.51549   0.90309   0.07090   0.00000  Uiso   1.00
H506   H     0.96925   0.89083   0.01247   0.00000  Uiso   1.00
H507   H     0.95741   0.96475   0.09821   0.00000  Uiso   1.00
H508   H     0.96043   0.98590   0.02832   0.00000  Uiso   1.00
H509   H     0.54182   0.68075   0.05819   0.00000  Uiso   1.00
H510   H     0.53359   0.99782   0.13074   0.00000  Uiso   1.00
C511   C     0.98565   0.99444   0.23409   0.00000  Uiso   1.00
C512   C     0.52524   0.70242   0.26054   0.00000  Uiso   1.00
C513   C     0.50959   0.75627   0.28850   0.00000  Uiso   1.00
H514   H     0.98849   0.77047   0.25388   0.00000  Uiso   1.00
H515   H     0.98999   0.75387   0.32785   0.00000  Uiso   1.00
H516   H     0.53895   0.78517   0.30506   0.00000  Uiso   1.00
H517   H     0.54469   0.68887   0.29675   0.00000  Uiso   1.00
H518   H     0.54775   0.70779   0.22540   0.00000  Uiso   1.00
H519   H     0.96812   0.67451   0.19606   0.00000  Uiso   1.00
H520   H     0.96531   0.99954   0.27248   0.00000  Uiso   1.00
C521   C     0.78302   0.98862   0.09318   0.00000  Uiso   1.00
H522   H     0.79998   0.68608   0.07362   0.00000  Uiso   1.00
H523   H     0.80995   0.96673   0.10963   0.00000  Uiso   1.00
H524   H     0.76088   0.96258   0.05543   0.00000  Uiso   1.00
C525   C     0.71484   0.67794   0.24062   0.00000  Uiso   1.00
H526   H     0.69940   0.98071   0.26190   0.00000  Uiso   1.00
H527   H     0.73700   0.70522   0.27715   0.00000  Uiso   1.00
H528   H     0.68718   0.69875   0.22439   0.00000  Uiso   1.00
C529   C     0.24952   0.06698   0.48497   0.00000  Uiso   1.00
C530   C     0.24754   0.26585   0.51496   0.00000  Uiso   1.00
C531   C     0.00772   0.07075   0.45141   0.00000  Uiso   1.00
C532   C     0.49479   0.26888   0.54579   0.00000  Uiso   1.00
C533   C     0.25579   0.01247   0.47856   0.00000  Uiso   1.00
C534   C     0.24122   0.32039   0.52123   0.00000  Uiso   1.00
C535   C     0.16469   0.16319   0.50013   0.00000  Uiso   1.00
C536   C     0.33560   0.17348   0.50048   0.00000  Uiso   1.00
C537   C     0.41377   0.22498   0.52898   0.00000  Uiso   1.00
C538   C     0.08879   0.11254   0.47842   0.00000  Uiso   1.00
C539   C     0.38462   0.17895   0.50031   0.00000  Uiso   1.00
C540   C     0.11650   0.15995   0.50081   0.00000  Uiso   1.00
C541   C     0.40220   0.13334   0.47190   0.00000  Uiso   1.00
C542   C     0.09934   0.20695   0.52259   0.00000  Uiso   1.00
C543   C     0.44773   0.12930   0.47348   0.00000  Uiso   1.00
C544   C     0.05405   0.21037   0.52189   0.00000  Uiso   1.00
C545   C     0.47782   0.17316   0.49879   0.00000  Uiso   1.00
C546   C     0.02409   0.16594   0.49853   0.00000  Uiso   1.00
C547   C     0.46166   0.22359   0.52460   0.00000  Uiso   1.00
C548   C     0.04056   0.11493   0.47557   0.00000  Uiso   1.00
C549   C     0.46245   0.08014   0.45060   0.00000  Uiso   1.00
C550   C     0.03970   0.25962   0.54333   0.00000  Uiso   1.00
Cu551  Cu    0.25501   0.17246   0.56146   0.00000  Uiso   1.00
Cu552  Cu    0.24500   0.16087   0.43854   0.00000  Uiso   1.00
H553   H     0.37956   0.09888   0.45112   0.00000  Uiso   1.00
H554   H     0.12219   0.24201   0.53957   0.00000  Uiso   1.00
H555   H     0.43696   0.04829   0.43344   0.00000  Uiso   1.00
H556   H     0.06540   0.29158   0.55763   0.00000  Uiso   1.00
H557   H     0.21353   0.12730   0.65009   0.00000  Uiso   1.00
H558   H     0.28639   0.20614   0.34994   0.00000  Uiso   1.00
N559   N     0.23745   0.15214   0.34617   0.00000  Uiso   1.00
N560   N     0.26256   0.18119   0.65383   0.00000  Uiso   1.00
O561   O     0.25326   0.09538   0.53992   0.00000  Uiso   1.00
O562   O     0.24675   0.23796   0.46008   0.00000  Uiso   1.00
O563   O     0.24480   0.08559   0.43612   0.00000  Uiso   1.00
O564   O     0.25520   0.24774   0.56388   0.00000  Uiso   1.00
O565   O     0.18936   0.17155   0.55191   0.00000  Uiso   1.00
O566   O     0.31065   0.16179   0.44809   0.00000  Uiso   1.00
O567   O     0.18090   0.16176   0.44810   0.00000  Uiso   1.00
O568   O     0.31910   0.17157   0.55190   0.00000  Uiso   1.00
C569   C     0.39723   0.27467   0.56672   0.00000  Uiso   1.00
C570   C     0.34930   0.28107   0.57966   0.00000  Uiso   1.00
C571   C     0.34358   0.00431   0.61316   0.00000  Uiso   1.00
H572   H     0.30901   0.00718   0.62628   0.00000  Uiso   1.00
H573   H     0.36669   0.01597   0.65566   0.00000  Uiso   1.00
H574   H     0.35006   0.03212   0.58309   0.00000  Uiso   1.00
H575   H     0.32960   0.27296   0.53501   0.00000  Uiso   1.00
H576   H     0.33898   0.25533   0.61028   0.00000  Uiso   1.00
H577   H     0.41464   0.27975   0.61293   0.00000  Uiso   1.00
H578   H     0.40459   0.30612   0.54219   0.00000  Uiso   1.00
C579   C     0.11357   0.06257   0.46261   0.00000  Uiso   1.00
C580   C     0.12536   0.04957   0.39573   0.00000  Uiso   1.00
C581   C     0.13309   0.32475   0.37425   0.00000  Uiso   1.00
H582   H     0.16292   0.31533   0.40066   0.00000  Uiso   1.00
H583   H     0.10383   0.29893   0.38026   0.00000  Uiso   1.00
H584   H     0.13861   0.31627   0.65823   0.00000  Uiso   1.00
H585   H     0.09909   0.06071   0.36513   0.00000  Uiso   1.00
H586   H     0.15633   0.07292   0.39099   0.00000  Uiso   1.00
H587   H     0.14550   0.06757   0.49173   0.00000  Uiso   1.00
H588   H     0.09792   0.02906   0.47741   0.00000  Uiso   1.00
C589   C     0.01864   0.01371   0.42660   0.00000  Uiso   1.00
C590   C     0.48016   0.30530   0.39714   0.00000  Uiso   1.00
C591   C     0.49761   0.25274   0.36845   0.00000  Uiso   1.00
H592   H     0.02079   0.25785   0.33372   0.00000  Uiso   1.00
H593   H     0.01549   0.23642   0.40423   0.00000  Uiso   1.00
H594   H     0.46925   0.22416   0.34580   0.00000  Uiso   1.00
H595   H     0.45741   0.29808   0.43154   0.00000  Uiso   1.00
H596   H     0.46043   0.31923   0.36165   0.00000  Uiso   1.00
H597   H     0.04182   0.01408   0.39152   0.00000  Uiso   1.00
H598   H     0.03359   0.33115   0.46408   0.00000  Uiso   1.00
C599   C     0.48565   0.32777   0.56742   0.00000  Uiso   1.00
C600   C     0.02524   0.03576   0.59387   0.00000  Uiso   1.00
C601   C     0.00959   0.08960   0.62183   0.00000  Uiso   1.00
H602   H     0.48849   0.10381   0.58721   0.00000  Uiso   1.00
H603   H     0.48999   0.08720   0.66118   0.00000  Uiso   1.00
H604   H     0.03895   0.11851   0.63840   0.00000  Uiso   1.00
H605   H     0.04469   0.02220   0.63008   0.00000  Uiso   1.00
H606   H     0.04775   0.04112   0.55873   0.00000  Uiso   1.00
H607   H     0.46812   0.00784   0.52939   0.00000  Uiso   1.00
H608   H     0.46531   0.33287   0.60582   0.00000  Uiso   1.00
C609   C     0.28302   0.32196   0.42651   0.00000  Uiso   1.00
H610   H     0.29998   0.01942   0.40696   0.00000  Uiso   1.00
H611   H     0.30995   0.30006   0.44296   0.00000  Uiso   1.00
H612   H     0.26088   0.29592   0.38876   0.00000  Uiso   1.00
C613   C     0.21484   0.01128   0.57395   0.00000  Uiso   1.00
H614   H     0.19940   0.31404   0.59523   0.00000  Uiso   1.00
H615   H     0.23700   0.03855   0.61048   0.00000  Uiso   1.00
H616   H     0.18718   0.03209   0.55772   0.00000  Uiso   1.00
C617   C     0.74952   0.06698   0.48497   0.00000  Uiso   1.00
C618   C     0.74754   0.26585   0.51496   0.00000  Uiso   1.00
C619   C     0.50772   0.07075   0.45141   0.00000  Uiso   1.00
C620   C     0.99479   0.26888   0.54579   0.00000  Uiso   1.00
C621   C     0.75579   0.01247   0.47856   0.00000  Uiso   1.00
C622   C     0.74122   0.32039   0.52123   0.00000  Uiso   1.00
C623   C     0.66469   0.16319   0.50013   0.00000  Uiso   1.00
C624   C     0.83560   0.17348   0.50048   0.00000  Uiso   1.00
C625   C     0.91377   0.22498   0.52898   0.00000  Uiso   1.00
C626   C     0.58879   0.11254   0.47842   0.00000  Uiso   1.00
C627   C     0.88462   0.17895   0.50031   0.00000  Uiso   1.00
C628   C     0.61650   0.15995   0.50081   0.00000  Uiso   1.00
C629   C     0.90220   0.13334   0.47190   0.00000  Uiso   1.00
C630   C     0.59934   0.20695   0.52259   0.00000  Uiso   1.00
C631   C     0.94773   0.12930   0.47348   0.00000  Uiso   1.00
C632   C     0.55405   0.21037   0.52189   0.00000  Uiso   1.00
C633   C     0.97782   0.17316   0.49879   0.00000  Uiso   1.00
C634   C     0.52409   0.16594   0.49853   0.00000  Uiso   1.00
C635   C     0.96166   0.22359   0.52460   0.00000  Uiso   1.00
C636   C     0.54056   0.11493   0.47557   0.00000  Uiso   1.00
C637   C     0.96245   0.08014   0.45060   0.00000  Uiso   1.00
C638   C     0.53970   0.25962   0.54333   0.00000  Uiso   1.00
Cu639  Cu    0.75501   0.17246   0.56146   0.00000  Uiso   1.00
Cu640  Cu    0.74500   0.16087   0.43854   0.00000  Uiso   1.00
H641   H     0.87956   0.09888   0.45112   0.00000  Uiso   1.00
H642   H     0.62219   0.24201   0.53957   0.00000  Uiso   1.00
H643   H     0.93696   0.04829   0.43344   0.00000  Uiso   1.00
H644   H     0.56540   0.29158   0.55763   0.00000  Uiso   1.00
H645   H     0.71353   0.12730   0.65009   0.00000  Uiso   1.00
H646   H     0.78639   0.20614   0.34994   0.00000  Uiso   1.00
N647   N     0.73745   0.15214   0.34617   0.00000  Uiso   1.00
N648   N     0.76256   0.18119   0.65383   0.00000  Uiso   1.00
O649   O     0.75326   0.09538   0.53992   0.00000  Uiso   1.00
O650   O     0.74675   0.23796   0.46008   0.00000  Uiso   1.00
O651   O     0.74480   0.08559   0.43612   0.00000  Uiso   1.00
O652   O     0.75520   0.24774   0.56388   0.00000  Uiso   1.00
O653   O     0.68936   0.17155   0.55191   0.00000  Uiso   1.00
O654   O     0.81065   0.16179   0.44809   0.00000  Uiso   1.00
O655   O     0.68090   0.16176   0.44810   0.00000  Uiso   1.00
O656   O     0.81910   0.17157   0.55190   0.00000  Uiso   1.00
C657   C     0.89723   0.27467   0.56672   0.00000  Uiso   1.00
C658   C     0.84930   0.28107   0.57966   0.00000  Uiso   1.00
C659   C     0.84358   0.00431   0.61316   0.00000  Uiso   1.00
H660   H     0.80901   0.00718   0.62628   0.00000  Uiso   1.00
H661   H     0.86669   0.01597   0.65566   0.00000  Uiso   1.00
H662   H     0.85006   0.03212   0.58309   0.00000  Uiso   1.00
H663   H     0.82960   0.27296   0.53501   0.00000  Uiso   1.00
H664   H     0.83898   0.25533   0.61028   0.00000  Uiso   1.00
H665   H     0.91464   0.27975   0.61293   0.00000  Uiso   1.00
H666   H     0.90459   0.30612   0.54219   0.00000  Uiso   1.00
C667   C     0.61357   0.06257   0.46261   0.00000  Uiso   1.00
C668   C     0.62536   0.04957   0.39573   0.00000  Uiso   1.00
C669   C     0.63309   0.32475   0.37425   0.00000  Uiso   1.00
H670   H     0.66292   0.31533   0.40066   0.00000  Uiso   1.00
H671   H     0.60383   0.29893   0.38026   0.00000  Uiso   1.00
H672   H     0.63861   0.31627   0.65823   0.00000  Uiso   1.00
H673   H     0.59909   0.06071   0.36513   0.00000  Uiso   1.00
H674   H     0.65633   0.07292   0.39099   0.00000  Uiso   1.00
H675   H     0.64550   0.06757   0.49173   0.00000  Uiso   1.00
H676   H     0.59792   0.02906   0.47741   0.00000  Uiso   1.00
C677   C     0.51864   0.01371   0.42660   0.00000  Uiso   1.00
C678   C     0.98016   0.30530   0.39714   0.00000  Uiso   1.00
C679   C     0.99761   0.25274   0.36845   0.00000  Uiso   1.00
H680   H     0.52079   0.25785   0.33372   0.00000  Uiso   1.00
H681   H     0.51549   0.23642   0.40423   0.00000  Uiso   1.00
H682   H     0.96925   0.22416   0.34580   0.00000  Uiso   1.00
H683   H     0.95741   0.29808   0.43154   0.00000  Uiso   1.00
H684   H     0.96043   0.31923   0.36165   0.00000  Uiso   1.00
H685   H     0.54182   0.01408   0.39152   0.00000  Uiso   1.00
H686   H     0.53359   0.33115   0.46408   0.00000  Uiso   1.00
C687   C     0.98565   0.32777   0.56742   0.00000  Uiso   1.00
C688   C     0.52524   0.03576   0.59387   0.00000  Uiso   1.00
C689   C     0.50959   0.08960   0.62183   0.00000  Uiso   1.00
H690   H     0.98849   0.10381   0.58721   0.00000  Uiso   1.00
H691   H     0.98999   0.08720   0.66118   0.00000  Uiso   1.00
H692   H     0.53895   0.11851   0.63840   0.00000  Uiso   1.00
H693   H     0.54469   0.02220   0.63008   0.00000  Uiso   1.00
H694   H     0.54775   0.04112   0.55873   0.00000  Uiso   1.00
H695   H     0.96812   0.00784   0.52939   0.00000  Uiso   1.00
H696   H     0.96531   0.33287   0.60582   0.00000  Uiso   1.00
C697   C     0.78302   0.32196   0.42651   0.00000  Uiso   1.00
H698   H     0.79998   0.01942   0.40696   0.00000  Uiso   1.00
H699   H     0.80995   0.30006   0.44296   0.00000  Uiso   1.00
H700   H     0.76088   0.29592   0.38876   0.00000  Uiso   1.00
C701   C     0.71484   0.01128   0.57395   0.00000  Uiso   1.00
H702   H     0.69940   0.31404   0.59523   0.00000  Uiso   1.00
H703   H     0.73700   0.03855   0.61048   0.00000  Uiso   1.00
H704   H     0.68718   0.03209   0.55772   0.00000  Uiso   1.00
C705   C     0.24952   0.40032   0.48497   0.00000  Uiso   1.00
C706   C     0.24754   0.59918   0.51496   0.00000  Uiso   1.00
C707   C     0.00772   0.40408   0.45141   0.00000  Uiso   1.00
C708   C     0.49479   0.60221   0.54579   0.00000  Uiso   1.00
C709   C     0.25579   0.34581   0.47856   0.00000  Uiso   1.00
C710   C     0.24122   0.65373   0.52123   0.00000  Uiso   1.00
C711   C     0.16469   0.49652   0.50013   0.00000  Uiso   1.00
C712   C     0.33560   0.50682   0.50048   0.00000  Uiso   1.00
C713   C     0.41377   0.55831   0.52898   0.00000  Uiso   1.00
C714   C     0.08879   0.44587   0.47842   0.00000  Uiso   1.00
C715   C     0.38462   0.51229   0.50031   0.00000  Uiso   1.00
C716   C     0.11650   0.49328   0.50081   0.00000  Uiso   1.00
C717   C     0.40220   0.46667   0.47190   0.00000  Uiso   1.00
C718   C     0.09934   0.54029   0.52259   0.00000  Uiso   1.00
C719   C     0.44773   0.46263   0.47348   0.00000  Uiso   1.00
C720   C     0.05405   0.54370   0.52189   0.00000  Uiso   1.00
C721   C     0.47782   0.50649   0.49879   0.00000  Uiso   1.00
C722   C     0.02409   0.49927   0.49853   0.00000  Uiso   1.00
C723   C     0.46166   0.55692   0.52460   0.00000  Uiso   1.00
C724   C     0.04056   0.44826   0.47557   0.00000  Uiso   1.00
C725   C     0.46245   0.41347   0.45060   0.00000  Uiso   1.00
C726   C     0.03970   0.59295   0.54333   0.00000  Uiso   1.00
Cu727  Cu    0.25501   0.50579   0.56146   0.00000  Uiso   1.00
Cu728  Cu    0.24500   0.49421   0.43854   0.00000  Uiso   1.00
H729   H     0.37956   0.43222   0.45112   0.00000  Uiso   1.00
H730   H     0.12219   0.57534   0.53957   0.00000  Uiso   1.00
H731   H     0.43696   0.38163   0.43344   0.00000  Uiso   1.00
H732   H     0.06540   0.62492   0.55763   0.00000  Uiso   1.00
H733   H     0.21353   0.46063   0.65009   0.00000  Uiso   1.00
H734   H     0.28639   0.53947   0.34994   0.00000  Uiso   1.00
N735   N     0.23745   0.48547   0.34617   0.00000  Uiso   1.00
N736   N     0.26256   0.51453   0.65383   0.00000  Uiso   1.00
O737   O     0.25326   0.42871   0.53992   0.00000  Uiso   1.00
O738   O     0.24675   0.57129   0.46008   0.00000  Uiso   1.00
O739   O     0.24480   0.41892   0.43612   0.00000  Uiso   1.00
O740   O     0.25520   0.58108   0.56388   0.00000  Uiso   1.00
O741   O     0.18936   0.50488   0.55191   0.00000  Uiso   1.00
O742   O     0.31065   0.49512   0.44809   0.00000  Uiso   1.00
O743   O     0.18090   0.49510   0.44810   0.00000  Uiso   1.00
O744   O     0.31910   0.50490   0.55190   0.00000  Uiso   1.00
C745   C     0.39723   0.60801   0.56672   0.00000  Uiso   1.00
C746   C     0.34930   0.61440   0.57966   0.00000  Uiso   1.00
C747   C     0.34358   0.33764   0.61316   0.00000  Uiso   1.00
H748   H     0.30901   0.34051   0.62628   0.00000  Uiso   1.00
H749   H     0.36669   0.34930   0.65566   0.00000  Uiso   1.00
H750   H     0.35006   0.36546   0.58309   0.00000  Uiso   1.00
H751   H     0.32960   0.60629   0.53501   0.00000  Uiso   1.00
H752   H     0.33898   0.58866   0.61028   0.00000  Uiso   1.00
H753   H     0.41464   0.61308   0.61293   0.00000  Uiso   1.00
H754   H     0.40459   0.63945   0.54219   0.00000  Uiso   1.00
C755   C     0.11357   0.39590   0.46261   0.00000  Uiso   1.00
C756   C     0.12536   0.38290   0.39573   0.00000  Uiso   1.00
C757   C     0.13309   0.65808   0.37425   0.00000  Uiso   1.00
H758   H     0.16292   0.64866   0.40066   0.00000  Uiso   1.00
H759   H     0.10383   0.63226   0.38026   0.00000  Uiso   1.00
H760   H     0.13861   0.64960   0.65823   0.00000  Uiso   1.00
H761   H     0.09909   0.39404   0.36513   0.00000  Uiso   1.00
H762   H     0.15633   0.40625   0.39099   0.00000  Uiso   1.00
H763   H     0.14550   0.40090   0.49173   0.00000  Uiso   1.00
H764   H     0.09792   0.36239   0.47741   0.00000  Uiso   1.00
C765   C     0.01864   0.34705   0.42660   0.00000  Uiso   1.00
C766   C     0.48016   0.63863   0.39714   0.00000  Uiso   1.00
C767   C     0.49761   0.58607   0.36845   0.00000  Uiso   1.00
H768   H     0.02079   0.59118   0.33372   0.00000  Uiso   1.00
H769   H     0.01549   0.56976   0.40423   0.00000  Uiso   1.00
H770   H     0.46925   0.55749   0.34580   0.00000  Uiso   1.00
H771   H     0.45741   0.63141   0.43154   0.00000  Uiso   1.00
H772   H     0.46043   0.65257   0.36165   0.00000  Uiso   1.00
H773   H     0.04182   0.34741   0.39152   0.00000  Uiso   1.00
H774   H     0.03359   0.66448   0.46408   0.00000  Uiso   1.00
C775   C     0.48565   0.66111   0.56742   0.00000  Uiso   1.00
C776   C     0.02524   0.36909   0.59387   0.00000  Uiso   1.00
C777   C     0.00959   0.42294   0.62183   0.00000  Uiso   1.00
H778   H     0.48849   0.43714   0.58721   0.00000  Uiso   1.00
H779   H     0.48999   0.42054   0.66118   0.00000  Uiso   1.00
H780   H     0.03895   0.45184   0.63840   0.00000  Uiso   1.00
H781   H     0.04469   0.35554   0.63008   0.00000  Uiso   1.00
H782   H     0.04775   0.37445   0.55873   0.00000  Uiso   1.00
H783   H     0.46812   0.34118   0.52939   0.00000  Uiso   1.00
H784   H     0.46531   0.66621   0.60582   0.00000  Uiso   1.00
C785   C     0.28302   0.65529   0.42651   0.00000  Uiso   1.00
H786   H     0.29998   0.35275   0.40696   0.00000  Uiso   1.00
H787   H     0.30995   0.63339   0.44296   0.00000  Uiso   1.00
H788   H     0.26088   0.62925   0.38876   0.00000  Uiso   1.00
C789   C     0.21484   0.34461   0.57395   0.00000  Uiso   1.00
H790   H     0.19940   0.64738   0.59523   0.00000  Uiso   1.00
H791   H     0.23700   0.37188   0.61048   0.00000  Uiso   1.00
H792   H     0.18718   0.36542   0.55772   0.00000  Uiso   1.00
C793   C     0.74952   0.40032   0.48497   0.00000  Uiso   1.00
C794   C     0.74754   0.59918   0.51496   0.00000  Uiso   1.00
C795   C     0.50772   0.40408   0.45141   0.00000  Uiso   1.00
C796   C     0.99479   0.60221   0.54579   0.00000  Uiso   1.00
C797   C     0.75579   0.34581   0.47856   0.00000  Uiso   1.00
C798   C     0.74122   0.65373   0.52123   0.00000  Uiso   1.00
C799   C     0.66469   0.49652   0.50013   0.00000  Uiso   1.00
C800   C     0.83560   0.50682   0.50048   0.00000  Uiso   1.00
C801   C     0.91377   0.55831   0.52898   0.00000  Uiso   1.00
C802   C     0.58879   0.44587   0.47842   0.00000  Uiso   1.00
C803   C     0.88462   0.51229   0.50031   0.00000  Uiso   1.00
C804   C     0.61650   0.49328   0.50081   0.00000  Uiso   1.00
C805   C     0.90220   0.46667   0.47190   0.00000  Uiso   1.00
C806   C     0.59934   0.54029   0.52259   0.00000  Uiso   1.00
C807   C     0.94773   0.46263   0.47348   0.00000  Uiso   1.00
C808   C     0.55405   0.54370   0.52189   0.00000  Uiso   1.00
C809   C     0.97782   0.50649   0.49879   0.00000  Uiso   1.00
C810   C     0.52409   0.49927   0.49853   0.00000  Uiso   1.00
C811   C     0.96166   0.55692   0.52460   0.00000  Uiso   1.00
C812   C     0.54056   0.44826   0.47557   0.00000  Uiso   1.00
C813   C     0.96245   0.41347   0.45060   0.00000  Uiso   1.00
C814   C     0.53970   0.59295   0.54333   0.00000  Uiso   1.00
Cu815  Cu    0.75501   0.50579   0.56146   0.00000  Uiso   1.00
Cu816  Cu    0.74500   0.49421   0.43854   0.00000  Uiso   1.00
H817   H     0.87956   0.43222   0.45112   0.00000  Uiso   1.00
H818   H     0.62219   0.57534   0.53957   0.00000  Uiso   1.00
H819   H     0.93696   0.38163   0.43344   0.00000  Uiso   1.00
H820   H     0.56540   0.62492   0.55763   0.00000  Uiso   1.00
H821   H     0.71353   0.46063   0.65009   0.00000  Uiso   1.00
H822   H     0.78639   0.53947   0.34994   0.00000  Uiso   1.00
N823   N     0.73745   0.48547   0.34617   0.00000  Uiso   1.00
N824   N     0.76256   0.51453   0.65383   0.00000  Uiso   1.00
O825   O     0.75326   0.42871   0.53992   0.00000  Uiso   1.00
O826   O     0.74675   0.57129   0.46008   0.00000  Uiso   1.00
O827   O     0.74480   0.41892   0.43612   0.00000  Uiso   1.00
O828   O     0.75520   0.58108   0.56388   0.00000  Uiso   1.00
O829   O     0.68936   0.50488   0.55191   0.00000  Uiso   1.00
O830   O     0.81065   0.49512   0.44809   0.00000  Uiso   1.00
O831   O     0.68090   0.49510   0.44810   0.00000  Uiso   1.00
O832   O     0.81910   0.50490   0.55190   0.00000  Uiso   1.00
C833   C     0.89723   0.60801   0.56672   0.00000  Uiso   1.00
C834   C     0.84930   0.61440   0.57966   0.00000  Uiso   1.00
C835   C     0.84358   0.33764   0.61316   0.00000  Uiso   1.00
H836   H     0.80901   0.34051   0.62628   0.00000  Uiso   1.00
H837   H     0.86669   0.34930   0.65566   0.00000  Uiso   1.00
H838   H     0.85006   0.36546   0.58309   0.00000  Uiso   1.00
H839   H     0.82960   0.60629   0.53501   0.00000  Uiso   1.00
H840   H     0.83898   0.58866   0.61028   0.00000  Uiso   1.00
H841   H     0.91464   0.61308   0.61293   0.00000  Uiso   1.00
H842   H     0.90459   0.63945   0.54219   0.00000  Uiso   1.00
C843   C     0.61357   0.39590   0.46261   0.00000  Uiso   1.00
C844   C     0.62536   0.38290   0.39573   0.00000  Uiso   1.00
C845   C     0.63309   0.65808   0.37425   0.00000  Uiso   1.00
H846   H     0.66292   0.64866   0.40066   0.00000  Uiso   1.00
H847   H     0.60383   0.63226   0.38026   0.00000  Uiso   1.00
H848   H     0.63861   0.64960   0.65823   0.00000  Uiso   1.00
H849   H     0.59909   0.39404   0.36513   0.00000  Uiso   1.00
H850   H     0.65633   0.40625   0.39099   0.00000  Uiso   1.00
H851   H     0.64550   0.40090   0.49173   0.00000  Uiso   1.00
H852   H     0.59792   0.36239   0.47741   0.00000  Uiso   1.00
C853   C     0.51864   0.34705   0.42660   0.00000  Uiso   1.00
C854   C     0.98016   0.63863   0.39714   0.00000  Uiso   1.00
C855   C     0.99761   0.58607   0.36845   0.00000  Uiso   1.00
H856   H     0.52079   0.59118   0.33372   0.00000  Uiso   1.00
H857   H     0.51549   0.56976   0.40423   0.00000  Uiso   1.00
H858   H     0.96925   0.55749   0.34580   0.00000  Uiso   1.00
H859   H     0.95741   0.63141   0.43154   0.00000  Uiso   1.00
H860   H     0.96043   0.65257   0.36165   0.00000  Uiso   1.00
H861   H     0.54182   0.34741   0.39152   0.00000  Uiso   1.00
H862   H     0.53359   0.66448   0.46408   0.00000  Uiso   1.00
C863   C     0.98565   0.66111   0.56742   0.00000  Uiso   1.00
C864   C     0.52524   0.36909   0.59387   0.00000  Uiso   1.00
C865   C     0.50959   0.42294   0.62183   0.00000  Uiso   1.00
H866   H     0.98849   0.43714   0.58721   0.00000  Uiso   1.00
H867   H     0.98999   0.42054   0.66118   0.00000  Uiso   1.00
H868   H     0.53895   0.45184   0.63840   0.00000  Uiso   1.00
H869   H     0.54469   0.35554   0.63008   0.00000  Uiso   1.00
H870   H     0.54775   0.37445   0.55873   0.00000  Uiso   1.00
H871   H     0.96812   0.34118   0.52939   0.00000  Uiso   1.00
H872   H     0.96531   0.66621   0.60582   0.00000  Uiso   1.00
C873   C     0.78302   0.65529   0.42651   0.00000  Uiso   1.00
H874   H     0.79998   0.35275   0.40696   0.00000  Uiso   1.00
H875   H     0.80995   0.63339   0.44296   0.00000  Uiso   1.00
H876   H     0.76088   0.62925   0.38876   0.00000  Uiso   1.00
C877   C     0.71484   0.34461   0.57395   0.00000  Uiso   1.00
H878   H     0.69940   0.64738   0.59523   0.00000  Uiso   1.00
H879   H     0.73700   0.37188   0.61048   0.00000  Uiso   1.00
H880   H     0.68718   0.36542   0.55772   0.00000  Uiso   1.00
C881   C     0.24952   0.73365   0.48497   0.00000  Uiso   1.00
C882   C     0.24754   0.93251   0.51496   0.00000  Uiso   1.00
C883   C     0.00772   0.73741   0.45141   0.00000  Uiso   1.00
C884   C     0.49479   0.93554   0.54579   0.00000  Uiso   1.00
C885   C     0.25579   0.67914   0.47856   0.00000  Uiso   1.00
C886   C     0.24122   0.98706   0.52123   0.00000  Uiso   1.00
C887   C     0.16469   0.82985   0.50013   0.00000  Uiso   1.00
C888   C     0.33560   0.84015   0.50048   0.00000  Uiso   1.00
C889   C     0.41377   0.89164   0.52898   0.00000  Uiso   1.00
C890   C     0.08879   0.77921   0.47842   0.00000  Uiso   1.00
C891   C     0.38462   0.84562   0.50031   0.00000  Uiso   1.00
C892   C     0.11650   0.82662   0.50081   0.00000  Uiso   1.00
C893   C     0.40220   0.80001   0.47190   0.00000  Uiso   1.00
C894   C     0.09934   0.87362   0.52259   0.00000  Uiso   1.00
C895   C     0.44773   0.79597   0.47348   0.00000  Uiso   1.00
C896   C     0.05405   0.87703   0.52189   0.00000  Uiso   1.00
C897   C     0.47782   0.83982   0.49879   0.00000  Uiso   1.00
C898   C     0.02409   0.83261   0.49853   0.00000  Uiso   1.00
C899   C     0.46166   0.89025   0.52460   0.00000  Uiso   1.00
C900   C     0.04056   0.78159   0.47557   0.00000  Uiso   1.00
C901   C     0.46245   0.74681   0.45060   0.00000  Uiso   1.00
C902   C     0.03970   0.92628   0.54333   0.00000  Uiso   1.00
Cu903  Cu    0.25501   0.83913   0.56146   0.00000  Uiso   1.00
Cu904  Cu    0.24500   0.82754   0.43854   0.00000  Uiso   1.00
H905   H     0.37956   0.76555   0.45112   0.00000  Uiso   1.00
H906   H     0.12219   0.90867   0.53957   0.00000  Uiso   1.00
H907   H     0.43696   0.71496   0.43344   0.00000  Uiso   1.00
H908   H     0.06540   0.95825   0.55763   0.00000  Uiso   1.00
H909   H     0.21353   0.79396   0.65009   0.00000  Uiso   1.00
H910   H     0.28639   0.87281   0.34994   0.00000  Uiso   1.00
N911   N     0.23745   0.81881   0.34617   0.00000  Uiso   1.00
N912   N     0.26256   0.84786   0.65383   0.00000  Uiso   1.00
O913   O     0.25326   0.76204   0.53992   0.00000  Uiso   1.00
O914   O     0.24675   0.90462   0.46008   0.00000  Uiso   1.00
O915   O     0.24480   0.75226   0.43612   0.00000  Uiso   1.00
O916   O     0.25520   0.91441   0.56388   0.00000  Uiso   1.00
O917   O     0.18936   0.83821   0.55191   0.00000  Uiso   1.00
O918   O     0.31065   0.82845   0.44809   0.00000  Uiso   1.00
O919   O     0.18090   0.82843   0.44810   0.00000  Uiso   1.00
O920   O     0.31910   0.83824   0.55190   0.00000  Uiso   1.00
C921   C     0.39723   0.94134   0.56672   0.00000  Uiso   1.00
C922   C     0.34930   0.94774   0.57966   0.00000  Uiso   1.00
C923   C     0.34358   0.67098   0.61316   0.00000  Uiso   1.00
H924   H     0.30901   0.67385   0.62628   0.00000  Uiso   1.00
H925   H     0.36669   0.68263   0.65566   0.00000  Uiso   1.00
H926   H     0.35006   0.69879   0.58309   0.00000  Uiso   1.00
H927   H     0.32960   0.93963   0.53501   0.00000  Uiso   1.00
H928   H     0.33898   0.92200   0.61028   0.00000  Uiso   1.00
H929   H     0.41464   0.94642   0.61293   0.00000  Uiso   1.00
H930   H     0.40459   0.97278   0.54219   0.00000  Uiso   1.00
C931   C     0.11357   0.72923   0.46261   0.00000  Uiso   1.00
C932   C     0.12536   0.71623   0.39573   0.00000  Uiso   1.00
C933   C     0.13309   0.99142   0.37425   0.00000  Uiso   1.00
H934   H     0.16292   0.98200   0.40066   0.00000  Uiso   1.00
H935   H     0.10383   0.96560   0.38026   0.00000  Uiso   1.00
H936   H     0.13861   0.98293   0.65823   0.00000  Uiso   1.00
H937   H     0.09909   0.72738   0.36513   0.00000  Uiso   1.00
H938   H     0.15633   0.73958   0.39099   0.00000  Uiso   1.00
H939   H     0.14550   0.73424   0.49173   0.00000  Uiso   1.00
H940   H     0.09792   0.69573   0.47741   0.00000  Uiso   1.00
C941   C     0.01864   0.68038   0.42660   0.00000  Uiso   1.00
C942   C     0.48016   0.97197   0.39714   0.00000  Uiso   1.00
C943   C     0.49761   0.91940   0.36845   0.00000  Uiso   1.00
H944   H     0.02079   0.92451   0.33372   0.00000  Uiso   1.00
H945   H     0.01549   0.90309   0.40423   0.00000  Uiso   1.00
H946   H     0.46925   0.89083   0.34580   0.00000  Uiso   1.00
H947   H     0.45741   0.96475   0.43154   0.00000  Uiso   1.00
H948   H     0.46043   0.98590   0.36165   0.00000  Uiso   1.00
H949   H     0.04182   0.68075   0.39152   0.00000  Uiso   1.00
H950   H     0.03359   0.99782   0.46408   0.00000  Uiso   1.00
C951   C     0.48565   0.99444   0.56742   0.00000  Uiso   1.00
C952   C     0.02524   0.70242   0.59387   0.00000  Uiso   1.00
C953   C     0.00959   0.75627   0.62183   0.00000  Uiso   1.00
H954   H     0.48849   0.77047   0.58721   0.00000  Uiso   1.00
H955   H     0.48999   0.75387   0.66118   0.00000  Uiso   1.00
H956   H     0.03895   0.78517   0.63840   0.00000  Uiso   1.00
H957   H     0.04469   0.68887   0.63008   0.00000  Uiso   1.00
H958   H     0.04775   0.70779   0.55873   0.00000  Uiso   1.00
H959   H     0.46812   0.67451   0.52939   0.00000  Uiso   1.00
H960   H     0.46531   0.99954   0.60582   0.00000  Uiso   1.00
C961   C     0.28302   0.98862   0.42651   0.00000  Uiso   1.00
H962   H     0.29998   0.68608   0.40696   0.00000  Uiso   1.00
H963   H     0.30995   0.96673   0.44296   0.00000  Uiso   1.00
H964   H     0.26088   0.96258   0.38876   0.00000  Uiso   1.00
C965   C     0.21484   0.67794   0.57395   0.00000  Uiso   1.00
H966   H     0.19940   0.98071   0.59523   0.00000  Uiso   1.00
H967   H     0.23700   0.70522   0.61048   0.00000  Uiso   1.00
H968   H     0.18718   0.69875   0.55772   0.00000  Uiso   1.00
C969   C     0.74952   0.73365   0.48497   0.00000  Uiso   1.00
C970   C     0.74754   0.93251   0.51496   0.00000  Uiso   1.00
C971   C     0.50772   0.73741   0.45141   0.00000  Uiso   1.00
C972   C     0.99479   0.93554   0.54579   0.00000  Uiso   1.00
C973   C     0.75579   0.67914   0.47856   0.00000  Uiso   1.00
C974   C     0.74122   0.98706   0.52123   0.00000  Uiso   1.00
C975   C     0.66469   0.82985   0.50013   0.00000  Uiso   1.00
C976   C     0.83560   0.84015   0.50048   0.00000  Uiso   1.00
C977   C     0.91377   0.89164   0.52898   0.00000  Uiso   1.00
C978   C     0.58879   0.77921   0.47842   0.00000  Uiso   1.00
C979   C     0.88462   0.84562   0.50031   0.00000  Uiso   1.00
C980   C     0.61650   0.82662   0.50081   0.00000  Uiso   1.00
C981   C     0.90220   0.80001   0.47190   0.00000  Uiso   1.00
C982   C     0.59934   0.87362   0.52259   0.00000  Uiso   1.00
C983   C     0.94773   0.79597   0.47348   0.00000  Uiso   1.00
C984   C     0.55405   0.87703   0.52189   0.00000  Uiso   1.00
C985   C     0.97782   0.83982   0.49879   0.00000  Uiso   1.00
C986   C     0.52409   0.83261   0.49853   0.00000  Uiso   1.00
C987   C     0.96166   0.89025   0.52460   0.00000  Uiso   1.00
C988   C     0.54056   0.78159   0.47557   0.00000  Uiso   1.00
C989   C     0.96245   0.74681   0.45060   0.00000  Uiso   1.00
C990   C     0.53970   0.92628   0.54333   0.00000  Uiso   1.00
Cu991  Cu    0.75501   0.83913   0.56146   0.00000  Uiso   1.00
Cu992  Cu    0.74500   0.82754   0.43854   0.00000  Uiso   1.00
H993   H     0.87956   0.76555   0.45112   0.00000  Uiso   1.00
H994   H     0.62219   0.90867   0.53957   0.00000  Uiso   1.00
H995   H     0.93696   0.71496   0.43344   0.00000  Uiso   1.00
H996   H     0.56540   0.95825   0.55763   0.00000  Uiso   1.00
H997   H     0.71353   0.79396   0.65009   0.00000  Uiso   1.00
H998   H     0.78639   0.87281   0.34994   0.00000  Uiso   1.00
N999   N     0.73745   0.81881   0.34617   0.00000  Uiso   1.00
N1000  N     0.76256   0.84786   0.65383   0.00000  Uiso   1.00
O1001  O     0.75326   0.76204   0.53992   0.00000  Uiso   1.00
O1002  O     0.74675   0.90462   0.46008   0.00000  Uiso   1.00
O1003  O     0.74480   0.75226   0.43612   0.00000  Uiso   1.00
O1004  O     0.75520   0.91441   0.56388   0.00000  Uiso   1.00
O1005  O     0.68936   0.83821   0.55191   0.00000  Uiso   1.00
O1006  O     0.81065   0.82845   0.44809   0.00000  Uiso   1.00
O1007  O     0.68090   0.82843   0.44810   0.00000  Uiso   1.00
O1008  O     0.81910   0.83824   0.55190   0.00000  Uiso   1.00
C1009  C     0.89723   0.94134   0.56672   0.00000  Uiso   1.00
C1010  C     0.84930   0.94774   0.57966   0.00000  Uiso   1.00
C1011  C     0.84358   0.67098   0.61316   0.00000  Uiso   1.00
H1012  H     0.80901   0.67385   0.62628   0.00000  Uiso   1.00
H1013  H     0.86669   0.68263   0.65566   0.00000  Uiso   1.00
H1014  H     0.85006   0.69879   0.58309   0.00000  Uiso   1.00
H1015  H     0.82960   0.93963   0.53501   0.00000  Uiso   1.00
H1016  H     0.83898   0.92200   0.61028   0.00000  Uiso   1.00
H1017  H     0.91464   0.94642   0.61293   0.00000  Uiso   1.00
H1018  H     0.90459   0.97278   0.54219   0.00000  Uiso   1.00
C1019  C     0.61357   0.72923   0.46261   0.00000  Uiso   1.00
C1020  C     0.62536   0.71623   0.39573   0.00000  Uiso   1.00
C1021  C     0.63309   0.99142   0.37425   0.00000  Uiso   1.00
H1022  H     0.66292   0.98200   0.40066   0.00000  Uiso   1.00
H1023  H     0.60383   0.96560   0.38026   0.00000  Uiso   1.00
H1024  H     0.63861   0.98293   0.65823   0.00000  Uiso   1.00
H1025  H     0.59909   0.72738   0.36513   0.00000  Uiso   1.00
H1026  H     0.65633   0.73958   0.39099   0.00000  Uiso   1.00
H1027  H     0.64550   0.73424   0.49173   0.00000  Uiso   1.00
H1028  H     0.59792   0.69573   0.47741   0.00000  Uiso   1.00
C1029  C     0.51864   0.68038   0.42660   0.00000  Uiso   1.00
C1030  C     0.98016   0.97197   0.39714   0.00000  Uiso   1.00
C1031  C     0.99761   0.91940   0.36845   0.00000  Uiso   1.00
H1032  H     0.52079   0.92451   0.33372   0.00000  Uiso   1.00
H1033  H     0.51549   0.90309   0.40423   0.00000  Uiso   1.00
H1034  H     0.96925   0.89083   0.34580   0.00000  Uiso   1.00
H1035  H     0.95741   0.96475   0.43154   0.00000  Uiso   1.00
H1036  H     0.96043   0.98590   0.36165   0.00000  Uiso   1.00
H1037  H     0.54182   0.68075   0.39152   0.00000  Uiso   1.00
H1038  H     0.53359   0.99782   0.46408   0.00000  Uiso   1.00
C1039  C     0.98565   0.99444   0.56742   0.00000  Uiso   1.00
C1040  C     0.52524   0.70242   0.59387   0.00000  Uiso   1.00
C1041  C     0.50959   0.75627   0.62183   0.00000  Uiso   1.00
H1042  H     0.98849   0.77047   0.58721   0.00000  Uiso   1.00
H1043  H     0.98999   0.75387   0.66118   0.00000  Uiso   1.00
H1044  H     0.53895   0.78517   0.63840   0.00000  Uiso   1.00
H1045  H     0.54469   0.68887   0.63008   0.00000  Uiso   1.00
H1046  H     0.54775   0.70779   0.55873   0.00000  Uiso   1.00
H1047  H     0.96812   0.67451   0.52939   0.00000  Uiso   1.00
H1048  H     0.96531   0.99954   0.60582   0.00000  Uiso   1.00
C1049  C     0.78302   0.98862   0.42651   0.00000  Uiso   1.00
H1050  H     0.79998   0.68608   0.40696   0.00000  Uiso   1.00
H1051  H     0.80995   0.96673   0.44296   0.00000  Uiso   1.00
H1052  H     0.76088   0.96258   0.38876   0.00000  Uiso   1.00
C1053  C     0.71484   0.67794   0.57395   0.00000  Uiso   1.00
H1054  H     0.69940   0.98071   0.59523   0.00000  Uiso   1.00
H1055  H     0.73700   0.70522   0.61048   0.00000  Uiso   1.00
H1056  H     0.68718   0.69875   0.55772   0.00000  Uiso   1.00
C1057  C     0.24952   0.06698   0.81831   0.00000  Uiso   1.00
C1058  C     0.24754   0.26585   0.84829   0.00000  Uiso   1.00
C1059  C     0.00772   0.07075   0.78475   0.00000  Uiso   1.00
C1060  C     0.49479   0.26888   0.87912   0.00000  Uiso   1.00
C1061  C     0.25579   0.01247   0.81190   0.00000  Uiso   1.00
C1062  C     0.24122   0.32039   0.85456   0.00000  Uiso   1.00
C1063  C     0.16469   0.16319   0.83346   0.00000  Uiso   1.00
C1064  C     0.33560   0.17348   0.83381   0.00000  Uiso   1.00
C1065  C     0.41377   0.22498   0.86232   0.00000  Uiso   1.00
C1066  C     0.08879   0.11254   0.81175   0.00000  Uiso   1.00
C1067  C     0.38462   0.17895   0.83364   0.00000  Uiso   1.00
C1068  C     0.11650   0.15995   0.83414   0.00000  Uiso   1.00
C1069  C     0.40220   0.13334   0.80523   0.00000  Uiso   1.00
C1070  C     0.09934   0.20695   0.85592   0.00000  Uiso   1.00
C1071  C     0.44773   0.12930   0.80682   0.00000  Uiso   1.00
C1072  C     0.05405   0.21037   0.85522   0.00000  Uiso   1.00
C1073  C     0.47782   0.17316   0.83213   0.00000  Uiso   1.00
C1074  C     0.02409   0.16594   0.83186   0.00000  Uiso   1.00
C1075  C     0.46166   0.22359   0.85793   0.00000  Uiso   1.00
C1076  C     0.04056   0.11493   0.80891   0.00000  Uiso   1.00
C1077  C     0.46245   0.08014   0.78393   0.00000  Uiso   1.00
C1078  C     0.03970   0.25962   0.87666   0.00000  Uiso   1.00
Cu1079 Cu    0.25501   0.17246   0.89479   0.00000  Uiso   1.00
Cu1080 Cu    0.24500   0.16087   0.77187   0.00000  Uiso   1.00
H1081  H     0.37956   0.09888   0.78445   0.00000  Uiso   1.00
H1082  H     0.12219   0.24201   0.87290   0.00000  Uiso   1.00
H1083  H     0.43696   0.04829   0.76678   0.00000  Uiso   1.00
H1084  H     0.06540   0.29158   0.89096   0.00000  Uiso   1.00
H1085  H     0.21353   0.12730   0.98343   0.00000  Uiso   1.00
H1086  H     0.28639   0.20614   0.68327   0.00000  Uiso   1.00
N1087  N     0.23745   0.15214   0.67951   0.00000  Uiso   1.00
N1088  N     0.26256   0.18119   0.98716   0.00000  Uiso   1.00
O1089  O     0.25326   0.09538   0.87326   0.00000  Uiso   1.00
O1090  O     0.24675   0.23796   0.79341   0.00000  Uiso   1.00
O1091  O     0.24480   0.08559   0.76945   0.00000  Uiso   1.00
O1092  O     0.25520   0.24774   0.89721   0.00000  Uiso   1.00
O1093  O     0.18936   0.17155   0.88524   0.00000  Uiso   1.00
O1094  O     0.31065   0.16179   0.78143   0.00000  Uiso   1.00
O1095  O     0.18090   0.16176   0.78143   0.00000  Uiso   1.00
O1096  O     0.31910   0.17157   0.88523   0.00000  Uiso   1.00
C1097  C     0.39723   0.27467   0.90005   0.00000  Uiso   1.00
C1098  C     0.34930   0.28107   0.91299   0.00000  Uiso   1.00
C1099  C     0.34358   0.00431   0.94649   0.00000  Uiso   1.00
H1100  H     0.30901   0.00718   0.95962   0.00000  Uiso   1.00
H1101  H     0.36669   0.01597   0.98899   0.00000  Uiso   1.00
H1102  H     0.35006   0.03212   0.91642   0.00000  Uiso   1.00
H1103  H     0.32960   0.27296   0.86834   0.00000  Uiso   1.00
H1104  H     0.33898   0.25533   0.94361   0.00000  Uiso   1.00
H1105  H     0.41464   0.27975   0.94626   0.00000  Uiso   1.00
H1106  H     0.40459   0.30612   0.87552   0.00000  Uiso   1.00
C1107  C     0.11357   0.06257   0.79594   0.00000  Uiso   1.00
C1108  C     0.12536   0.04957   0.72907   0.00000  Uiso   1.00
C1109  C     0.13309   0.32475   0.70758   0.00000  Uiso   1.00
H1110  H     0.16292   0.31533   0.73399   0.00000  Uiso   1.00
H1111  H     0.10383   0.29893   0.71359   0.00000  Uiso   1.00
H1112  H     0.13861   0.31627   0.99156   0.00000  Uiso   1.00
H1113  H     0.09909   0.06071   0.69846   0.00000  Uiso   1.00
H1114  H     0.15633   0.07292   0.72432   0.00000  Uiso   1.00
H1115  H     0.14550   0.06757   0.82506   0.00000  Uiso   1.00
H1116  H     0.09792   0.02906   0.81074   0.00000  Uiso   1.00
C1117  C     0.01864   0.01371   0.75993   0.00000  Uiso   1.00
C1118  C     0.48016   0.30530   0.73047   0.00000  Uiso   1.00
C1119  C     0.49761   0.25274   0.70178   0.00000  Uiso   1.00
H1120  H     0.02079   0.25785   0.66705   0.00000  Uiso   1.00
H1121  H     0.01549   0.23642   0.73756   0.00000  Uiso   1.00
H1122  H     0.46925   0.22416   0.67914   0.00000  Uiso   1.00
H1123  H     0.45741   0.29808   0.76487   0.00000  Uiso   1.00
H1124  H     0.46043   0.31923   0.69498   0.00000  Uiso   1.00
H1125  H     0.04182   0.01408   0.72485   0.00000  Uiso   1.00
H1126  H     0.03359   0.33115   0.79741   0.00000  Uiso   1.00
C1127  C     0.48565   0.32777   0.90076   0.00000  Uiso   1.00
C1128  C     0.02524   0.03576   0.92720   0.00000  Uiso   1.00
C1129  C     0.00959   0.08960   0.95517   0.00000  Uiso   1.00
H1130  H     0.48849   0.10381   0.92054   0.00000  Uiso   1.00
H1131  H     0.48999   0.08720   0.99452   0.00000  Uiso   1.00
H1132  H     0.03895   0.11851   0.97173   0.00000  Uiso   1.00
H1133  H     0.04469   0.02220   0.96341   0.00000  Uiso   1.00
H1134  H     0.04775   0.04112   0.89207   0.00000  Uiso   1.00
H1135  H     0.46812   0.00784   0.86272   0.00000  Uiso   1.00
H1136  H     0.46531   0.33287   0.93915   0.00000  Uiso   1.00
C1137  C     0.28302   0.32196   0.75984   0.00000  Uiso   1.00
H1138  H     0.29998   0.01942   0.74029   0.00000  Uiso   1.00
H1139  H     0.30995   0.30006   0.77629   0.00000  Uiso   1.00
H1140  H     0.26088   0.29592   0.72209   0.00000  Uiso   1.00
C1141  C     0.21484   0.01128   0.90729   0.00000  Uiso   1.00
H1142  H     0.19940   0.31404   0.92856   0.00000  Uiso   1.00
H1143  H     0.23700   0.03855   0.94382   0.00000  Uiso   1.00
H1144  H     0.18718   0.03209   0.89106   0.00000  Uiso   1.00
C1145  C     0.74952   0.06698   0.81831   0.00000  Uiso   1.00
C1146  C     0.74754   0.26585   0.84829   0.00000  Uiso   1.00
C1147  C     0.50772   0.07075   0.78475   0.00000  Uiso   1.00
C1148  C     0.99479   0.26888   0.87912   0.00000  Uiso   1.00
C1149  C     0.75579   0.01247   0.81190   0.00000  Uiso   1.00
C1150  C     0.74122   0.32039   0.85456   0.00000  Uiso   1.00
C1151  C     0.66469   0.16319   0.83346   0.00000  Uiso   1.00
C1152  C     0.83560   0.17348   0.83381   0.00000  Uiso   1.00
C1153  C     0.91377   0.22498   0.86232   0.00000  Uiso   1.00
C1154  C     0.58879   0.11254   0.81175   0.00000  Uiso   1.00
C1155  C     0.88462   0.17895   0.83364   0.00000  Uiso   1.00
C1156  C     0.61650   0.15995   0.83414   0.00000  Uiso   1.00
C1157  C     0.90220   0.13334   0.80523   0.00000  Uiso   1.00
C1158  C     0.59934   0.20695   0.85592   0.00000  Uiso   1.00
C1159  C     0.94773   0.12930   0.80682   0.00000  Uiso   1.00
C1160  C     0.55405   0.21037   0.85522   0.00000  Uiso   1.00
C1161  C     0.97782   0.17316   0.83213   0.00000  Uiso   1.00
C1162  C     0.52409   0.16594   0.83186   0.00000  Uiso   1.00
C1163  C     0.96166   0.22359   0.85793   0.00000  Uiso   1.00
C1164  C     0.54056   0.11493   0.80891   0.00000  Uiso   1.00
C1165  C     0.96245   0.08014   0.78393   0.00000  Uiso   1.00
C1166  C     0.53970   0.25962   0.87666   0.00000  Uiso   1.00
Cu1167 Cu    0.75501   0.17246   0.89479   0.00000  Uiso   1.00
Cu1168 Cu    0.74500   0.16087   0.77187   0.00000  Uiso   1.00
H1169  H     0.87956   0.09888   0.78445   0.00000  Uiso   1.00
H1170  H     0.62219   0.24201   0.87290   0.00000  Uiso   1.00
H1171  H     0.93696   0.04829   0.76678   0.00000  Uiso   1.00
H1172  H     0.56540   0.29158   0.89096   0.00000  Uiso   1.00
H1173  H     0.71353   0.12730   0.98343   0.00000  Uiso   1.00
H1174  H     0.78639   0.20614   0.68327   0.00000  Uiso   1.00
N1175  N     0.73745   0.15214   0.67951   0.00000  Uiso   1.00
N1176  N     0.76256   0.18119   0.98716   0.00000  Uiso   1.00
O1177  O     0.75326   0.09538   0.87326   0.00000  Uiso   1.00
O1178  O     0.74675   0.23796   0.79341   0.00000  Uiso   1.00
O1179  O     0.74480   0.08559   0.76945   0.00000  Uiso   1.00
O1180  O     0.75520   0.24774   0.89721   0.00000  Uiso   1.00
O1181  O     0.68936   0.17155   0.88524   0.00000  Uiso   1.00
O1182  O     0.81065   0.16179   0.78143   0.00000  Uiso   1.00
O1183  O     0.68090   0.16176   0.78143   0.00000  Uiso   1.00
O1184  O     0.81910   0.17157   0.88523   0.00000  Uiso   1.00
C1185  C     0.89723   0.27467   0.90005   0.00000  Uiso   1.00
C1186  C     0.84930   0.28107   0.91299   0.00000  Uiso   1.00
C1187  C     0.84358   0.00431   0.94649   0.00000  Uiso   1.00
H1188  H     0.80901   0.00718   0.95962   0.00000  Uiso   1.00
H1189  H     0.86669   0.01597   0.98899   0.00000  Uiso   1.00
H1190  H     0.85006   0.03212   0.91642   0.00000  Uiso   1.00
H1191  H     0.82960   0.27296   0.86834   0.00000  Uiso   1.00
H1192  H     0.83898   0.25533   0.94361   0.00000  Uiso   1.00
H1193  H     0.91464   0.27975   0.94626   0.00000  Uiso   1.00
H1194  H     0.90459   0.30612   0.87552   0.00000  Uiso   1.00
C1195  C     0.61357   0.06257   0.79594   0.00000  Uiso   1.00
C1196  C     0.62536   0.04957   0.72907   0.00000  Uiso   1.00
C1197  C     0.63309   0.32475   0.70758   0.00000  Uiso   1.00
H1198  H     0.66292   0.31533   0.73399   0.00000  Uiso   1.00
H1199  H     0.60383   0.29893   0.71359   0.00000  Uiso   1.00
H1200  H     0.63861   0.31627   0.99156   0.00000  Uiso   1.00
H1201  H     0.59909   0.06071   0.69846   0.00000  Uiso   1.00
H1202  H     0.65633   0.07292   0.72432   0.00000  Uiso   1.00
H1203  H     0.64550   0.06757   0.82506   0.00000  Uiso   1.00
H1204  H     0.59792   0.02906   0.81074   0.00000  Uiso   1.00
C1205  C     0.51864   0.01371   0.75993   0.00000  Uiso   1.00
C1206  C     0.98016   0.30530   0.73047   0.00000  Uiso   1.00
C1207  C     0.99761   0.25274   0.70178   0.00000  Uiso   1.00
H1208  H     0.52079   0.25785   0.66705   0.00000  Uiso   1.00
H1209  H     0.51549   0.23642   0.73756   0.00000  Uiso   1.00
H1210  H     0.96925   0.22416   0.67914   0.00000  Uiso   1.00
H1211  H     0.95741   0.29808   0.76487   0.00000  Uiso   1.00
H1212  H     0.96043   0.31923   0.69498   0.00000  Uiso   1.00
H1213  H     0.54182   0.01408   0.72485   0.00000  Uiso   1.00
H1214  H     0.53359   0.33115   0.79741   0.00000  Uiso   1.00
C1215  C     0.98565   0.32777   0.90076   0.00000  Uiso   1.00
C1216  C     0.52524   0.03576   0.92720   0.00000  Uiso   1.00
C1217  C     0.50959   0.08960   0.95517   0.00000  Uiso   1.00
H1218  H     0.98849   0.10381   0.92054   0.00000  Uiso   1.00
H1219  H     0.98999   0.08720   0.99452   0.00000  Uiso   1.00
H1220  H     0.53895   0.11851   0.97173   0.00000  Uiso   1.00
H1221  H     0.54469   0.02220   0.96341   0.00000  Uiso   1.00
H1222  H     0.54775   0.04112   0.89207   0.00000  Uiso   1.00
H1223  H     0.96812   0.00784   0.86272   0.00000  Uiso   1.00
H1224  H     0.96531   0.33287   0.93915   0.00000  Uiso   1.00
C1225  C     0.78302   0.32196   0.75984   0.00000  Uiso   1.00
H1226  H     0.79998   0.01942   0.74029   0.00000  Uiso   1.00
H1227  H     0.80995   0.30006   0.77629   0.00000  Uiso   1.00
H1228  H     0.76088   0.29592   0.72209   0.00000  Uiso   1.00
C1229  C     0.71484   0.01128   0.90729   0.00000  Uiso   1.00
H1230  H     0.69940   0.31404   0.92856   0.00000  Uiso   1.00
H1231  H     0.73700   0.03855   0.94382   0.00000  Uiso   1.00
H1232  H     0.68718   0.03209   0.89106   0.00000  Uiso   1.00
C1233  C     0.24952   0.40032   0.81831   0.00000  Uiso   1.00
C1234  C     0.24754   0.59918   0.84829   0.00000  Uiso   1.00
C1235  C     0.00772   0.40408   0.78475   0.00000  Uiso   1.00
C1236  C     0.49479   0.60221   0.87912   0.00000  Uiso   1.00
C1237  C     0.25579   0.34581   0.81190   0.00000  Uiso   1.00
C1238  C     0.24122   0.65373   0.85456   0.00000  Uiso   1.00
C1239  C     0.16469   0.49652   0.83346   0.00000  Uiso   1.00
C1240  C     0.33560   0.50682   0.83381   0.00000  Uiso   1.00
C1241  C     0.41377   0.55831   0.86232   0.00000  Uiso   1.00
C1242  C     0.08879   0.44587   0.81175   0.00000  Uiso   1.00
C1243  C     0.38462   0.51229   0.83364   0.00000  Uiso   1.00
C1244  C     0.11650   0.49328   0.83414   0.00000  Uiso   1.00
C1245  C     0.40220   0.46667   0.80523   0.00000  Uiso   1.00
C1246  C     0.09934   0.54029   0.85592   0.00000  Uiso   1.00
C1247  C     0.44773   0.46263   0.80682   0.00000  Uiso   1.00
C1248  C     0.05405   0.54370   0.85522   0.00000  Uiso   1.00
C1249  C     0.47782   0.50649   0.83213   0.00000  Uiso   1.00
C1250  C     0.02409   0.49927   0.83186   0.00000  Uiso   1.00
C1251  C     0.46166   0.55692   0.85793   0.00000  Uiso   1.00
C1252  C     0.04056   0.44826   0.80891   0.00000  Uiso   1.00
C1253  C     0.46245   0.41347   0.78393   0.00000  Uiso   1.00
C1254  C     0.03970   0.59295   0.87666   0.00000  Uiso   1.00
Cu1255 Cu    0.25501   0.50579   0.89479   0.00000  Uiso   1.00
Cu1256 Cu    0.24500   0.49421   0.77187   0.00000  Uiso   1.00
H1257  H     0.37956   0.43222   0.78445   0.00000  Uiso   1.00
H1258  H     0.12219   0.57534   0.87290   0.00000  Uiso   1.00
H1259  H     0.43696   0.38163   0.76678   0.00000  Uiso   1.00
H1260  H     0.06540   0.62492   0.89096   0.00000  Uiso   1.00
H1261  H     0.21353   0.46063   0.98343   0.00000  Uiso   1.00
H1262  H     0.28639   0.53947   0.68327   0.00000  Uiso   1.00
N1263  N     0.23745   0.48547   0.67951   0.00000  Uiso   1.00
N1264  N     0.26256   0.51453   0.98716   0.00000  Uiso   1.00
O1265  O     0.25326   0.42871   0.87326   0.00000  Uiso   1.00
O1266  O     0.24675   0.57129   0.79341   0.00000  Uiso   1.00
O1267  O     0.24480   0.41892   0.76945   0.00000  Uiso   1.00
O1268  O     0.25520   0.58108   0.89721   0.00000  Uiso   1.00
O1269  O     0.18936   0.50488   0.88524   0.00000  Uiso   1.00
O1270  O     0.31065   0.49512   0.78143   0.00000  Uiso   1.00
O1271  O     0.18090   0.49510   0.78143   0.00000  Uiso   1.00
O1272  O     0.31910   0.50490   0.88523   0.00000  Uiso   1.00
C1273  C     0.39723   0.60801   0.90005   0.00000  Uiso   1.00
C1274  C     0.34930   0.61440   0.91299   0.00000  Uiso   1.00
C1275  C     0.34358   0.33764   0.94649   0.00000  Uiso   1.00
H1276  H     0.30901   0.34051   0.95962   0.00000  Uiso   1.00
H1277  H     0.36669   0.34930   0.98899   0.00000  Uiso   1.00
H1278  H     0.35006   0.36546   0.91642   0.00000  Uiso   1.00
H1279  H     0.32960   0.60629   0.86834   0.00000  Uiso   1.00
H1280  H     0.33898   0.58866   0.94361   0.00000  Uiso   1.00
H1281  H     0.41464   0.61308   0.94626   0.00000  Uiso   1.00
H1282  H     0.40459   0.63945   0.87552   0.00000  Uiso   1.00
C1283  C     0.11357   0.39590   0.79594   0.00000  Uiso   1.00
C1284  C     0.12536   0.38290   0.72907   0.00000  Uiso   1.00
C1285  C     0.13309   0.65808   0.70758   0.00000  Uiso   1.00
H1286  H     0.16292   0.64866   0.73399   0.00000  Uiso   1.00
H1287  H     0.10383   0.63226   0.71359   0.00000  Uiso   1.00
H1288  H     0.13861   0.64960   0.99156   0.00000  Uiso   1.00
H1289  H     0.09909   0.39404   0.69846   0.00000  Uiso   1.00
H1290  H     0.15633   0.40625   0.72432   0.00000  Uiso   1.00
H1291  H     0.14550   0.40090   0.82506   0.00000  Uiso   1.00
H1292  H     0.09792   0.36239   0.81074   0.00000  Uiso   1.00
C1293  C     0.01864   0.34705   0.75993   0.00000  Uiso   1.00
C1294  C     0.48016   0.63863   0.73047   0.00000  Uiso   1.00
C1295  C     0.49761   0.58607   0.70178   0.00000  Uiso   1.00
H1296  H     0.02079   0.59118   0.66705   0.00000  Uiso   1.00
H1297  H     0.01549   0.56976   0.73756   0.00000  Uiso   1.00
H1298  H     0.46925   0.55749   0.67914   0.00000  Uiso   1.00
H1299  H     0.45741   0.63141   0.76487   0.00000  Uiso   1.00
H1300  H     0.46043   0.65257   0.69498   0.00000  Uiso   1.00
H1301  H     0.04182   0.34741   0.72485   0.00000  Uiso   1.00
H1302  H     0.03359   0.66448   0.79741   0.00000  Uiso   1.00
C1303  C     0.48565   0.66111   0.90076   0.00000  Uiso   1.00
C1304  C     0.02524   0.36909   0.92720   0.00000  Uiso   1.00
C1305  C     0.00959   0.42294   0.95517   0.00000  Uiso   1.00
H1306  H     0.48849   0.43714   0.92054   0.00000  Uiso   1.00
H1307  H     0.48999   0.42054   0.99452   0.00000  Uiso   1.00
H1308  H     0.03895   0.45184   0.97173   0.00000  Uiso   1.00
H1309  H     0.04469   0.35554   0.96341   0.00000  Uiso   1.00
H1310  H     0.04775   0.37445   0.89207   0.00000  Uiso   1.00
H1311  H     0.46812   0.34118   0.86272   0.00000  Uiso   1.00
H1312  H     0.46531   0.66621   0.93915   0.00000  Uiso   1.00
C1313  C     0.28302   0.65529   0.75984   0.00000  Uiso   1.00
H1314  H     0.29998   0.35275   0.74029   0.00000  Uiso   1.00
H1315  H     0.30995   0.63339   0.77629   0.00000  Uiso   1.00
H1316  H     0.26088   0.62925   0.72209   0.00000  Uiso   1.00
C1317  C     0.21484   0.34461   0.90729   0.00000  Uiso   1.00
H1318  H     0.19940   0.64738   0.92856   0.00000  Uiso   1.00
H1319  H     0.23700   0.37188   0.94382   0.00000  Uiso   1.00
H1320  H     0.18718   0.36542   0.89106   0.00000  Uiso   1.00
C1321  C     0.74952   0.40032   0.81831   0.00000  Uiso   1.00
C1322  C     0.74754   0.59918   0.84829   0.00000  Uiso   1.00
C1323  C     0.50772   0.40408   0.78475   0.00000  Uiso   1.00
C1324  C     0.99479   0.60221   0.87912   0.00000  Uiso   1.00
C1325  C     0.75579   0.34581   0.81190   0.00000  Uiso   1.00
C1326  C     0.74122   0.65373   0.85456   0.00000  Uiso   1.00
C1327  C     0.66469   0.49652   0.83346   0.00000  Uiso   1.00
C1328  C     0.83560   0.50682   0.83381   0.00000  Uiso   1.00
C1329  C     0.91377   0.55831   0.86232   0.00000  Uiso   1.00
C1330  C     0.58879   0.44587   0.81175   0.00000  Uiso   1.00
C1331  C     0.88462   0.51229   0.83364   0.00000  Uiso   1.00
C1332  C     0.61650   0.49328   0.83414   0.00000  Uiso   1.00
C1333  C     0.90220   0.46667   0.80523   0.00000  Uiso   1.00
C1334  C     0.59934   0.54029   0.85592   0.00000  Uiso   1.00
C1335  C     0.94773   0.46263   0.80682   0.00000  Uiso   1.00
C1336  C     0.55405   0.54370   0.85522   0.00000  Uiso   1.00
C1337  C     0.97782   0.50649   0.83213   0.00000  Uiso   1.00
C1338  C     0.52409   0.49927   0.83186   0.00000  Uiso   1.00
C1339  C     0.96166   0.55692   0.85793   0.00000  Uiso   1.00
C1340  C     0.54056   0.44826   0.80891   0.00000  Uiso   1.00
C1341  C     0.96245   0.41347   0.78393   0.00000  Uiso   1.00
C1342  C     0.53970   0.59295   0.87666   0.00000  Uiso   1.00
Cu1343 Cu    0.75501   0.50579   0.89479   0.00000  Uiso   1.00
Cu1344 Cu    0.74500   0.49421   0.77187   0.00000  Uiso   1.00
H1345  H     0.87956   0.43222   0.78445   0.00000  Uiso   1.00
H1346  H     0.62219   0.57534   0.87290   0.00000  Uiso   1.00
H1347  H     0.93696   0.38163   0.76678   0.00000  Uiso   1.00
H1348  H     0.56540   0.62492   0.89096   0.00000  Uiso   1.00
H1349  H     0.71353   0.46063   0.98343   0.00000  Uiso   1.00
H1350  H     0.78639   0.53947   0.68327   0.00000  Uiso   1.00
N1351  N     0.73745   0.48547   0.67951   0.00000  Uiso   1.00
N1352  N     0.76256   0.51453   0.98716   0.00000  Uiso   1.00
O1353  O     0.75326   0.42871   0.87326   0.00000  Uiso   1.00
O1354  O     0.74675   0.57129   0.79341   0.00000  Uiso   1.00
O1355  O     0.74480   0.41892   0.76945   0.00000  Uiso   1.00
O1356  O     0.75520   0.58108   0.89721   0.00000  Uiso   1.00
O1357  O     0.68936   0.50488   0.88524   0.00000  Uiso   1.00
O1358  O     0.81065   0.49512   0.78143   0.00000  Uiso   1.00
O1359  O     0.68090   0.49510   0.78143   0.00000  Uiso   1.00
O1360  O     0.81910   0.50490   0.88523   0.00000  Uiso   1.00
C1361  C     0.89723   0.60801   0.90005   0.00000  Uiso   1.00
C1362  C     0.84930   0.61440   0.91299   0.00000  Uiso   1.00
C1363  C     0.84358   0.33764   0.94649   0.00000  Uiso   1.00
H1364  H     0.80901   0.34051   0.95962   0.00000  Uiso   1.00
H1365  H     0.86669   0.34930   0.98899   0.00000  Uiso   1.00
H1366  H     0.85006   0.36546   0.91642   0.00000  Uiso   1.00
H1367  H     0.82960   0.60629   0.86834   0.00000  Uiso   1.00
H1368  H     0.83898   0.58866   0.94361   0.00000  Uiso   1.00
H1369  H     0.91464   0.61308   0.94626   0.00000  Uiso   1.00
H1370  H     0.90459   0.63945   0.87552   0.00000  Uiso   1.00
C1371  C     0.61357   0.39590   0.79594   0.00000  Uiso   1.00
C1372  C     0.62536   0.38290   0.72907   0.00000  Uiso   1.00
C1373  C     0.63309   0.65808   0.70758   0.00000  Uiso   1.00
H1374  H     0.66292   0.64866   0.73399   0.00000  Uiso   1.00
H1375  H     0.60383   0.63226   0.71359   0.00000  Uiso   1.00
H1376  H     0.63861   0.64960   0.99156   0.00000  Uiso   1.00
H1377  H     0.59909   0.39404   0.69846   0.00000  Uiso   1.00
H1378  H     0.65633   0.40625   0.72432   0.00000  Uiso   1.00
H1379  H     0.64550   0.40090   0.82506   0.00000  Uiso   1.00
H1380  H     0.59792   0.36239   0.81074   0.00000  Uiso   1.00
C1381  C     0.51864   0.34705   0.75993   0.00000  Uiso   1.00
C1382  C     0.98016   0.63863   0.73047   0.00000  Uiso   1.00
C1383  C     0.99761   0.58607   0.70178   0.00000  Uiso   1.00
H1384  H     0.52079   0.59118   0.66705   0.00000  Uiso   1.00
H1385  H     0.51549   0.56976   0.73756   0.00000  Uiso   1.00
H1386  H     0.96925   0.55749   0.67914   0.00000  Uiso   1.00
H1387  H     0.95741   0.63141   0.76487   0.00000  Uiso   1.00
H1388  H     0.96043   0.65257   0.69498   0.00000  Uiso   1.00
H1389  H     0.54182   0.34741   0.72485   0.00000  Uiso   1.00
H1390  H     0.53359   0.66448   0.79741   0.00000  Uiso   1.00
C1391  C     0.98565   0.66111   0.90076   0.00000  Uiso   1.00
C1392  C     0.52524   0.36909   0.92720   0.00000  Uiso   1.00
C1393  C     0.50959   0.42294   0.95517   0.00000  Uiso   1.00
H1394  H     0.98849   0.43714   0.92054   0.00000  Uiso   1.00
H1395  H     0.98999   0.42054   0.99452   0.00000  Uiso   1.00
H1396  H     0.53895   0.45184   0.97173   0.00000  Uiso   1.00
H1397  H     0.54469   0.35554   0.96341   0.00000  Uiso   1.00
H1398  H     0.54775   0.37445   0.89207   0.00000  Uiso   1.00
H1399  H     0.96812   0.34118   0.86272   0.00000  Uiso   1.00
H1400  H     0.96531   0.66621   0.93915   0.00000  Uiso   1.00
C1401  C     0.78302   0.65529   0.75984   0.00000  Uiso   1.00
H1402  H     0.79998   0.35275   0.74029   0.00000  Uiso   1.00
H1403  H     0.80995   0.63339   0.77629   0.00000  Uiso   1.00
H1404  H     0.76088   0.62925   0.72209   0.00000  Uiso   1.00
C1405  C     0.71484   0.34461   0.90729   0.00000  Uiso   1.00
H1406  H     0.69940   0.64738   0.92856   0.00000  Uiso   1.00
H1407  H     0.73700   0.37188   0.94382   0.00000  Uiso   1.00
H1408  H     0.68718   0.36542   0.89106   0.00000  Uiso   1.00
C1409  C     0.24952   0.73365   0.81831   0.00000  Uiso   1.00
C1410  C     0.24754   0.93251   0.84829   0.00000  Uiso   1.00
C1411  C     0.00772   0.73741   0.78475   0.00000  Uiso   1.00
C1412  C     0.49479   0.93554   0.87912   0.00000  Uiso   1.00
C1413  C     0.25579   0.67914   0.81190   0.00000  Uiso   1.00
C1414  C     0.24122   0.98706   0.85456   0.00000  Uiso   1.00
C1415  C     0.16469   0.82985   0.83346   0.00000  Uiso   1.00
C1416  C     0.33560   0.84015   0.83381   0.00000  Uiso   1.00
C1417  C     0.41377   0.89164   0.86232   0.00000  Uiso   1.00
C1418  C     0.08879   0.77921   0.81175   0.00000  Uiso   1.00
C1419  C     0.38462   0.84562   0.83364   0.00000  Uiso   1.00
C1420  C     0.11650   0.82662   0.83414   0.00000  Uiso   1.00
C1421  C     0.40220   0.80001   0.80523   0.00000  Uiso   1.00
C1422  C     0.09934   0.87362   0.85592   0.00000  Uiso   1.00
C1423  C     0.44773   0.79597   0.80682   0.00000  Uiso   1.00
C1424  C     0.05405   0.87703   0.85522   0.00000  Uiso   1.00
C1425  C     0.47782   0.83982   0.83213   0.00000  Uiso   1.00
C1426  C     0.02409   0.83261   0.83186   0.00000  Uiso   1.00
C1427  C     0.46166   0.89025   0.85793   0.00000  Uiso   1.00
C1428  C     0.04056   0.78159   0.80891   0.00000  Uiso   1.00
C1429  C     0.46245   0.74681   0.78393   0.00000  Uiso   1.00
C1430  C     0.03970   0.92628   0.87666   0.00000  Uiso   1.00
Cu1431 Cu    0.25501   0.83913   0.89479   0.00000  Uiso   1.00
Cu1432 Cu    0.24500   0.82754   0.77187   0.00000  Uiso   1.00
H1433  H     0.37956   0.76555   0.78445   0.00000  Uiso   1.00
H1434  H     0.12219   0.90867   0.87290   0.00000  Uiso   1.00
H1435  H     0.43696   0.71496   0.76678   0.00000  Uiso   1.00
H1436  H     0.06540   0.95825   0.89096   0.00000  Uiso   1.00
H1437  H     0.21353   0.79396   0.98343   0.00000  Uiso   1.00
H1438  H     0.28639   0.87281   0.68327   0.00000  Uiso   1.00
N1439  N     0.23745   0.81881   0.67951   0.00000  Uiso   1.00
N1440  N     0.26256   0.84786   0.98716   0.00000  Uiso   1.00
O1441  O     0.25326   0.76204   0.87326   0.00000  Uiso   1.00
O1442  O     0.24675   0.90462   0.79341   0.00000  Uiso   1.00
O1443  O     0.24480   0.75226   0.76945   0.00000  Uiso   1.00
O1444  O     0.25520   0.91441   0.89721   0.00000  Uiso   1.00
O1445  O     0.18936   0.83821   0.88524   0.00000  Uiso   1.00
O1446  O     0.31065   0.82845   0.78143   0.00000  Uiso   1.00
O1447  O     0.18090   0.82843   0.78143   0.00000  Uiso   1.00
O1448  O     0.31910   0.83824   0.88523   0.00000  Uiso   1.00
C1449  C     0.39723   0.94134   0.90005   0.00000  Uiso   1.00
C1450  C     0.34930   0.94774   0.91299   0.00000  Uiso   1.00
C1451  C     0.34358   0.67098   0.94649   0.00000  Uiso   1.00
H1452  H     0.30901   0.67385   0.95962   0.00000  Uiso   1.00
H1453  H     0.36669   0.68263   0.98899   0.00000  Uiso   1.00
H1454  H     0.35006   0.69879   0.91642   0.00000  Uiso   1.00
H1455  H     0.32960   0.93963   0.86834   0.00000  Uiso   1.00
H1456  H     0.33898   0.92200   0.94361   0.00000  Uiso   1.00
H1457  H     0.41464   0.94642   0.94626   0.00000  Uiso   1.00
H1458  H     0.40459   0.97278   0.87552   0.00000  Uiso   1.00
C1459  C     0.11357   0.72923   0.79594   0.00000  Uiso   1.00
C1460  C     0.12536   0.71623   0.72907   0.00000  Uiso   1.00
C1461  C     0.13309   0.99142   0.70758   0.00000  Uiso   1.00
H1462  H     0.16292   0.98200   0.73399   0.00000  Uiso   1.00
H1463  H     0.10383   0.96560   0.71359   0.00000  Uiso   1.00
H1464  H     0.13861   0.98293   0.99156   0.00000  Uiso   1.00
H1465  H     0.09909   0.72738   0.69846   0.00000  Uiso   1.00
H1466  H     0.15633   0.73958   0.72432   0.00000  Uiso   1.00
H1467  H     0.14550   0.73424   0.82506   0.00000  Uiso   1.00
H1468  H     0.09792   0.69573   0.81074   0.00000  Uiso   1.00
C1469  C     0.01864   0.68038   0.75993   0.00000  Uiso   1.00
C1470  C     0.48016   0.97197   0.73047   0.00000  Uiso   1.00
C1471  C     0.49761   0.91940   0.70178   0.00000  Uiso   1.00
H1472  H     0.02079   0.92451   0.66705   0.00000  Uiso   1.00
H1473  H     0.01549   0.90309   0.73756   0.00000  Uiso   1.00
H1474  H     0.46925   0.89083   0.67914   0.00000  Uiso   1.00
H1475  H     0.45741   0.96475   0.76487   0.00000  Uiso   1.00
H1476  H     0.46043   0.98590   0.69498   0.00000  Uiso   1.00
H1477  H     0.04182   0.68075   0.72485   0.00000  Uiso   1.00
H1478  H     0.03359   0.99782   0.79741   0.00000  Uiso   1.00
C1479  C     0.48565   0.99444   0.90076   0.00000  Uiso   1.00
C1480  C     0.02524   0.70242   0.92720   0.00000  Uiso   1.00
C1481  C     0.00959   0.75627   0.95517   0.00000  Uiso   1.00
H1482  H     0.48849   0.77047   0.92054   0.00000  Uiso   1.00
H1483  H     0.48999   0.75387   0.99452   0.00000  Uiso   1.00
H1484  H     0.03895   0.78517   0.97173   0.00000  Uiso   1.00
H1485  H     0.04469   0.68887   0.96341   0.00000  Uiso   1.00
H1486  H     0.04775   0.70779   0.89207   0.00000  Uiso   1.00
H1487  H     0.46812   0.67451   0.86272   0.00000  Uiso   1.00
H1488  H     0.46531   0.99954   0.93915   0.00000  Uiso   1.00
C1489  C     0.28302   0.98862   0.75984   0.00000  Uiso   1.00
H1490  H     0.29998   0.68608   0.74029   0.00000  Uiso   1.00
H1491  H     0.30995   0.96673   0.77629   0.00000  Uiso   1.00
H1492  H     0.26088   0.96258   0.72209   0.00000  Uiso   1.00
C1493  C     0.21484   0.67794   0.90729   0.00000  Uiso   1.00
H1494  H     0.19940   0.98071   0.92856   0.00000  Uiso   1.00
H1495  H     0.23700   0.70522   0.94382   0.00000  Uiso   1.00
H1496  H     0.18718   0.69875   0.89106   0.00000  Uiso   1.00
C1497  C     0.74952   0.73365   0.81831   0.00000  Uiso   1.00
C1498  C     0.74754   0.93251   0.84829   0.00000  Uiso   1.00
C1499  C     0.50772   0.73741   0.78475   0.00000  Uiso   1.00
C1500  C     0.99479   0.93554   0.87912   0.00000  Uiso   1.00
C1501  C     0.75579   0.67914   0.81190   0.00000  Uiso   1.00
C1502  C     0.74122   0.98706   0.85456   0.00000  Uiso   1.00
C1503  C     0.66469   0.82985   0.83346   0.00000  Uiso   1.00
C1504  C     0.83560   0.84015   0.83381   0.00000  Uiso   1.00
C1505  C     0.91377   0.89164   0.86232   0.00000  Uiso   1.00
C1506  C     0.58879   0.77921   0.81175   0.00000  Uiso   1.00
C1507  C     0.88462   0.84562   0.83364   0.00000  Uiso   1.00
C1508  C     0.61650   0.82662   0.83414   0.00000  Uiso   1.00
C1509  C     0.90220   0.80001   0.80523   0.00000  Uiso   1.00
C1510  C     0.59934   0.87362   0.85592   0.00000  Uiso   1.00
C1511  C     0.94773   0.79597   0.80682   0.00000  Uiso   1.00
C1512  C     0.55405   0.87703   0.85522   0.00000  Uiso   1.00
C1513  C     0.97782   0.83982   0.83213   0.00000  Uiso   1.00
C1514  C     0.52409   0.83261   0.83186   0.00000  Uiso   1.00
C1515  C     0.96166   0.89025   0.85793   0.00000  Uiso   1.00
C1516  C     0.54056   0.78159   0.80891   0.00000  Uiso   1.00
C1517  C     0.96245   0.74681   0.78393   0.00000  Uiso   1.00
C1518  C     0.53970   0.92628   0.87666   0.00000  Uiso   1.00
Cu1519 Cu    0.75501   0.83913   0.89479   0.00000  Uiso   1.00
Cu1520 Cu    0.74500   0.82754   0.77187   0.00000  Uiso   1.00
H1521  H     0.87956   0.76555   0.78445   0.00000  Uiso   1.00
H1522  H     0.62219   0.90867   0.87290   0.00000  Uiso   1.00
H1523  H     0.93696   0.71496   0.76678   0.00000  Uiso   1.00
H1524  H     0.56540   0.95825   0.89096   0.00000  Uiso   1.00
H1525  H     0.71353   0.79396   0.98343   0.00000  Uiso   1.00
H1526  H     0.78639   0.87281   0.68327   0.00000  Uiso   1.00
N1527  N     0.73745   0.81881   0.67951   0.00000  Uiso   1.00
N1528  N     0.76256   0.84786   0.98716   0.00000  Uiso   1.00
O1529  O     0.75326   0.76204   0.87326   0.00000  Uiso   1.00
O1530  O     0.74675   0.90462   0.79341   0.00000  Uiso   1.00
O1531  O     0.74480   0.75226   0.76945   0.00000  Uiso   1.00
O1532  O     0.75520   0.91441   0.89721   0.00000  Uiso   1.00
O1533  O     0.68936   0.83821   0.88524   0.00000  Uiso   1.00
O1534  O     0.81065   0.82845   0.78143   0.00000  Uiso   1.00
O1535  O     0.68090   0.82843   0.78143   0.00000  Uiso   1.00
O1536  O     0.81910   0.83824   0.88523   0.00000  Uiso   1.00
C1537  C     0.89723   0.94134   0.90005   0.00000  Uiso   1.00
C1538  C     0.84930   0.94774   0.91299   0.00000  Uiso   1.00
C1539  C     0.84358   0.67098   0.94649   0.00000  Uiso   1.00
H1540  H     0.80901   0.67385   0.95962   0.00000  Uiso   1.00
H1541  H     0.86669   0.68263   0.98899   0.00000  Uiso   1.00
H1542  H     0.85006   0.69879   0.91642   0.00000  Uiso   1.00
H1543  H     0.82960   0.93963   0.86834   0.00000  Uiso   1.00
H1544  H     0.83898   0.92200   0.94361   0.00000  Uiso   1.00
H1545  H     0.91464   0.94642   0.94626   0.00000  Uiso   1.00
H1546  H     0.90459   0.97278   0.87552   0.00000  Uiso   1.00
C1547  C     0.61357   0.72923   0.79594   0.00000  Uiso   1.00
C1548  C     0.62536   0.71623   0.72907   0.00000  Uiso   1.00
C1549  C     0.63309   0.99142   0.70758   0.00000  Uiso   1.00
H1550  H     0.66292   0.98200   0.73399   0.00000  Uiso   1.00
H1551  H     0.60383   0.96560   0.71359   0.00000  Uiso   1.00
H1552  H     0.63861   0.98293   0.99156   0.00000  Uiso   1.00
H1553  H     0.59909   0.72738   0.69846   0.00000  Uiso   1.00
H1554  H     0.65633   0.73958   0.72432   0.00000  Uiso   1.00
H1555  H     0.64550   0.73424   0.82506   0.00000  Uiso   1.00
H1556  H     0.59792   0.69573   0.81074   0.00000  Uiso   1.00
C1557  C     0.51864   0.68038   0.75993   0.00000  Uiso   1.00
C1558  C     0.98016   0.97197   0.73047   0.00000  Uiso   1.00
C1559  C     0.99761   0.91940   0.70178   0.00000  Uiso   1.00
H1560  H     0.52079   0.92451   0.66705   0.00000  Uiso   1.00
H1561  H     0.51549   0.90309   0.73756   0.00000  Uiso   1.00
H1562  H     0.96925   0.89083   0.67914   0.00000  Uiso   1.00
H1563  H     0.95741   0.96475   0.76487   0.00000  Uiso   1.00
H1564  H     0.96043   0.98590   0.69498   0.00000  Uiso   1.00
H1565  H     0.54182   0.68075   0.72485   0.00000  Uiso   1.00
H1566  H     0.53359   0.99782   0.79741   0.00000  Uiso   1.00
C1567  C     0.98565   0.99444   0.90076   0.00000  Uiso   1.00
C1568  C     0.52524   0.70242   0.92720   0.00000  Uiso   1.00
C1569  C     0.50959   0.75627   0.95517   0.00000  Uiso   1.00
H1570  H     0.98849   0.77047   0.92054   0.00000  Uiso   1.00
H1571  H     0.98999   0.75387   0.99452   0.00000  Uiso   1.00
H1572  H     0.53895   0.78517   0.97173   0.00000  Uiso   1.00
H1573  H     0.54469   0.68887   0.96341   0.00000  Uiso   1.00
H1574  H     0.54775   0.70779   0.89207   0.00000  Uiso   1.00
H1575  H     0.96812   0.67451   0.86272   0.00000  Uiso   1.00
H1576  H     0.96531   0.99954   0.93915   0.00000  Uiso   1.00
C1577  C     0.78302   0.98862   0.75984   0.00000  Uiso   1.00
H1578  H     0.79998   0.68608   0.74029   0.00000  Uiso   1.00
H1579  H     0.80995   0.96673   0.77629   0.00000  Uiso   1.00
H1580  H     0.76088   0.96258   0.72209   0.00000  Uiso   1.00
C1581  C     0.71484   0.67794   0.90729   0.00000  Uiso   1.00
H1582  H     0.69940   0.98071   0.92856   0.00000  Uiso   1.00
H1583  H     0.73700   0.70522   0.94382   0.00000  Uiso   1.00
H1584  H     0.68718   0.69875   0.89106   0.00000  Uiso   1.00
loop_
_geom_bond_atom_site_label_1
_geom_bond_atom_site_label_2
_geom_bond_distance
_geom_bond_site_symmetry_2
_ccdc_geom_bond_type
C1     O33     1.286   .     A
C1     C5      1.426   .     S
C1     O35     1.295   .     A
C2     O34     1.285   .     A
C2     C6      1.427   .     S
C2     O36     1.298   .     A
C3     C61     1.539   .     S
C3     C20     1.451   .     A
C3     C109    1.403   1_455 S
C4     C19     1.467   .     A
C4     C71     1.558   .     S
C4     C110    1.395   .     S
C5     C358    1.361   1_545 S
C5     C433    1.524   1_545 S
C6     C181    1.361   .     S
C6     C261    1.522   .     S
C7     C12     1.452   .     S
C7     O37     1.300   .     A
C7     O39     1.294   .     A
C8     O38     1.313   .     A
C8     C11     1.477   .     S
C8     O40     1.300   .     A
C9     C19     1.458   .     A
C9     C11     1.440   .     A
C9     C41     1.523   .     S
C10    C20     1.457   .     A
C10    C51     1.534   .     S
C10    C12     1.420   .     A
C11    C13     1.382   .     A
C12    C14     1.369   .     A
C13    H25     1.088   .     S
C13    C15     1.383   .     A
C14    H26     1.088   .     S
C14    C16     1.374   .     A
C15    C17     1.401   .     A
C15    C21     1.389   .     A
C16    C22     1.381   .     A
C16    C18     1.402   .     A
C17    C19     1.450   .     A
C17    C106    1.421   .     S
C18    C20     1.454   .     A
C18    C105    1.421   1_455 S
C21    H27     1.079   .     S
C21    C91     1.403   .     S
C22    H28     1.078   .     S
C22    C92     1.395   1_455 S
Cu23   O40     1.962   .     S
Cu23   O33     1.961   .     S
Cu23   Cu24    2.701   .     S
Cu23   O37     1.974   .     S
Cu23   N32     2.030   .     S
Cu23   O36     1.954   .     S
Cu24   O39     1.962   .     S
Cu24   O38     1.974   .     S
Cu24   O35     1.954   .     S
Cu24   O34     1.961   .     S
Cu24   N31     2.030   .     S
H29    N559    1.029   .     S
H30    N1088   1.029   1_554 S
N31    H1085   1.029   1_554 S
N31    N1088   1.289   1_554 S
N32    N559    1.289   .     S
N32    H558    1.029   .     S
C41    C42     1.509   .     S
C41    H49     1.104   .     S
C41    H50     1.103   .     S
C42    H48     1.107   .     S
C42    H47     1.098   .     S
C42    C219    1.532   .     S
C43    H44     1.107   .     S
C43    H45     1.112   .     S
C43    H46     1.111   .     S
C43    C394    1.532   1_545 S
C51    C52     1.539   .     S
C51    H59     1.107   .     S
C51    H60     1.093   .     S
C52    H58     1.107   .     S
C52    H57     1.105   .     S
C52    C405    1.529   1_545 S
C53    H55     1.110   .     S
C53    H54     1.111   .     S
C53    C228    1.529   .     S
C53    H1112   1.109   1_554 S
H56    C581    1.109   .     S
C61    H69     1.093   .     S
C61    C502    1.543   1_445 S
C61    H422    1.097   1_545 S
C62    H67     1.108   .     S
C62    C63     1.528   .     S
C62    H68     1.098   .     S
C62    C325    1.543   .     S
C63    H66     1.111   .     S
C63    H152    1.109   .     S
C63    H153    1.110   .     S
H64    C151    1.109   1_455 S
H65    C151    1.110   1_455 S
H70    C237    1.097   .     S
C71    H80     1.085   .     S
C71    C336    1.546   .     S
C71    H255    1.103   .     S
C72    H77     1.100   .     S
C72    H78     1.104   .     S
C72    C73     1.530   .     S
C72    C511    1.546   1_445 S
C73    H76     1.111   .     S
C73    H162    1.109   1_455 S
C73    H163    1.110   1_455 S
H74    C161    1.109   .     S
H75    C161    1.110   .     S
H79    C423    1.103   1_545 S
C81    H83     1.109   .     S
C81    H84     1.110   .     S
C81    C181    1.524   .     S
C81    H258    1.111   .     S
H82    C433    1.111   1_545 S
C85    H87     1.108   .     S
C85    H88     1.106   .     S
C85    C358    1.522   1_545 S
C85    H438    1.110   1_545 S
H86    C261    1.110   .     S
C89    O121    1.286   .     A
C89    C93     1.426   .     S
C89    O123    1.295   .     A
C90    O122    1.285   .     A
C90    C94     1.427   .     S
C90    O124    1.298   .     A
C91    C149    1.539   .     S
C91    C108    1.451   .     A
C92    C107    1.467   .     A
C92    C159    1.558   .     S
C92    C22     1.395   1_655 S
C93    C446    1.361   1_545 S
C93    C521    1.524   1_545 S
C94    C269    1.361   .     S
C94    C349    1.522   .     S
C95    C100    1.452   .     S
C95    O125    1.300   .     A
C95    O127    1.294   .     A
C96    O126    1.313   .     A
C96    C99     1.477   .     S
C96    O128    1.300   .     A
C97    C107    1.458   .     A
C97    C99     1.440   .     A
C97    C129    1.523   .     S
C98    C108    1.457   .     A
C98    C139    1.534   .     S
C98    C100    1.420   .     A
C99    C101    1.382   .     A
C100   C102    1.369   .     A
C101   H113    1.088   .     S
C101   C103    1.383   .     A
C102   H114    1.088   .     S
C102   C104    1.374   .     A
C103   C105    1.401   .     A
C103   C109    1.389   .     A
C104   C110    1.381   .     A
C104   C106    1.402   .     A
C105   C107    1.450   .     A
C105   C18     1.421   1_655 S
C106   C108    1.454   .     A
C109   H115    1.079   .     S
C109   C3      1.403   1_655 S
C110   H116    1.078   .     S
Cu111  O128    1.962   .     S
Cu111  O121    1.961   .     S
Cu111  Cu112   2.701   .     S
Cu111  O125    1.974   .     S
Cu111  N120    2.030   .     S
Cu111  O124    1.954   .     S
Cu112  O127    1.962   .     S
Cu112  O126    1.974   .     S
Cu112  O123    1.954   .     S
Cu112  O122    1.961   .     S
Cu112  N119    2.030   .     S
H117   N647    1.029   .     S
H118   N1176   1.029   1_554 S
N119   H1173   1.029   1_554 S
N119   N1176   1.289   1_554 S
N120   N647    1.289   .     S
N120   H646    1.029   .     S
C129   C130    1.509   .     S
C129   H137    1.104   .     S
C129   H138    1.103   .     S
C130   H136    1.107   .     S
C130   H135    1.098   .     S
C130   C307    1.532   .     S
C131   H132    1.107   .     S
C131   H133    1.112   .     S
C131   H134    1.111   .     S
C131   C482    1.532   1_545 S
C139   C140    1.539   .     S
C139   H147    1.107   .     S
C139   H148    1.093   .     S
C140   H146    1.107   .     S
C140   H145    1.105   .     S
C140   C493    1.529   1_545 S
C141   H143    1.110   .     S
C141   H142    1.111   .     S
C141   C316    1.529   .     S
C141   H1200   1.109   1_554 S
H144   C669    1.109   .     S
C149   H157    1.093   .     S
C149   C414    1.543   1_545 S
C149   H510    1.097   1_545 S
C150   H155    1.108   .     S
C150   C151    1.528   .     S
C150   H156    1.098   .     S
C150   C237    1.543   1_655 S
C151   H154    1.111   .     S
C151   H64     1.109   1_655 S
C151   H65     1.110   1_655 S
H158   C325    1.097   .     S
C159   H168    1.085   .     S
C159   C248    1.546   1_655 S
C159   H343    1.103   .     S
C160   H165    1.100   .     S
C160   H166    1.104   .     S
C160   C161    1.530   .     S
C160   C423    1.546   1_545 S
C161   H164    1.111   .     S
H162   C73     1.109   1_655 S
H163   C73     1.110   1_655 S
H167   C511    1.103   1_545 S
C169   H171    1.109   .     S
C169   H172    1.110   .     S
C169   C269    1.524   .     S
C169   H346    1.111   .     S
H170   C521    1.111   1_545 S
C173   H175    1.108   .     S
C173   H176    1.106   .     S
C173   C446    1.522   1_545 S
C173   H526    1.110   1_545 S
H174   C349    1.110   .     S
C177   O209    1.286   .     A
C177   C181    1.426   .     S
C177   O211    1.295   .     A
C178   O210    1.285   .     A
C178   C182    1.427   .     S
C178   O212    1.298   .     A
C179   C237    1.539   .     S
C179   C196    1.451   .     A
C179   C285    1.403   1_455 S
C180   C195    1.467   .     A
C180   C247    1.558   .     S
C180   C286    1.395   .     S
C182   C357    1.361   .     S
C182   C437    1.522   .     S
C183   C188    1.452   .     S
C183   O213    1.300   .     A
C183   O215    1.294   .     A
C184   O214    1.313   .     A
C184   C187    1.477   .     S
C184   O216    1.300   .     A
C185   C195    1.458   .     A
C185   C187    1.440   .     A
C185   C217    1.523   .     S
C186   C196    1.457   .     A
C186   C227    1.534   .     S
C186   C188    1.420   .     A
C187   C189    1.382   .     A
C188   C190    1.369   .     A
C189   H201    1.088   .     S
C189   C191    1.383   .     A
C190   H202    1.088   .     S
C190   C192    1.374   .     A
C191   C193    1.401   .     A
C191   C197    1.389   .     A
C192   C198    1.381   .     A
C192   C194    1.402   .     A
C193   C195    1.450   .     A
C193   C282    1.421   .     S
C194   C196    1.454   .     A
C194   C281    1.421   1_455 S
C197   H203    1.079   .     S
C197   C267    1.403   .     S
C198   H204    1.078   .     S
C198   C268    1.395   1_455 S
Cu199  O216    1.962   .     S
Cu199  O209    1.961   .     S
Cu199  Cu200   2.701   .     S
Cu199  O213    1.974   .     S
Cu199  N208    2.030   .     S
Cu199  O212    1.954   .     S
Cu200  O215    1.962   .     S
Cu200  O214    1.974   .     S
Cu200  O211    1.954   .     S
Cu200  O210    1.961   .     S
Cu200  N207    2.030   .     S
H205   N735    1.029   .     S
H206   N1264   1.029   1_554 S
N207   H1261   1.029   1_554 S
N207   N1264   1.289   1_554 S
N208   N735    1.289   .     S
N208   H734    1.029   .     S
C217   C218    1.509   .     S
C217   H225    1.104   .     S
C217   H226    1.103   .     S
C218   H224    1.107   .     S
C218   H223    1.098   .     S
C218   C395    1.532   .     S
C219   H220    1.107   .     S
C219   H221    1.112   .     S
C219   H222    1.111   .     S
C227   C228    1.539   .     S
C227   H235    1.107   .     S
C227   H236    1.093   .     S
C228   H234    1.107   .     S
C228   H233    1.105   .     S
C229   H231    1.110   .     S
C229   H230    1.111   .     S
C229   C404    1.529   .     S
C229   H1288   1.109   1_554 S
H232   C757    1.109   .     S
C237   H245    1.093   .     S
C237   C150    1.543   1_455 S
C238   H243    1.108   .     S
C238   C239    1.528   .     S
C238   H244    1.098   .     S
C238   C501    1.543   .     S
C239   H242    1.111   .     S
C239   H328    1.109   .     S
C239   H329    1.110   .     S
H240   C327    1.109   1_455 S
H241   C327    1.110   1_455 S
H246   C413    1.097   .     S
C247   H256    1.085   .     S
C247   C512    1.546   .     S
C247   H431    1.103   .     S
C248   H253    1.100   .     S
C248   H254    1.104   .     S
C248   C249    1.530   .     S
C248   C159    1.546   1_455 S
C249   H252    1.111   .     S
C249   H338    1.109   1_455 S
C249   H339    1.110   1_455 S
H250   C337    1.109   .     S
H251   C337    1.110   .     S
C257   H259    1.109   .     S
C257   H260    1.110   .     S
C257   C357    1.524   .     S
C257   H434    1.111   .     S
C261   H263    1.108   .     S
C261   H264    1.106   .     S
H262   C437    1.110   .     S
C265   O297    1.286   .     A
C265   C269    1.426   .     S
C265   O299    1.295   .     A
C266   O298    1.285   .     A
C266   C270    1.427   .     S
C266   O300    1.298   .     A
C267   C325    1.539   .     S
C267   C284    1.451   .     A
C268   C283    1.467   .     A
C268   C335    1.558   .     S
C268   C198    1.395   1_655 S
C270   C445    1.361   .     S
C270   C525    1.522   .     S
C271   C276    1.452   .     S
C271   O301    1.300   .     A
C271   O303    1.294   .     A
C272   O302    1.313   .     A
C272   C275    1.477   .     S
C272   O304    1.300   .     A
C273   C283    1.458   .     A
C273   C275    1.440   .     A
C273   C305    1.523   .     S
C274   C284    1.457   .     A
C274   C315    1.534   .     S
C274   C276    1.420   .     A
C275   C277    1.382   .     A
C276   C278    1.369   .     A
C277   H289    1.088   .     S
C277   C279    1.383   .     A
C278   H290    1.088   .     S
C278   C280    1.374   .     A
C279   C281    1.401   .     A
C279   C285    1.389   .     A
C280   C286    1.381   .     A
C280   C282    1.402   .     A
C281   C283    1.450   .     A
C281   C194    1.421   1_655 S
C282   C284    1.454   .     A
C285   H291    1.079   .     S
C285   C179    1.403   1_655 S
C286   H292    1.078   .     S
Cu287  O304    1.962   .     S
Cu287  O297    1.961   .     S
Cu287  Cu288   2.701   .     S
Cu287  O301    1.974   .     S
Cu287  N296    2.030   .     S
Cu287  O300    1.954   .     S
Cu288  O303    1.962   .     S
Cu288  O302    1.974   .     S
Cu288  O299    1.954   .     S
Cu288  O298    1.961   .     S
Cu288  N295    2.030   .     S
H293   N823    1.029   .     S
H294   N1352   1.029   1_554 S
N295   H1349   1.029   1_554 S
N295   N1352   1.289   1_554 S
N296   N823    1.289   .     S
N296   H822    1.029   .     S
C305   C306    1.509   .     S
C305   H313    1.104   .     S
C305   H314    1.103   .     S
C306   H312    1.107   .     S
C306   H311    1.098   .     S
C306   C483    1.532   .     S
C307   H308    1.107   .     S
C307   H309    1.112   .     S
C307   H310    1.111   .     S
C315   C316    1.539   .     S
C315   H323    1.107   .     S
C315   H324    1.093   .     S
C316   H322    1.107   .     S
C316   H321    1.105   .     S
C317   H319    1.110   .     S
C317   H318    1.111   .     S
C317   C492    1.529   .     S
C317   H1376   1.109   1_554 S
H320   C845    1.109   .     S
C325   H333    1.093   .     S
C326   H331    1.108   .     S
C326   C327    1.528   .     S
C326   H332    1.098   .     S
C326   C413    1.543   1_655 S
C327   H330    1.111   .     S
C327   H240    1.109   1_655 S
C327   H241    1.110   1_655 S
H334   C501    1.097   .     S
C335   H344    1.085   .     S
C335   C424    1.546   1_655 S
C335   H519    1.103   .     S
C336   H341    1.100   .     S
C336   H342    1.104   .     S
C336   C337    1.530   .     S
C337   H340    1.111   .     S
H338   C249    1.109   1_655 S
H339   C249    1.110   1_655 S
C345   H347    1.109   .     S
C345   H348    1.110   .     S
C345   C445    1.524   .     S
C345   H522    1.111   .     S
C349   H351    1.108   .     S
C349   H352    1.106   .     S
H350   C525    1.110   .     S
C353   O385    1.286   .     A
C353   C357    1.426   .     S
C353   O387    1.295   .     A
C354   O386    1.285   .     A
C354   C358    1.427   .     S
C354   O388    1.298   .     A
C355   C413    1.539   .     S
C355   C372    1.451   .     A
C355   C461    1.403   1_455 S
C356   C371    1.467   .     A
C356   C423    1.558   .     S
C356   C462    1.395   .     S
C358   C5      1.361   1_565 S
C358   C85     1.522   1_565 S
C359   C364    1.452   .     S
C359   O389    1.300   .     A
C359   O391    1.294   .     A
C360   O390    1.313   .     A
C360   C363    1.477   .     S
C360   O392    1.300   .     A
C361   C371    1.458   .     A
C361   C363    1.440   .     A
C361   C393    1.523   .     S
C362   C372    1.457   .     A
C362   C403    1.534   .     S
C362   C364    1.420   .     A
C363   C365    1.382   .     A
C364   C366    1.369   .     A
C365   H377    1.088   .     S
C365   C367    1.383   .     A
C366   H378    1.088   .     S
C366   C368    1.374   .     A
C367   C369    1.401   .     A
C367   C373    1.389   .     A
C368   C374    1.381   .     A
C368   C370    1.402   .     A
C369   C371    1.450   .     A
C369   C458    1.421   .     S
C370   C372    1.454   .     A
C370   C457    1.421   1_455 S
C373   H379    1.079   .     S
C373   C443    1.403   .     S
C374   H380    1.078   .     S
C374   C444    1.395   1_455 S
Cu375  O392    1.962   .     S
Cu375  O385    1.961   .     S
Cu375  Cu376   2.701   .     S
Cu375  O389    1.974   .     S
Cu375  N384    2.030   .     S
Cu375  O388    1.954   .     S
Cu376  O391    1.962   .     S
Cu376  O390    1.974   .     S
Cu376  O387    1.954   .     S
Cu376  O386    1.961   .     S
Cu376  N383    2.030   .     S
H381   N911    1.029   .     S
H382   N1440   1.029   1_554 S
N383   H1437   1.029   1_554 S
N383   N1440   1.289   1_554 S
N384   N911    1.289   .     S
N384   H910    1.029   .     S
C393   C394    1.509   .     S
C393   H401    1.104   .     S
C393   H402    1.103   .     S
C394   H400    1.107   .     S
C394   H399    1.098   .     S
C394   C43     1.532   1_565 S
C395   H396    1.107   .     S
C395   H397    1.112   .     S
C395   H398    1.111   .     S
C403   C404    1.539   .     S
C403   H411    1.107   .     S
C403   H412    1.093   .     S
C404   H410    1.107   .     S
C404   H409    1.105   .     S
C405   H407    1.110   .     S
C405   H406    1.111   .     S
C405   C52     1.529   1_565 S
C405   H1464   1.109   1_554 S
H408   C933    1.109   .     S
C413   H421    1.093   .     S
C413   C326    1.543   1_455 S
C414   H419    1.108   .     S
C414   C415    1.528   .     S
C414   H420    1.098   .     S
C414   C149    1.543   1_565 S
C415   H418    1.111   .     S
C415   H504    1.109   .     S
C415   H505    1.110   .     S
H416   C503    1.109   1_455 S
H417   C503    1.110   1_455 S
H422   C61     1.097   1_565 S
C423   H432    1.085   .     S
C423   C160    1.546   1_565 S
C423   H79     1.103   1_565 S
C424   H429    1.100   .     S
C424   H430    1.104   .     S
C424   C425    1.530   .     S
C424   C335    1.546   1_455 S
C425   H428    1.111   .     S
C425   H514    1.109   1_455 S
C425   H515    1.110   1_455 S
H426   C513    1.109   .     S
H427   C513    1.110   .     S
C433   H435    1.109   .     S
C433   H436    1.110   .     S
C433   C5      1.524   1_565 S
C433   H82     1.111   1_565 S
C437   H439    1.108   .     S
C437   H440    1.106   .     S
H438   C85     1.110   1_565 S
C441   O473    1.286   .     A
C441   C445    1.426   .     S
C441   O475    1.295   .     A
C442   O474    1.285   .     A
C442   C446    1.427   .     S
C442   O476    1.298   .     A
C443   C501    1.539   .     S
C443   C460    1.451   .     A
C444   C459    1.467   .     A
C444   C511    1.558   .     S
C444   C374    1.395   1_655 S
C446   C93     1.361   1_565 S
C446   C173    1.522   1_565 S
C447   C452    1.452   .     S
C447   O477    1.300   .     A
C447   O479    1.294   .     A
C448   O478    1.313   .     A
C448   C451    1.477   .     S
C448   O480    1.300   .     A
C449   C459    1.458   .     A
C449   C451    1.440   .     A
C449   C481    1.523   .     S
C450   C460    1.457   .     A
C450   C491    1.534   .     S
C450   C452    1.420   .     A
C451   C453    1.382   .     A
C452   C454    1.369   .     A
C453   H465    1.088   .     S
C453   C455    1.383   .     A
C454   H466    1.088   .     S
C454   C456    1.374   .     A
C455   C457    1.401   .     A
C455   C461    1.389   .     A
C456   C462    1.381   .     A
C456   C458    1.402   .     A
C457   C459    1.450   .     A
C457   C370    1.421   1_655 S
C458   C460    1.454   .     A
C461   H467    1.079   .     S
C461   C355    1.403   1_655 S
C462   H468    1.078   .     S
Cu463  O480    1.962   .     S
Cu463  O473    1.961   .     S
Cu463  Cu464   2.701   .     S
Cu463  O477    1.974   .     S
Cu463  N472    2.030   .     S
Cu463  O476    1.954   .     S
Cu464  O479    1.962   .     S
Cu464  O478    1.974   .     S
Cu464  O475    1.954   .     S
Cu464  O474    1.961   .     S
Cu464  N471    2.030   .     S
H469   N999    1.029   .     S
H470   N1528   1.029   1_554 S
N471   H1525   1.029   1_554 S
N471   N1528   1.289   1_554 S
N472   N999    1.289   .     S
N472   H998    1.029   .     S
C481   C482    1.509   .     S
C481   H489    1.104   .     S
C481   H490    1.103   .     S
C482   H488    1.107   .     S
C482   H487    1.098   .     S
C482   C131    1.532   1_565 S
C483   H484    1.107   .     S
C483   H485    1.112   .     S
C483   H486    1.111   .     S
C491   C492    1.539   .     S
C491   H499    1.107   .     S
C491   H500    1.093   .     S
C492   H498    1.107   .     S
C492   H497    1.105   .     S
C493   H495    1.110   .     S
C493   H494    1.111   .     S
C493   C140    1.529   1_565 S
C493   H1552   1.109   1_554 S
H496   C1021   1.109   .     S
C501   H509    1.093   .     S
C502   H507    1.108   .     S
C502   C503    1.528   .     S
C502   H508    1.098   .     S
C502   C61     1.543   1_665 S
C503   H506    1.111   .     S
C503   H416    1.109   1_655 S
C503   H417    1.110   1_655 S
H510   C149    1.097   1_565 S
C511   H520    1.085   .     S
C511   C72     1.546   1_665 S
C511   H167    1.103   1_565 S
C512   H517    1.100   .     S
C512   H518    1.104   .     S
C512   C513    1.530   .     S
C513   H516    1.111   .     S
H514   C425    1.109   1_655 S
H515   C425    1.110   1_655 S
C521   H523    1.109   .     S
C521   H524    1.110   .     S
C521   C93     1.524   1_565 S
C521   H170    1.111   1_565 S
C525   H527    1.108   .     S
C525   H528    1.106   .     S
H526   C173    1.110   1_565 S
C529   O561    1.286   .     A
C529   C533    1.426   .     S
C529   O563    1.295   .     A
C530   O562    1.285   .     A
C530   C534    1.427   .     S
C530   O564    1.298   .     A
C531   C589    1.539   .     S
C531   C548    1.451   .     A
C531   C637    1.403   1_455 S
C532   C547    1.467   .     A
C532   C599    1.558   .     S
C532   C638    1.395   .     S
C533   C886    1.361   1_545 S
C533   C961    1.524   1_545 S
C534   C709    1.361   .     S
C534   C789    1.522   .     S
C535   C540    1.452   .     S
C535   O565    1.300   .     A
C535   O567    1.294   .     A
C536   O566    1.313   .     A
C536   C539    1.477   .     S
C536   O568    1.300   .     A
C537   C547    1.458   .     A
C537   C539    1.440   .     A
C537   C569    1.523   .     S
C538   C548    1.457   .     A
C538   C579    1.534   .     S
C538   C540    1.420   .     A
C539   C541    1.382   .     A
C540   C542    1.369   .     A
C541   H553    1.088   .     S
C541   C543    1.383   .     A
C542   H554    1.088   .     S
C542   C544    1.374   .     A
C543   C545    1.401   .     A
C543   C549    1.389   .     A
C544   C550    1.381   .     A
C544   C546    1.402   .     A
C545   C547    1.450   .     A
C545   C634    1.421   .     S
C546   C548    1.454   .     A
C546   C633    1.421   1_455 S
C549   H555    1.079   .     S
C549   C619    1.403   .     S
C550   H556    1.078   .     S
C550   C620    1.395   1_455 S
Cu551  O568    1.962   .     S
Cu551  O561    1.961   .     S
Cu551  Cu552   2.701   .     S
Cu551  O565    1.974   .     S
Cu551  N560    2.030   .     S
Cu551  O564    1.954   .     S
Cu552  O567    1.962   .     S
Cu552  O566    1.974   .     S
Cu552  O563    1.954   .     S
Cu552  O562    1.961   .     S
Cu552  N559    2.030   .     S
H557   N1087   1.029   .     S
N560   N1087   1.289   .     S
N560   H1086   1.029   .     S
C569   C570    1.509   .     S
C569   H577    1.104   .     S
C569   H578    1.103   .     S
C570   H576    1.107   .     S
C570   H575    1.098   .     S
C570   C747    1.532   .     S
C571   H572    1.107   .     S
C571   H573    1.112   .     S
C571   H574    1.111   .     S
C571   C922    1.532   1_545 S
C579   C580    1.539   .     S
C579   H587    1.107   .     S
C579   H588    1.093   .     S
C580   H586    1.107   .     S
C580   H585    1.105   .     S
C580   C933    1.529   1_545 S
C581   H583    1.110   .     S
C581   H582    1.111   .     S
C581   C756    1.529   .     S
H584   C1109   1.109   .     S
C589   H597    1.093   .     S
C589   C1030   1.543   1_445 S
C589   H950    1.097   1_545 S
C590   H595    1.108   .     S
C590   C591    1.528   .     S
C590   H596    1.098   .     S
C590   C853    1.543   .     S
C591   H594    1.111   .     S
C591   H680    1.109   .     S
C591   H681    1.110   .     S
H592   C679    1.109   1_455 S
H593   C679    1.110   1_455 S
H598   C765    1.097   .     S
C599   H608    1.085   .     S
C599   C864    1.546   .     S
C599   H783    1.103   .     S
C600   H605    1.100   .     S
C600   H606    1.104   .     S
C600   C601    1.530   .     S
C600   C1039   1.546   1_445 S
C601   H604    1.111   .     S
C601   H690    1.109   1_455 S
C601   H691    1.110   1_455 S
H602   C689    1.109   .     S
H603   C689    1.110   .     S
H607   C951    1.103   1_545 S
C609   H611    1.109   .     S
C609   H612    1.110   .     S
C609   C709    1.524   .     S
C609   H786    1.111   .     S
H610   C961    1.111   1_545 S
C613   H615    1.108   .     S
C613   H616    1.106   .     S
C613   C886    1.522   1_545 S
C613   H966    1.110   1_545 S
H614   C789    1.110   .     S
C617   O649    1.286   .     A
C617   C621    1.426   .     S
C617   O651    1.295   .     A
C618   O650    1.285   .     A
C618   C622    1.427   .     S
C618   O652    1.298   .     A
C619   C677    1.539   .     S
C619   C636    1.451   .     A
C620   C635    1.467   .     A
C620   C687    1.558   .     S
C620   C550    1.395   1_655 S
C621   C974    1.361   1_545 S
C621   C1049   1.524   1_545 S
C622   C797    1.361   .     S
C622   C877    1.522   .     S
C623   C628    1.452   .     S
C623   O653    1.300   .     A
C623   O655    1.294   .     A
C624   O654    1.313   .     A
C624   C627    1.477   .     S
C624   O656    1.300   .     A
C625   C635    1.458   .     A
C625   C627    1.440   .     A
C625   C657    1.523   .     S
C626   C636    1.457   .     A
C626   C667    1.534   .     S
C626   C628    1.420   .     A
C627   C629    1.382   .     A
C628   C630    1.369   .     A
C629   H641    1.088   .     S
C629   C631    1.383   .     A
C630   H642    1.088   .     S
C630   C632    1.374   .     A
C631   C633    1.401   .     A
C631   C637    1.389   .     A
C632   C638    1.381   .     A
C632   C634    1.402   .     A
C633   C635    1.450   .     A
C633   C546    1.421   1_655 S
C634   C636    1.454   .     A
C637   H643    1.079   .     S
C637   C531    1.403   1_655 S
C638   H644    1.078   .     S
Cu639  O656    1.962   .     S
Cu639  O649    1.961   .     S
Cu639  Cu640   2.701   .     S
Cu639  O653    1.974   .     S
Cu639  N648    2.030   .     S
Cu639  O652    1.954   .     S
Cu640  O655    1.962   .     S
Cu640  O654    1.974   .     S
Cu640  O651    1.954   .     S
Cu640  O650    1.961   .     S
Cu640  N647    2.030   .     S
H645   N1175   1.029   .     S
N648   N1175   1.289   .     S
N648   H1174   1.029   .     S
C657   C658    1.509   .     S
C657   H665    1.104   .     S
C657   H666    1.103   .     S
C658   H664    1.107   .     S
C658   H663    1.098   .     S
C658   C835    1.532   .     S
C659   H660    1.107   .     S
C659   H661    1.112   .     S
C659   H662    1.111   .     S
C659   C1010   1.532   1_545 S
C667   C668    1.539   .     S
C667   H675    1.107   .     S
C667   H676    1.093   .     S
C668   H674    1.107   .     S
C668   H673    1.105   .     S
C668   C1021   1.529   1_545 S
C669   H671    1.110   .     S
C669   H670    1.111   .     S
C669   C844    1.529   .     S
H672   C1197   1.109   .     S
C677   H685    1.093   .     S
C677   C942    1.543   1_545 S
C677   H1038   1.097   1_545 S
C678   H683    1.108   .     S
C678   C679    1.528   .     S
C678   H684    1.098   .     S
C678   C765    1.543   1_655 S
C679   H682    1.111   .     S
C679   H592    1.109   1_655 S
C679   H593    1.110   1_655 S
H686   C853    1.097   .     S
C687   H696    1.085   .     S
C687   C776    1.546   1_655 S
C687   H871    1.103   .     S
C688   H693    1.100   .     S
C688   H694    1.104   .     S
C688   C689    1.530   .     S
C688   C951    1.546   1_545 S
C689   H692    1.111   .     S
H690   C601    1.109   1_655 S
H691   C601    1.110   1_655 S
H695   C1039   1.103   1_545 S
C697   H699    1.109   .     S
C697   H700    1.110   .     S
C697   C797    1.524   .     S
C697   H874    1.111   .     S
H698   C1049   1.111   1_545 S
C701   H703    1.108   .     S
C701   H704    1.106   .     S
C701   C974    1.522   1_545 S
C701   H1054   1.110   1_545 S
H702   C877    1.110   .     S
C705   O737    1.286   .     A
C705   C709    1.426   .     S
C705   O739    1.295   .     A
C706   O738    1.285   .     A
C706   C710    1.427   .     S
C706   O740    1.298   .     A
C707   C765    1.539   .     S
C707   C724    1.451   .     A
C707   C813    1.403   1_455 S
C708   C723    1.467   .     A
C708   C775    1.558   .     S
C708   C814    1.395   .     S
C710   C885    1.361   .     S
C710   C965    1.522   .     S
C711   C716    1.452   .     S
C711   O741    1.300   .     A
C711   O743    1.294   .     A
C712   O742    1.313   .     A
C712   C715    1.477   .     S
C712   O744    1.300   .     A
C713   C723    1.458   .     A
C713   C715    1.440   .     A
C713   C745    1.523   .     S
C714   C724    1.457   .     A
C714   C755    1.534   .     S
C714   C716    1.420   .     A
C715   C717    1.382   .     A
C716   C718    1.369   .     A
C717   H729    1.088   .     S
C717   C719    1.383   .     A
C718   H730    1.088   .     S
C718   C720    1.374   .     A
C719   C721    1.401   .     A
C719   C725    1.389   .     A
C720   C726    1.381   .     A
C720   C722    1.402   .     A
C721   C723    1.450   .     A
C721   C810    1.421   .     S
C722   C724    1.454   .     A
C722   C809    1.421   1_455 S
C725   H731    1.079   .     S
C725   C795    1.403   .     S
C726   H732    1.078   .     S
C726   C796    1.395   1_455 S
Cu727  O744    1.962   .     S
Cu727  O737    1.961   .     S
Cu727  Cu728   2.701   .     S
Cu727  O741    1.974   .     S
Cu727  N736    2.030   .     S
Cu727  O740    1.954   .     S
Cu728  O743    1.962   .     S
Cu728  O742    1.974   .     S
Cu728  O739    1.954   .     S
Cu728  O738    1.961   .     S
Cu728  N735    2.030   .     S
H733   N1263   1.029   .     S
N736   N1263   1.289   .     S
N736   H1262   1.029   .     S
C745   C746    1.509   .     S
C745   H753    1.104   .     S
C745   H754    1.103   .     S
C746   H752    1.107   .     S
C746   H751    1.098   .     S
C746   C923    1.532   .     S
C747   H748    1.107   .     S
C747   H749    1.112   .     S
C747   H750    1.111   .     S
C755   C756    1.539   .     S
C755   H763    1.107   .     S
C755   H764    1.093   .     S
C756   H762    1.107   .     S
C756   H761    1.105   .     S
C757   H759    1.110   .     S
C757   H758    1.111   .     S
C757   C932    1.529   .     S
H760   C1285   1.109   .     S
C765   H773    1.093   .     S
C765   C678    1.543   1_455 S
C766   H771    1.108   .     S
C766   C767    1.528   .     S
C766   H772    1.098   .     S
C766   C1029   1.543   .     S
C767   H770    1.111   .     S
C767   H856    1.109   .     S
C767   H857    1.110   .     S
H768   C855    1.109   1_455 S
H769   C855    1.110   1_455 S
H774   C941    1.097   .     S
C775   H784    1.085   .     S
C775   C1040   1.546   .     S
C775   H959    1.103   .     S
C776   H781    1.100   .     S
C776   H782    1.104   .     S
C776   C777    1.530   .     S
C776   C687    1.546   1_455 S
C777   H780    1.111   .     S
C777   H866    1.109   1_455 S
C777   H867    1.110   1_455 S
H778   C865    1.109   .     S
H779   C865    1.110   .     S
C785   H787    1.109   .     S
C785   H788    1.110   .     S
C785   C885    1.524   .     S
C785   H962    1.111   .     S
C789   H791    1.108   .     S
C789   H792    1.106   .     S
H790   C965    1.110   .     S
C793   O825    1.286   .     A
C793   C797    1.426   .     S
C793   O827    1.295   .     A
C794   O826    1.285   .     A
C794   C798    1.427   .     S
C794   O828    1.298   .     A
C795   C853    1.539   .     S
C795   C812    1.451   .     A
C796   C811    1.467   .     A
C796   C863    1.558   .     S
C796   C726    1.395   1_655 S
C798   C973    1.361   .     S
C798   C1053   1.522   .     S
C799   C804    1.452   .     S
C799   O829    1.300   .     A
C799   O831    1.294   .     A
C800   O830    1.313   .     A
C800   C803    1.477   .     S
C800   O832    1.300   .     A
C801   C811    1.458   .     A
C801   C803    1.440   .     A
C801   C833    1.523   .     S
C802   C812    1.457   .     A
C802   C843    1.534   .     S
C802   C804    1.420   .     A
C803   C805    1.382   .     A
C804   C806    1.369   .     A
C805   H817    1.088   .     S
C805   C807    1.383   .     A
C806   H818    1.088   .     S
C806   C808    1.374   .     A
C807   C809    1.401   .     A
C807   C813    1.389   .     A
C808   C814    1.381   .     A
C808   C810    1.402   .     A
C809   C811    1.450   .     A
C809   C722    1.421   1_655 S
C810   C812    1.454   .     A
C813   H819    1.079   .     S
C813   C707    1.403   1_655 S
C814   H820    1.078   .     S
Cu815  O832    1.962   .     S
Cu815  O825    1.961   .     S
Cu815  Cu816   2.701   .     S
Cu815  O829    1.974   .     S
Cu815  N824    2.030   .     S
Cu815  O828    1.954   .     S
Cu816  O831    1.962   .     S
Cu816  O830    1.974   .     S
Cu816  O827    1.954   .     S
Cu816  O826    1.961   .     S
Cu816  N823    2.030   .     S
H821   N1351   1.029   .     S
N824   N1351   1.289   .     S
N824   H1350   1.029   .     S
C833   C834    1.509   .     S
C833   H841    1.104   .     S
C833   H842    1.103   .     S
C834   H840    1.107   .     S
C834   H839    1.098   .     S
C834   C1011   1.532   .     S
C835   H836    1.107   .     S
C835   H837    1.112   .     S
C835   H838    1.111   .     S
C843   C844    1.539   .     S
C843   H851    1.107   .     S
C843   H852    1.093   .     S
C844   H850    1.107   .     S
C844   H849    1.105   .     S
C845   H847    1.110   .     S
C845   H846    1.111   .     S
C845   C1020   1.529   .     S
H848   C1373   1.109   .     S
C853   H861    1.093   .     S
C854   H859    1.108   .     S
C854   C855    1.528   .     S
C854   H860    1.098   .     S
C854   C941    1.543   1_655 S
C855   H858    1.111   .     S
C855   H768    1.109   1_655 S
C855   H769    1.110   1_655 S
H862   C1029   1.097   .     S
C863   H872    1.085   .     S
C863   C952    1.546   1_655 S
C863   H1047   1.103   .     S
C864   H869    1.100   .     S
C864   H870    1.104   .     S
C864   C865    1.530   .     S
C865   H868    1.111   .     S
H866   C777    1.109   1_655 S
H867   C777    1.110   1_655 S
C873   H875    1.109   .     S
C873   H876    1.110   .     S
C873   C973    1.524   .     S
C873   H1050   1.111   .     S
C877   H879    1.108   .     S
C877   H880    1.106   .     S
H878   C1053   1.110   .     S
C881   O913    1.286   .     A
C881   C885    1.426   .     S
C881   O915    1.295   .     A
C882   O914    1.285   .     A
C882   C886    1.427   .     S
C882   O916    1.298   .     A
C883   C941    1.539   .     S
C883   C900    1.451   .     A
C883   C989    1.403   1_455 S
C884   C899    1.467   .     A
C884   C951    1.558   .     S
C884   C990    1.395   .     S
C886   C533    1.361   1_565 S
C886   C613    1.522   1_565 S
C887   C892    1.452   .     S
C887   O917    1.300   .     A
C887   O919    1.294   .     A
C888   O918    1.313   .     A
C888   C891    1.477   .     S
C888   O920    1.300   .     A
C889   C899    1.458   .     A
C889   C891    1.440   .     A
C889   C921    1.523   .     S
C890   C900    1.457   .     A
C890   C931    1.534   .     S
C890   C892    1.420   .     A
C891   C893    1.382   .     A
C892   C894    1.369   .     A
C893   H905    1.088   .     S
C893   C895    1.383   .     A
C894   H906    1.088   .     S
C894   C896    1.374   .     A
C895   C897    1.401   .     A
C895   C901    1.389   .     A
C896   C902    1.381   .     A
C896   C898    1.402   .     A
C897   C899    1.450   .     A
C897   C986    1.421   .     S
C898   C900    1.454   .     A
C898   C985    1.421   1_455 S
C901   H907    1.079   .     S
C901   C971    1.403   .     S
C902   H908    1.078   .     S
C902   C972    1.395   1_455 S
Cu903  O920    1.962   .     S
Cu903  O913    1.961   .     S
Cu903  Cu904   2.701   .     S
Cu903  O917    1.974   .     S
Cu903  N912    2.030   .     S
Cu903  O916    1.954   .     S
Cu904  O919    1.962   .     S
Cu904  O918    1.974   .     S
Cu904  O915    1.954   .     S
Cu904  O914    1.961   .     S
Cu904  N911    2.030   .     S
H909   N1439   1.029   .     S
N912   N1439   1.289   .     S
N912   H1438   1.029   .     S
C921   C922    1.509   .     S
C921   H929    1.104   .     S
C921   H930    1.103   .     S
C922   H928    1.107   .     S
C922   H927    1.098   .     S
C922   C571    1.532   1_565 S
C923   H924    1.107   .     S
C923   H925    1.112   .     S
C923   H926    1.111   .     S
C931   C932    1.539   .     S
C931   H939    1.107   .     S
C931   H940    1.093   .     S
C932   H938    1.107   .     S
C932   H937    1.105   .     S
C933   H935    1.110   .     S
C933   H934    1.111   .     S
C933   C580    1.529   1_565 S
H936   C1461   1.109   .     S
C941   H949    1.093   .     S
C941   C854    1.543   1_455 S
C942   H947    1.108   .     S
C942   C943    1.528   .     S
C942   H948    1.098   .     S
C942   C677    1.543   1_565 S
C943   H946    1.111   .     S
C943   H1032   1.109   .     S
C943   H1033   1.110   .     S
H944   C1031   1.109   1_455 S
H945   C1031   1.110   1_455 S
H950   C589    1.097   1_565 S
C951   H960    1.085   .     S
C951   C688    1.546   1_565 S
C951   H607    1.103   1_565 S
C952   H957    1.100   .     S
C952   H958    1.104   .     S
C952   C953    1.530   .     S
C952   C863    1.546   1_455 S
C953   H956    1.111   .     S
C953   H1042   1.109   1_455 S
C953   H1043   1.110   1_455 S
H954   C1041   1.109   .     S
H955   C1041   1.110   .     S
C961   H963    1.109   .     S
C961   H964    1.110   .     S
C961   C533    1.524   1_565 S
C961   H610    1.111   1_565 S
C965   H967    1.108   .     S
C965   H968    1.106   .     S
H966   C613    1.110   1_565 S
C969   O1001   1.286   .     A
C969   C973    1.426   .     S
C969   O1003   1.295   .     A
C970   O1002   1.285   .     A
C970   C974    1.427   .     S
C970   O1004   1.298   .     A
C971   C1029   1.539   .     S
C971   C988    1.451   .     A
C972   C987    1.467   .     A
C972   C1039   1.558   .     S
C972   C902    1.395   1_655 S
C974   C621    1.361   1_565 S
C974   C701    1.522   1_565 S
C975   C980    1.452   .     S
C975   O1005   1.300   .     A
C975   O1007   1.294   .     A
C976   O1006   1.313   .     A
C976   C979    1.477   .     S
C976   O1008   1.300   .     A
C977   C987    1.458   .     A
C977   C979    1.440   .     A
C977   C1009   1.523   .     S
C978   C988    1.457   .     A
C978   C1019   1.534   .     S
C978   C980    1.420   .     A
C979   C981    1.382   .     A
C980   C982    1.369   .     A
C981   H993    1.088   .     S
C981   C983    1.383   .     A
C982   H994    1.088   .     S
C982   C984    1.374   .     A
C983   C985    1.401   .     A
C983   C989    1.389   .     A
C984   C990    1.381   .     A
C984   C986    1.402   .     A
C985   C987    1.450   .     A
C985   C898    1.421   1_655 S
C986   C988    1.454   .     A
C989   H995    1.079   .     S
C989   C883    1.403   1_655 S
C990   H996    1.078   .     S
Cu991  O1008   1.962   .     S
Cu991  O1001   1.961   .     S
Cu991  Cu992   2.701   .     S
Cu991  O1005   1.974   .     S
Cu991  N1000   2.030   .     S
Cu991  O1004   1.954   .     S
Cu992  O1007   1.962   .     S
Cu992  O1006   1.974   .     S
Cu992  O1003   1.954   .     S
Cu992  O1002   1.961   .     S
Cu992  N999    2.030   .     S
H997   N1527   1.029   .     S
N1000  N1527   1.289   .     S
N1000  H1526   1.029   .     S
C1009  C1010   1.509   .     S
C1009  H1017   1.104   .     S
C1009  H1018   1.103   .     S
C1010  H1016   1.107   .     S
C1010  H1015   1.098   .     S
C1010  C659    1.532   1_565 S
C1011  H1012   1.107   .     S
C1011  H1013   1.112   .     S
C1011  H1014   1.111   .     S
C1019  C1020   1.539   .     S
C1019  H1027   1.107   .     S
C1019  H1028   1.093   .     S
C1020  H1026   1.107   .     S
C1020  H1025   1.105   .     S
C1021  H1023   1.110   .     S
C1021  H1022   1.111   .     S
C1021  C668    1.529   1_565 S
H1024  C1549   1.109   .     S
C1029  H1037   1.093   .     S
C1030  H1035   1.108   .     S
C1030  C1031   1.528   .     S
C1030  H1036   1.098   .     S
C1030  C589    1.543   1_665 S
C1031  H1034   1.111   .     S
C1031  H944    1.109   1_655 S
C1031  H945    1.110   1_655 S
H1038  C677    1.097   1_565 S
C1039  H1048   1.085   .     S
C1039  C600    1.546   1_665 S
C1039  H695    1.103   1_565 S
C1040  H1045   1.100   .     S
C1040  H1046   1.104   .     S
C1040  C1041   1.530   .     S
C1041  H1044   1.111   .     S
H1042  C953    1.109   1_655 S
H1043  C953    1.110   1_655 S
C1049  H1051   1.109   .     S
C1049  H1052   1.110   .     S
C1049  C621    1.524   1_565 S
C1049  H698    1.111   1_565 S
C1053  H1055   1.108   .     S
C1053  H1056   1.106   .     S
H1054  C701    1.110   1_565 S
C1057  O1089   1.286   .     A
C1057  C1061   1.426   .     S
C1057  O1091   1.295   .     A
C1058  O1090   1.285   .     A
C1058  C1062   1.427   .     S
C1058  O1092   1.298   .     A
C1059  C1117   1.539   .     S
C1059  C1076   1.451   .     A
C1059  C1165   1.403   1_455 S
C1060  C1075   1.467   .     A
C1060  C1127   1.558   .     S
C1060  C1166   1.395   .     S
C1061  C1414   1.361   1_545 S
C1061  C1489   1.524   1_545 S
C1062  C1237   1.361   .     S
C1062  C1317   1.522   .     S
C1063  C1068   1.452   .     S
C1063  O1093   1.300   .     A
C1063  O1095   1.294   .     A
C1064  O1094   1.313   .     A
C1064  C1067   1.477   .     S
C1064  O1096   1.300   .     A
C1065  C1075   1.458   .     A
C1065  C1067   1.440   .     A
C1065  C1097   1.523   .     S
C1066  C1076   1.457   .     A
C1066  C1107   1.534   .     S
C1066  C1068   1.420   .     A
C1067  C1069   1.382   .     A
C1068  C1070   1.369   .     A
C1069  H1081   1.088   .     S
C1069  C1071   1.383   .     A
C1070  H1082   1.088   .     S
C1070  C1072   1.374   .     A
C1071  C1073   1.401   .     A
C1071  C1077   1.389   .     A
C1072  C1078   1.381   .     A
C1072  C1074   1.402   .     A
C1073  C1075   1.450   .     A
C1073  C1162   1.421   .     S
C1074  C1076   1.454   .     A
C1074  C1161   1.421   1_455 S
C1077  H1083   1.079   .     S
C1077  C1147   1.403   .     S
C1078  H1084   1.078   .     S
C1078  C1148   1.395   1_455 S
Cu1079 O1096   1.962   .     S
Cu1079 O1089   1.961   .     S
Cu1079 Cu1080  2.701   .     S
Cu1079 O1093   1.974   .     S
Cu1079 N1088   2.030   .     S
Cu1079 O1092   1.954   .     S
Cu1080 O1095   1.962   .     S
Cu1080 O1094   1.974   .     S
Cu1080 O1091   1.954   .     S
Cu1080 O1090   1.961   .     S
Cu1080 N1087   2.030   .     S
H1085  N31     1.029   1_556 S
N1088  N31     1.289   1_556 S
N1088  H30     1.029   1_556 S
C1097  C1098   1.509   .     S
C1097  H1105   1.104   .     S
C1097  H1106   1.103   .     S
C1098  H1104   1.107   .     S
C1098  H1103   1.098   .     S
C1098  C1275   1.532   .     S
C1099  H1100   1.107   .     S
C1099  H1101   1.112   .     S
C1099  H1102   1.111   .     S
C1099  C1450   1.532   1_545 S
C1107  C1108   1.539   .     S
C1107  H1115   1.107   .     S
C1107  H1116   1.093   .     S
C1108  H1114   1.107   .     S
C1108  H1113   1.105   .     S
C1108  C1461   1.529   1_545 S
C1109  H1111   1.110   .     S
C1109  H1110   1.111   .     S
C1109  C1284   1.529   .     S
H1112  C53     1.109   1_556 S
C1117  H1125   1.093   .     S
C1117  C1558   1.543   1_445 S
C1117  H1478   1.097   1_545 S
C1118  H1123   1.108   .     S
C1118  C1119   1.528   .     S
C1118  H1124   1.098   .     S
C1118  C1381   1.543   .     S
C1119  H1122   1.111   .     S
C1119  H1208   1.109   .     S
C1119  H1209   1.110   .     S
H1120  C1207   1.109   1_455 S
H1121  C1207   1.110   1_455 S
H1126  C1293   1.097   .     S
C1127  H1136   1.085   .     S
C1127  C1392   1.546   .     S
C1127  H1311   1.103   .     S
C1128  H1133   1.100   .     S
C1128  H1134   1.104   .     S
C1128  C1129   1.530   .     S
C1128  C1567   1.546   1_445 S
C1129  H1132   1.111   .     S
C1129  H1218   1.109   1_455 S
C1129  H1219   1.110   1_455 S
H1130  C1217   1.109   .     S
H1131  C1217   1.110   .     S
H1135  C1479   1.103   1_545 S
C1137  H1139   1.109   .     S
C1137  H1140   1.110   .     S
C1137  C1237   1.524   .     S
C1137  H1314   1.111   .     S
H1138  C1489   1.111   1_545 S
C1141  H1143   1.108   .     S
C1141  H1144   1.106   .     S
C1141  C1414   1.522   1_545 S
C1141  H1494   1.110   1_545 S
H1142  C1317   1.110   .     S
C1145  O1177   1.286   .     A
C1145  C1149   1.426   .     S
C1145  O1179   1.295   .     A
C1146  O1178   1.285   .     A
C1146  C1150   1.427   .     S
C1146  O1180   1.298   .     A
C1147  C1205   1.539   .     S
C1147  C1164   1.451   .     A
C1148  C1163   1.467   .     A
C1148  C1215   1.558   .     S
C1148  C1078   1.395   1_655 S
C1149  C1502   1.361   1_545 S
C1149  C1577   1.524   1_545 S
C1150  C1325   1.361   .     S
C1150  C1405   1.522   .     S
C1151  C1156   1.452   .     S
C1151  O1181   1.300   .     A
C1151  O1183   1.294   .     A
C1152  O1182   1.313   .     A
C1152  C1155   1.477   .     S
C1152  O1184   1.300   .     A
C1153  C1163   1.458   .     A
C1153  C1155   1.440   .     A
C1153  C1185   1.523   .     S
C1154  C1164   1.457   .     A
C1154  C1195   1.534   .     S
C1154  C1156   1.420   .     A
C1155  C1157   1.382   .     A
C1156  C1158   1.369   .     A
C1157  H1169   1.088   .     S
C1157  C1159   1.383   .     A
C1158  H1170   1.088   .     S
C1158  C1160   1.374   .     A
C1159  C1161   1.401   .     A
C1159  C1165   1.389   .     A
C1160  C1166   1.381   .     A
C1160  C1162   1.402   .     A
C1161  C1163   1.450   .     A
C1161  C1074   1.421   1_655 S
C1162  C1164   1.454   .     A
C1165  H1171   1.079   .     S
C1165  C1059   1.403   1_655 S
C1166  H1172   1.078   .     S
Cu1167 O1184   1.962   .     S
Cu1167 O1177   1.961   .     S
Cu1167 Cu1168  2.701   .     S
Cu1167 O1181   1.974   .     S
Cu1167 N1176   2.030   .     S
Cu1167 O1180   1.954   .     S
Cu1168 O1183   1.962   .     S
Cu1168 O1182   1.974   .     S
Cu1168 O1179   1.954   .     S
Cu1168 O1178   1.961   .     S
Cu1168 N1175   2.030   .     S
H1173  N119    1.029   1_556 S
N1176  N119    1.289   1_556 S
N1176  H118    1.029   1_556 S
C1185  C1186   1.509   .     S
C1185  H1193   1.104   .     S
C1185  H1194   1.103   .     S
C1186  H1192   1.107   .     S
C1186  H1191   1.098   .     S
C1186  C1363   1.532   .     S
C1187  H1188   1.107   .     S
C1187  H1189   1.112   .     S
C1187  H1190   1.111   .     S
C1187  C1538   1.532   1_545 S
C1195  C1196   1.539   .     S
C1195  H1203   1.107   .     S
C1195  H1204   1.093   .     S
C1196  H1202   1.107   .     S
C1196  H1201   1.105   .     S
C1196  C1549   1.529   1_545 S
C1197  H1199   1.110   .     S
C1197  H1198   1.111   .     S
C1197  C1372   1.529   .     S
H1200  C141    1.109   1_556 S
C1205  H1213   1.093   .     S
C1205  C1470   1.543   1_545 S
C1205  H1566   1.097   1_545 S
C1206  H1211   1.108   .     S
C1206  C1207   1.528   .     S
C1206  H1212   1.098   .     S
C1206  C1293   1.543   1_655 S
C1207  H1210   1.111   .     S
C1207  H1120   1.109   1_655 S
C1207  H1121   1.110   1_655 S
H1214  C1381   1.097   .     S
C1215  H1224   1.085   .     S
C1215  C1304   1.546   1_655 S
C1215  H1399   1.103   .     S
C1216  H1221   1.100   .     S
C1216  H1222   1.104   .     S
C1216  C1217   1.530   .     S
C1216  C1479   1.546   1_545 S
C1217  H1220   1.111   .     S
H1218  C1129   1.109   1_655 S
H1219  C1129   1.110   1_655 S
H1223  C1567   1.103   1_545 S
C1225  H1227   1.109   .     S
C1225  H1228   1.110   .     S
C1225  C1325   1.524   .     S
C1225  H1402   1.111   .     S
H1226  C1577   1.111   1_545 S
C1229  H1231   1.108   .     S
C1229  H1232   1.106   .     S
C1229  C1502   1.522   1_545 S
C1229  H1582   1.110   1_545 S
H1230  C1405   1.110   .     S
C1233  O1265   1.286   .     A
C1233  C1237   1.426   .     S
C1233  O1267   1.295   .     A
C1234  O1266   1.285   .     A
C1234  C1238   1.427   .     S
C1234  O1268   1.298   .     A
C1235  C1293   1.539   .     S
C1235  C1252   1.451   .     A
C1235  C1341   1.403   1_455 S
C1236  C1251   1.467   .     A
C1236  C1303   1.558   .     S
C1236  C1342   1.395   .     S
C1238  C1413   1.361   .     S
C1238  C1493   1.522   .     S
C1239  C1244   1.452   .     S
C1239  O1269   1.300   .     A
C1239  O1271   1.294   .     A
C1240  O1270   1.313   .     A
C1240  C1243   1.477   .     S
C1240  O1272   1.300   .     A
C1241  C1251   1.458   .     A
C1241  C1243   1.440   .     A
C1241  C1273   1.523   .     S
C1242  C1252   1.457   .     A
C1242  C1283   1.534   .     S
C1242  C1244   1.420   .     A
C1243  C1245   1.382   .     A
C1244  C1246   1.369   .     A
C1245  H1257   1.088   .     S
C1245  C1247   1.383   .     A
C1246  H1258   1.088   .     S
C1246  C1248   1.374   .     A
C1247  C1249   1.401   .     A
C1247  C1253   1.389   .     A
C1248  C1254   1.381   .     A
C1248  C1250   1.402   .     A
C1249  C1251   1.450   .     A
C1249  C1338   1.421   .     S
C1250  C1252   1.454   .     A
C1250  C1337   1.421   1_455 S
C1253  H1259   1.079   .     S
C1253  C1323   1.403   .     S
C1254  H1260   1.078   .     S
C1254  C1324   1.395   1_455 S
Cu1255 O1272   1.962   .     S
Cu1255 O1265   1.961   .     S
Cu1255 Cu1256  2.701   .     S
Cu1255 O1269   1.974   .     S
Cu1255 N1264   2.030   .     S
Cu1255 O1268   1.954   .     S
Cu1256 O1271   1.962   .     S
Cu1256 O1270   1.974   .     S
Cu1256 O1267   1.954   .     S
Cu1256 O1266   1.961   .     S
Cu1256 N1263   2.030   .     S
H1261  N207    1.029   1_556 S
N1264  N207    1.289   1_556 S
N1264  H206    1.029   1_556 S
C1273  C1274   1.509   .     S
C1273  H1281   1.104   .     S
C1273  H1282   1.103   .     S
C1274  H1280   1.107   .     S
C1274  H1279   1.098   .     S
C1274  C1451   1.532   .     S
C1275  H1276   1.107   .     S
C1275  H1277   1.112   .     S
C1275  H1278   1.111   .     S
C1283  C1284   1.539   .     S
C1283  H1291   1.107   .     S
C1283  H1292   1.093   .     S
C1284  H1290   1.107   .     S
C1284  H1289   1.105   .     S
C1285  H1287   1.110   .     S
C1285  H1286   1.111   .     S
C1285  C1460   1.529   .     S
H1288  C229    1.109   1_556 S
C1293  H1301   1.093   .     S
C1293  C1206   1.543   1_455 S
C1294  H1299   1.108   .     S
C1294  C1295   1.528   .     S
C1294  H1300   1.098   .     S
C1294  C1557   1.543   .     S
C1295  H1298   1.111   .     S
C1295  H1384   1.109   .     S
C1295  H1385   1.110   .     S
H1296  C1383   1.109   1_455 S
H1297  C1383   1.110   1_455 S
H1302  C1469   1.097   .     S
C1303  H1312   1.085   .     S
C1303  C1568   1.546   .     S
C1303  H1487   1.103   .     S
C1304  H1309   1.100   .     S
C1304  H1310   1.104   .     S
C1304  C1305   1.530   .     S
C1304  C1215   1.546   1_455 S
C1305  H1308   1.111   .     S
C1305  H1394   1.109   1_455 S
C1305  H1395   1.110   1_455 S
H1306  C1393   1.109   .     S
H1307  C1393   1.110   .     S
C1313  H1315   1.109   .     S
C1313  H1316   1.110   .     S
C1313  C1413   1.524   .     S
C1313  H1490   1.111   .     S
C1317  H1319   1.108   .     S
C1317  H1320   1.106   .     S
H1318  C1493   1.110   .     S
C1321  O1353   1.286   .     A
C1321  C1325   1.426   .     S
C1321  O1355   1.295   .     A
C1322  O1354   1.285   .     A
C1322  C1326   1.427   .     S
C1322  O1356   1.298   .     A
C1323  C1381   1.539   .     S
C1323  C1340   1.451   .     A
C1324  C1339   1.467   .     A
C1324  C1391   1.558   .     S
C1324  C1254   1.395   1_655 S
C1326  C1501   1.361   .     S
C1326  C1581   1.522   .     S
C1327  C1332   1.452   .     S
C1327  O1357   1.300   .     A
C1327  O1359   1.294   .     A
C1328  O1358   1.313   .     A
C1328  C1331   1.477   .     S
C1328  O1360   1.300   .     A
C1329  C1339   1.458   .     A
C1329  C1331   1.440   .     A
C1329  C1361   1.523   .     S
C1330  C1340   1.457   .     A
C1330  C1371   1.534   .     S
C1330  C1332   1.420   .     A
C1331  C1333   1.382   .     A
C1332  C1334   1.369   .     A
C1333  H1345   1.088   .     S
C1333  C1335   1.383   .     A
C1334  H1346   1.088   .     S
C1334  C1336   1.374   .     A
C1335  C1337   1.401   .     A
C1335  C1341   1.389   .     A
C1336  C1342   1.381   .     A
C1336  C1338   1.402   .     A
C1337  C1339   1.450   .     A
C1337  C1250   1.421   1_655 S
C1338  C1340   1.454   .     A
C1341  H1347   1.079   .     S
C1341  C1235   1.403   1_655 S
C1342  H1348   1.078   .     S
Cu1343 O1360   1.962   .     S
Cu1343 O1353   1.961   .     S
Cu1343 Cu1344  2.701   .     S
Cu1343 O1357   1.974   .     S
Cu1343 N1352   2.030   .     S
Cu1343 O1356   1.954   .     S
Cu1344 O1359   1.962   .     S
Cu1344 O1358   1.974   .     S
Cu1344 O1355   1.954   .     S
Cu1344 O1354   1.961   .     S
Cu1344 N1351   2.030   .     S
H1349  N295    1.029   1_556 S
N1352  N295    1.289   1_556 S
N1352  H294    1.029   1_556 S
C1361  C1362   1.509   .     S
C1361  H1369   1.104   .     S
C1361  H1370   1.103   .     S
C1362  H1368   1.107   .     S
C1362  H1367   1.098   .     S
C1362  C1539   1.532   .     S
C1363  H1364   1.107   .     S
C1363  H1365   1.112   .     S
C1363  H1366   1.111   .     S
C1371  C1372   1.539   .     S
C1371  H1379   1.107   .     S
C1371  H1380   1.093   .     S
C1372  H1378   1.107   .     S
C1372  H1377   1.105   .     S
C1373  H1375   1.110   .     S
C1373  H1374   1.111   .     S
C1373  C1548   1.529   .     S
H1376  C317    1.109   1_556 S
C1381  H1389   1.093   .     S
C1382  H1387   1.108   .     S
C1382  C1383   1.528   .     S
C1382  H1388   1.098   .     S
C1382  C1469   1.543   1_655 S
C1383  H1386   1.111   .     S
C1383  H1296   1.109   1_655 S
C1383  H1297   1.110   1_655 S
H1390  C1557   1.097   .     S
C1391  H1400   1.085   .     S
C1391  C1480   1.546   1_655 S
C1391  H1575   1.103   .     S
C1392  H1397   1.100   .     S
C1392  H1398   1.104   .     S
C1392  C1393   1.530   .     S
C1393  H1396   1.111   .     S
H1394  C1305   1.109   1_655 S
H1395  C1305   1.110   1_655 S
C1401  H1403   1.109   .     S
C1401  H1404   1.110   .     S
C1401  C1501   1.524   .     S
C1401  H1578   1.111   .     S
C1405  H1407   1.108   .     S
C1405  H1408   1.106   .     S
H1406  C1581   1.110   .     S
C1409  O1441   1.286   .     A
C1409  C1413   1.426   .     S
C1409  O1443   1.295   .     A
C1410  O1442   1.285   .     A
C1410  C1414   1.427   .     S
C1410  O1444   1.298   .     A
C1411  C1469   1.539   .     S
C1411  C1428   1.451   .     A
C1411  C1517   1.403   1_455 S
C1412  C1427   1.467   .     A
C1412  C1479   1.558   .     S
C1412  C1518   1.395   .     S
C1414  C1061   1.361   1_565 S
C1414  C1141   1.522   1_565 S
C1415  C1420   1.452   .     S
C1415  O1445   1.300   .     A
C1415  O1447   1.294   .     A
C1416  O1446   1.313   .     A
C1416  C1419   1.477   .     S
C1416  O1448   1.300   .     A
C1417  C1427   1.458   .     A
C1417  C1419   1.440   .     A
C1417  C1449   1.523   .     S
C1418  C1428   1.457   .     A
C1418  C1459   1.534   .     S
C1418  C1420   1.420   .     A
C1419  C1421   1.382   .     A
C1420  C1422   1.369   .     A
C1421  H1433   1.088   .     S
C1421  C1423   1.383   .     A
C1422  H1434   1.088   .     S
C1422  C1424   1.374   .     A
C1423  C1425   1.401   .     A
C1423  C1429   1.389   .     A
C1424  C1430   1.381   .     A
C1424  C1426   1.402   .     A
C1425  C1427   1.450   .     A
C1425  C1514   1.421   .     S
C1426  C1428   1.454   .     A
C1426  C1513   1.421   1_455 S
C1429  H1435   1.079   .     S
C1429  C1499   1.403   .     S
C1430  H1436   1.078   .     S
C1430  C1500   1.395   1_455 S
Cu1431 O1448   1.962   .     S
Cu1431 O1441   1.961   .     S
Cu1431 Cu1432  2.701   .     S
Cu1431 O1445   1.974   .     S
Cu1431 N1440   2.030   .     S
Cu1431 O1444   1.954   .     S
Cu1432 O1447   1.962   .     S
Cu1432 O1446   1.974   .     S
Cu1432 O1443   1.954   .     S
Cu1432 O1442   1.961   .     S
Cu1432 N1439   2.030   .     S
H1437  N383    1.029   1_556 S
N1440  N383    1.289   1_556 S
N1440  H382    1.029   1_556 S
C1449  C1450   1.509   .     S
C1449  H1457   1.104   .     S
C1449  H1458   1.103   .     S
C1450  H1456   1.107   .     S
C1450  H1455   1.098   .     S
C1450  C1099   1.532   1_565 S
C1451  H1452   1.107   .     S
C1451  H1453   1.112   .     S
C1451  H1454   1.111   .     S
C1459  C1460   1.539   .     S
C1459  H1467   1.107   .     S
C1459  H1468   1.093   .     S
C1460  H1466   1.107   .     S
C1460  H1465   1.105   .     S
C1461  H1463   1.110   .     S
C1461  H1462   1.111   .     S
C1461  C1108   1.529   1_565 S
H1464  C405    1.109   1_556 S
C1469  H1477   1.093   .     S
C1469  C1382   1.543   1_455 S
C1470  H1475   1.108   .     S
C1470  C1471   1.528   .     S
C1470  H1476   1.098   .     S
C1470  C1205   1.543   1_565 S
C1471  H1474   1.111   .     S
C1471  H1560   1.109   .     S
C1471  H1561   1.110   .     S
H1472  C1559   1.109   1_455 S
H1473  C1559   1.110   1_455 S
H1478  C1117   1.097   1_565 S
C1479  H1488   1.085   .     S
C1479  C1216   1.546   1_565 S
C1479  H1135   1.103   1_565 S
C1480  H1485   1.100   .     S
C1480  H1486   1.104   .     S
C1480  C1481   1.530   .     S
C1480  C1391   1.546   1_455 S
C1481  H1484   1.111   .     S
C1481  H1570   1.109   1_455 S
C1481  H1571   1.110   1_455 S
H1482  C1569   1.109   .     S
H1483  C1569   1.110   .     S
C1489  H1491   1.109   .     S
C1489  H1492   1.110   .     S
C1489  C1061   1.524   1_565 S
C1489  H1138   1.111   1_565 S
C1493  H1495   1.108   .     S
C1493  H1496   1.106   .     S
H1494  C1141   1.110   1_565 S
C1497  O1529   1.286   .     A
C1497  C1501   1.426   .     S
C1497  O1531   1.295   .     A
C1498  O1530   1.285   .     A
C1498  C1502   1.427   .     S
C1498  O1532   1.298   .     A
C1499  C1557   1.539   .     S
C1499  C1516   1.451   .     A
C1500  C1515   1.467   .     A
C1500  C1567   1.558   .     S
C1500  C1430   1.395   1_655 S
C1502  C1149   1.361   1_565 S
C1502  C1229   1.522   1_565 S
C1503  C1508   1.452   .     S
C1503  O1533   1.300   .     A
C1503  O1535   1.294   .     A
C1504  O1534   1.313   .     A
C1504  C1507   1.477   .     S
C1504  O1536   1.300   .     A
C1505  C1515   1.458   .     A
C1505  C1507   1.440   .     A
C1505  C1537   1.523   .     S
C1506  C1516   1.457   .     A
C1506  C1547   1.534   .     S
C1506  C1508   1.420   .     A
C1507  C1509   1.382   .     A
C1508  C1510   1.369   .     A
C1509  H1521   1.088   .     S
C1509  C1511   1.383   .     A
C1510  H1522   1.088   .     S
C1510  C1512   1.374   .     A
C1511  C1513   1.401   .     A
C1511  C1517   1.389   .     A
C1512  C1518   1.381   .     A
C1512  C1514   1.402   .     A
C1513  C1515   1.450   .     A
C1513  C1426   1.421   1_655 S
C1514  C1516   1.454   .     A
C1517  H1523   1.079   .     S
C1517  C1411   1.403   1_655 S
C1518  H1524   1.078   .     S
Cu1519 O1536   1.962   .     S
Cu1519 O1529   1.961   .     S
Cu1519 Cu1520  2.701   .     S
Cu1519 O1533   1.974   .     S
Cu1519 N1528   2.030   .     S
Cu1519 O1532   1.954   .     S
Cu1520 O1535   1.962   .     S
Cu1520 O1534   1.974   .     S
Cu1520 O1531   1.954   .     S
Cu1520 O1530   1.961   .     S
Cu1520 N1527   2.030   .     S
H1525  N471    1.029   1_556 S
N1528  N471    1.289   1_556 S
N1528  H470    1.029   1_556 S
C1537  C1538   1.509   .     S
C1537  H1545   1.104   .     S
C1537  H1546   1.103   .     S
C1538  H1544   1.107   .     S
C1538  H1543   1.098   .     S
C1538  C1187   1.532   1_565 S
C1539  H1540   1.107   .     S
C1539  H1541   1.112   .     S
C1539  H1542   1.111   .     S
C1547  C1548   1.539   .     S
C1547  H1555   1.107   .     S
C1547  H1556   1.093   .     S
C1548  H1554   1.107   .     S
C1548  H1553   1.105   .     S
C1549  H1551   1.110   .     S
C1549  H1550   1.111   .     S
C1549  C1196   1.529   1_565 S
H1552  C493    1.109   1_556 S
C1557  H1565   1.093   .     S
C1558  H1563   1.108   .     S
C1558  C1559   1.528   .     S
C1558  H1564   1.098   .     S
C1558  C1117   1.543   1_665 S
C1559  H1562   1.111   .     S
C1559  H1472   1.109   1_655 S
C1559  H1473   1.110   1_655 S
H1566  C1205   1.097   1_565 S
C1567  H1576   1.085   .     S
C1567  C1128   1.546   1_665 S
C1567  H1223   1.103   1_565 S
C1568  H1573   1.100   .     S
C1568  H1574   1.104   .     S
C1568  C1569   1.530   .     S
C1569  H1572   1.111   .     S
H1570  C1481   1.109   1_655 S
H1571  C1481   1.110   1_655 S
C1577  H1579   1.109   .     S
C1577  H1580   1.110   .     S
C1577  C1149   1.524   1_565 S
C1577  H1226   1.111   1_565 S
C1581  H1583   1.108   .     S
C1581  H1584   1.106   .     S
H1582  C1229   1.110   1_565 S
