data_str_m2_o1_o17_pcu_sym.4
_audit_creation_date              2020-01-03
_audit_creation_method            'Materials Studio'
_symmetry_space_group_name_H-M    'P1'
_symmetry_Int_Tables_number       1
_symmetry_cell_setting            triclinic
loop_
_symmetry_equiv_pos_as_xyz
  x,y,z
_cell_length_a                    32.8017
_cell_length_b                    28.5170
_cell_length_c                    30.1654
_cell_angle_alpha                 89.9901
_cell_angle_beta                  90.2679
_cell_angle_gamma                 89.9972
loop_
_atom_site_label
_atom_site_type_symbol
_atom_site_fract_x
_atom_site_fract_y
_atom_site_fract_z
_atom_site_U_iso_or_equiv
_atom_site_adp_type
_atom_site_occupancy
C1     C     0.08730   0.16660   0.24987   0.00000  Uiso   1.00
C2     C     0.04267   0.16632   0.24977   0.00000  Uiso   1.00
C3     C     0.15043   0.02481   0.21523   0.00000  Uiso   1.00
C4     C     0.18258   0.30856   0.28493   0.00000  Uiso   1.00
C5     C     0.18290   0.02480   0.28477   0.00000  Uiso   1.00
C6     C     0.15076   0.30858   0.21507   0.00000  Uiso   1.00
C7     C     0.16660   0.16667   0.16426   0.00000  Uiso   1.00
C8     C     0.16673   0.16666   0.33574   0.00000  Uiso   1.00
C9     C     0.16732   0.20932   0.40736   0.00000  Uiso   1.00
C10    C     0.16602   0.12402   0.09264   0.00000  Uiso   1.00
C11    C     0.16678   0.16665   0.38418   0.00000  Uiso   1.00
C12    C     0.24603   0.16661   0.25012   0.00000  Uiso   1.00
C13    C     0.16653   0.16668   0.11582   0.00000  Uiso   1.00
C14    C     0.16625   0.12399   0.40737   0.00000  Uiso   1.00
C15    C     0.16699   0.20935   0.09263   0.00000  Uiso   1.00
C16    C     0.16619   0.12369   0.45355   0.00000  Uiso   1.00
C17    C     0.16706   0.20964   0.04645   0.00000  Uiso   1.00
C18    C     0.16668   0.16666   0.47676   0.00000  Uiso   1.00
C19    C     0.16659   0.16667   0.02324   0.00000  Uiso   1.00
C20    C     0.16727   0.20963   0.45355   0.00000  Uiso   1.00
C21    C     0.16603   0.12371   0.04645   0.00000  Uiso   1.00
C22    C     0.16558   0.08119   0.47689   0.00000  Uiso   1.00
C23    C     0.16550   0.08120   0.02311   0.00000  Uiso   1.00
C24    C     0.16764   0.25215   0.02310   0.00000  Uiso   1.00
C25    C     0.16775   0.25214   0.47689   0.00000  Uiso   1.00
C26    C     0.02088   0.12371   0.25430   0.00000  Uiso   1.00
C27    C     0.31262   0.20871   0.25465   0.00000  Uiso   1.00
C28    C     0.31245   0.12372   0.24562   0.00000  Uiso   1.00
C29    C     0.02071   0.20871   0.24528   0.00000  Uiso   1.00
C30    C     0.29066   0.16633   0.25018   0.00000  Uiso   1.00
Cu31   Cu    0.16667   0.21355   0.25000   0.00000  Uiso   1.00
Cu32   Cu    0.16667   0.11978   0.25000   0.00000  Uiso   1.00
H33    H     0.16776   0.24235   0.38955   0.00000  Uiso   1.00
H34    H     0.19543   0.29003   0.31295   0.00000  Uiso   1.00
H35    H     0.19624   0.04335   0.31251   0.00000  Uiso   1.00
H36    H     0.13791   0.29005   0.18705   0.00000  Uiso   1.00
H37    H     0.16562   0.09098   0.11046   0.00000  Uiso   1.00
H38    H     0.16584   0.09096   0.38955   0.00000  Uiso   1.00
H39    H     0.16736   0.24238   0.11045   0.00000  Uiso   1.00
H40    H     0.16516   0.04799   0.45941   0.00000  Uiso   1.00
H41    H     0.16801   0.28536   0.04058   0.00000  Uiso   1.00
H42    H     0.16501   0.04801   0.04060   0.00000  Uiso   1.00
H43    H     0.16822   0.28534   0.45940   0.00000  Uiso   1.00
H44    H     0.13709   0.04338   0.18749   0.00000  Uiso   1.00
I45    I     0.04648   0.05996   0.28067   0.00000  Uiso   1.00
I46    I     0.28838   0.27178   0.28301   0.00000  Uiso   1.00
I47    I     0.28684   0.06002   0.21918   0.00000  Uiso   1.00
I48    I     0.04496   0.27175   0.21685   0.00000  Uiso   1.00
N49    N     0.16667   0.28402   0.25000   0.00000  Uiso   1.00
N50    N     0.16667   0.04931   0.25000   0.00000  Uiso   1.00
O51    O     0.10655   0.20625   0.25000   0.00000  Uiso   1.00
O52    O     0.22679   0.12709   0.25001   0.00000  Uiso   1.00
O53    O     0.22679   0.20625   0.25001   0.00000  Uiso   1.00
O54    O     0.10655   0.12709   0.25000   0.00000  Uiso   1.00
O55    O     0.16666   0.20627   0.18513   0.00000  Uiso   1.00
O56    O     0.16668   0.12707   0.31487   0.00000  Uiso   1.00
O57    O     0.16668   0.20627   0.31487   0.00000  Uiso   1.00
O58    O     0.16666   0.12707   0.18513   0.00000  Uiso   1.00
C59    C     0.42064   0.16660   0.24987   0.00000  Uiso   1.00
C60    C     0.37600   0.16632   0.24977   0.00000  Uiso   1.00
C61    C     0.48376   0.02481   0.21523   0.00000  Uiso   1.00
C62    C     0.51591   0.30856   0.28493   0.00000  Uiso   1.00
C63    C     0.51624   0.02480   0.28477   0.00000  Uiso   1.00
C64    C     0.48409   0.30858   0.21507   0.00000  Uiso   1.00
C65    C     0.49994   0.16667   0.16426   0.00000  Uiso   1.00
C66    C     0.50006   0.16666   0.33574   0.00000  Uiso   1.00
C67    C     0.50065   0.20932   0.40736   0.00000  Uiso   1.00
C68    C     0.49935   0.12402   0.09264   0.00000  Uiso   1.00
C69    C     0.50011   0.16665   0.38418   0.00000  Uiso   1.00
C70    C     0.57936   0.16661   0.25012   0.00000  Uiso   1.00
C71    C     0.49986   0.16668   0.11582   0.00000  Uiso   1.00
C72    C     0.49959   0.12399   0.40737   0.00000  Uiso   1.00
C73    C     0.50033   0.20935   0.09263   0.00000  Uiso   1.00
C74    C     0.49952   0.12369   0.45355   0.00000  Uiso   1.00
C75    C     0.50040   0.20964   0.04645   0.00000  Uiso   1.00
C76    C     0.50002   0.16666   0.47676   0.00000  Uiso   1.00
C77    C     0.49992   0.16667   0.02324   0.00000  Uiso   1.00
C78    C     0.50060   0.20963   0.45355   0.00000  Uiso   1.00
C79    C     0.49936   0.12371   0.04645   0.00000  Uiso   1.00
C80    C     0.49891   0.08119   0.47689   0.00000  Uiso   1.00
C81    C     0.49883   0.08120   0.02311   0.00000  Uiso   1.00
C82    C     0.50097   0.25215   0.02310   0.00000  Uiso   1.00
C83    C     0.50108   0.25214   0.47689   0.00000  Uiso   1.00
C84    C     0.35421   0.12371   0.25430   0.00000  Uiso   1.00
C85    C     0.64595   0.20871   0.25465   0.00000  Uiso   1.00
C86    C     0.64578   0.12372   0.24562   0.00000  Uiso   1.00
C87    C     0.35405   0.20871   0.24528   0.00000  Uiso   1.00
C88    C     0.62400   0.16633   0.25018   0.00000  Uiso   1.00
Cu89   Cu    0.50000   0.21355   0.25000   0.00000  Uiso   1.00
Cu90   Cu    0.50000   0.11978   0.25000   0.00000  Uiso   1.00
H91    H     0.50109   0.24235   0.38955   0.00000  Uiso   1.00
H92    H     0.52877   0.29003   0.31295   0.00000  Uiso   1.00
H93    H     0.52958   0.04335   0.31251   0.00000  Uiso   1.00
H94    H     0.47124   0.29005   0.18705   0.00000  Uiso   1.00
H95    H     0.49896   0.09098   0.11046   0.00000  Uiso   1.00
H96    H     0.49917   0.09096   0.38955   0.00000  Uiso   1.00
H97    H     0.50070   0.24238   0.11045   0.00000  Uiso   1.00
H98    H     0.49849   0.04799   0.45941   0.00000  Uiso   1.00
H99    H     0.50135   0.28536   0.04058   0.00000  Uiso   1.00
H100   H     0.49834   0.04801   0.04060   0.00000  Uiso   1.00
H101   H     0.50155   0.28534   0.45940   0.00000  Uiso   1.00
H102   H     0.47042   0.04338   0.18749   0.00000  Uiso   1.00
I103   I     0.37981   0.05996   0.28067   0.00000  Uiso   1.00
I104   I     0.62171   0.27178   0.28301   0.00000  Uiso   1.00
I105   I     0.62018   0.06002   0.21918   0.00000  Uiso   1.00
I106   I     0.37830   0.27175   0.21685   0.00000  Uiso   1.00
N107   N     0.50000   0.28402   0.25000   0.00000  Uiso   1.00
N108   N     0.50000   0.04931   0.25000   0.00000  Uiso   1.00
O109   O     0.43988   0.20625   0.25000   0.00000  Uiso   1.00
O110   O     0.56012   0.12709   0.25001   0.00000  Uiso   1.00
O111   O     0.56012   0.20625   0.25001   0.00000  Uiso   1.00
O112   O     0.43988   0.12709   0.25000   0.00000  Uiso   1.00
O113   O     0.49999   0.20627   0.18513   0.00000  Uiso   1.00
O114   O     0.50001   0.12707   0.31487   0.00000  Uiso   1.00
O115   O     0.50001   0.20627   0.31487   0.00000  Uiso   1.00
O116   O     0.49999   0.12707   0.18513   0.00000  Uiso   1.00
C117   C     0.75397   0.16660   0.24987   0.00000  Uiso   1.00
C118   C     0.70934   0.16632   0.24977   0.00000  Uiso   1.00
C119   C     0.81710   0.02481   0.21523   0.00000  Uiso   1.00
C120   C     0.84925   0.30856   0.28493   0.00000  Uiso   1.00
C121   C     0.84957   0.02480   0.28477   0.00000  Uiso   1.00
C122   C     0.81742   0.30858   0.21507   0.00000  Uiso   1.00
C123   C     0.83327   0.16667   0.16426   0.00000  Uiso   1.00
C124   C     0.83339   0.16666   0.33574   0.00000  Uiso   1.00
C125   C     0.83399   0.20932   0.40736   0.00000  Uiso   1.00
C126   C     0.83268   0.12402   0.09264   0.00000  Uiso   1.00
C127   C     0.83345   0.16665   0.38418   0.00000  Uiso   1.00
C128   C     0.91270   0.16661   0.25012   0.00000  Uiso   1.00
C129   C     0.83320   0.16668   0.11582   0.00000  Uiso   1.00
C130   C     0.83292   0.12399   0.40737   0.00000  Uiso   1.00
C131   C     0.83366   0.20935   0.09263   0.00000  Uiso   1.00
C132   C     0.83285   0.12369   0.45355   0.00000  Uiso   1.00
C133   C     0.83373   0.20964   0.04645   0.00000  Uiso   1.00
C134   C     0.83335   0.16666   0.47676   0.00000  Uiso   1.00
C135   C     0.83326   0.16667   0.02324   0.00000  Uiso   1.00
C136   C     0.83393   0.20963   0.45355   0.00000  Uiso   1.00
C137   C     0.83269   0.12371   0.04645   0.00000  Uiso   1.00
C138   C     0.83224   0.08119   0.47689   0.00000  Uiso   1.00
C139   C     0.83216   0.08120   0.02311   0.00000  Uiso   1.00
C140   C     0.83430   0.25215   0.02310   0.00000  Uiso   1.00
C141   C     0.83442   0.25214   0.47689   0.00000  Uiso   1.00
C142   C     0.68755   0.12371   0.25430   0.00000  Uiso   1.00
C143   C     0.97929   0.20871   0.25465   0.00000  Uiso   1.00
C144   C     0.97912   0.12372   0.24562   0.00000  Uiso   1.00
C145   C     0.68738   0.20871   0.24528   0.00000  Uiso   1.00
C146   C     0.95733   0.16633   0.25018   0.00000  Uiso   1.00
Cu147  Cu    0.83333   0.21355   0.25000   0.00000  Uiso   1.00
Cu148  Cu    0.83333   0.11978   0.25000   0.00000  Uiso   1.00
H149   H     0.83442   0.24235   0.38955   0.00000  Uiso   1.00
H150   H     0.86210   0.29003   0.31295   0.00000  Uiso   1.00
H151   H     0.86291   0.04335   0.31251   0.00000  Uiso   1.00
H152   H     0.80458   0.29005   0.18705   0.00000  Uiso   1.00
H153   H     0.83229   0.09098   0.11046   0.00000  Uiso   1.00
H154   H     0.83251   0.09096   0.38955   0.00000  Uiso   1.00
H155   H     0.83403   0.24238   0.11045   0.00000  Uiso   1.00
H156   H     0.83183   0.04799   0.45941   0.00000  Uiso   1.00
H157   H     0.83468   0.28536   0.04058   0.00000  Uiso   1.00
H158   H     0.83168   0.04801   0.04060   0.00000  Uiso   1.00
H159   H     0.83488   0.28534   0.45940   0.00000  Uiso   1.00
H160   H     0.80375   0.04338   0.18749   0.00000  Uiso   1.00
I161   I     0.71314   0.05996   0.28067   0.00000  Uiso   1.00
I162   I     0.95505   0.27178   0.28301   0.00000  Uiso   1.00
I163   I     0.95351   0.06002   0.21918   0.00000  Uiso   1.00
I164   I     0.71163   0.27175   0.21685   0.00000  Uiso   1.00
N165   N     0.83333   0.28402   0.25000   0.00000  Uiso   1.00
N166   N     0.83333   0.04931   0.25000   0.00000  Uiso   1.00
O167   O     0.77321   0.20625   0.25000   0.00000  Uiso   1.00
O168   O     0.89345   0.12709   0.25001   0.00000  Uiso   1.00
O169   O     0.89345   0.20625   0.25001   0.00000  Uiso   1.00
O170   O     0.77321   0.12709   0.25000   0.00000  Uiso   1.00
O171   O     0.83332   0.20627   0.18513   0.00000  Uiso   1.00
O172   O     0.83334   0.12707   0.31487   0.00000  Uiso   1.00
O173   O     0.83334   0.20627   0.31487   0.00000  Uiso   1.00
O174   O     0.83332   0.12707   0.18513   0.00000  Uiso   1.00
C175   C     0.08730   0.49994   0.24987   0.00000  Uiso   1.00
C176   C     0.04267   0.49965   0.24977   0.00000  Uiso   1.00
C177   C     0.15043   0.35814   0.21523   0.00000  Uiso   1.00
C178   C     0.18258   0.64190   0.28493   0.00000  Uiso   1.00
C179   C     0.18290   0.35813   0.28477   0.00000  Uiso   1.00
C180   C     0.15076   0.64191   0.21507   0.00000  Uiso   1.00
C181   C     0.16660   0.50000   0.16426   0.00000  Uiso   1.00
C182   C     0.16673   0.50000   0.33574   0.00000  Uiso   1.00
C183   C     0.16732   0.54265   0.40736   0.00000  Uiso   1.00
C184   C     0.16602   0.45735   0.09264   0.00000  Uiso   1.00
C185   C     0.16678   0.49999   0.38418   0.00000  Uiso   1.00
C186   C     0.24603   0.49994   0.25012   0.00000  Uiso   1.00
C187   C     0.16653   0.50001   0.11582   0.00000  Uiso   1.00
C188   C     0.16625   0.45732   0.40737   0.00000  Uiso   1.00
C189   C     0.16699   0.54268   0.09263   0.00000  Uiso   1.00
C190   C     0.16619   0.45703   0.45355   0.00000  Uiso   1.00
C191   C     0.16706   0.54298   0.04645   0.00000  Uiso   1.00
C192   C     0.16668   0.50000   0.47676   0.00000  Uiso   1.00
C193   C     0.16659   0.50001   0.02324   0.00000  Uiso   1.00
C194   C     0.16727   0.54296   0.45355   0.00000  Uiso   1.00
C195   C     0.16603   0.45705   0.04645   0.00000  Uiso   1.00
C196   C     0.16558   0.41452   0.47689   0.00000  Uiso   1.00
C197   C     0.16550   0.41453   0.02311   0.00000  Uiso   1.00
C198   C     0.16764   0.58549   0.02310   0.00000  Uiso   1.00
C199   C     0.16775   0.58548   0.47689   0.00000  Uiso   1.00
C200   C     0.02088   0.45704   0.25430   0.00000  Uiso   1.00
C201   C     0.31262   0.54205   0.25465   0.00000  Uiso   1.00
C202   C     0.31245   0.45705   0.24562   0.00000  Uiso   1.00
C203   C     0.02071   0.54204   0.24528   0.00000  Uiso   1.00
C204   C     0.29066   0.49966   0.25018   0.00000  Uiso   1.00
Cu205  Cu    0.16667   0.54689   0.25000   0.00000  Uiso   1.00
Cu206  Cu    0.16667   0.45311   0.25000   0.00000  Uiso   1.00
H207   H     0.16776   0.57568   0.38955   0.00000  Uiso   1.00
H208   H     0.19543   0.62336   0.31295   0.00000  Uiso   1.00
H209   H     0.19624   0.37669   0.31251   0.00000  Uiso   1.00
H210   H     0.13791   0.62338   0.18705   0.00000  Uiso   1.00
H211   H     0.16562   0.42432   0.11046   0.00000  Uiso   1.00
H212   H     0.16584   0.42429   0.38955   0.00000  Uiso   1.00
H213   H     0.16736   0.57571   0.11045   0.00000  Uiso   1.00
H214   H     0.16516   0.38132   0.45941   0.00000  Uiso   1.00
H215   H     0.16801   0.61869   0.04058   0.00000  Uiso   1.00
H216   H     0.16501   0.38134   0.04060   0.00000  Uiso   1.00
H217   H     0.16822   0.61867   0.45940   0.00000  Uiso   1.00
H218   H     0.13709   0.37671   0.18749   0.00000  Uiso   1.00
I219   I     0.04648   0.39330   0.28067   0.00000  Uiso   1.00
I220   I     0.28838   0.60511   0.28301   0.00000  Uiso   1.00
I221   I     0.28684   0.39335   0.21918   0.00000  Uiso   1.00
I222   I     0.04496   0.60508   0.21685   0.00000  Uiso   1.00
N223   N     0.16667   0.61736   0.25000   0.00000  Uiso   1.00
N224   N     0.16667   0.38264   0.25000   0.00000  Uiso   1.00
O225   O     0.10655   0.53958   0.25000   0.00000  Uiso   1.00
O226   O     0.22679   0.46042   0.25001   0.00000  Uiso   1.00
O227   O     0.22679   0.53958   0.25001   0.00000  Uiso   1.00
O228   O     0.10655   0.46042   0.25000   0.00000  Uiso   1.00
O229   O     0.16666   0.53960   0.18513   0.00000  Uiso   1.00
O230   O     0.16668   0.46040   0.31487   0.00000  Uiso   1.00
O231   O     0.16668   0.53960   0.31487   0.00000  Uiso   1.00
O232   O     0.16666   0.46040   0.18513   0.00000  Uiso   1.00
C233   C     0.42064   0.49994   0.24987   0.00000  Uiso   1.00
C234   C     0.37600   0.49965   0.24977   0.00000  Uiso   1.00
C235   C     0.48376   0.35814   0.21523   0.00000  Uiso   1.00
C236   C     0.51591   0.64190   0.28493   0.00000  Uiso   1.00
C237   C     0.51624   0.35813   0.28477   0.00000  Uiso   1.00
C238   C     0.48409   0.64191   0.21507   0.00000  Uiso   1.00
C239   C     0.49994   0.50000   0.16426   0.00000  Uiso   1.00
C240   C     0.50006   0.50000   0.33574   0.00000  Uiso   1.00
C241   C     0.50065   0.54265   0.40736   0.00000  Uiso   1.00
C242   C     0.49935   0.45735   0.09264   0.00000  Uiso   1.00
C243   C     0.50011   0.49999   0.38418   0.00000  Uiso   1.00
C244   C     0.57936   0.49994   0.25012   0.00000  Uiso   1.00
C245   C     0.49986   0.50001   0.11582   0.00000  Uiso   1.00
C246   C     0.49959   0.45732   0.40737   0.00000  Uiso   1.00
C247   C     0.50033   0.54268   0.09263   0.00000  Uiso   1.00
C248   C     0.49952   0.45703   0.45355   0.00000  Uiso   1.00
C249   C     0.50040   0.54298   0.04645   0.00000  Uiso   1.00
C250   C     0.50002   0.50000   0.47676   0.00000  Uiso   1.00
C251   C     0.49992   0.50001   0.02324   0.00000  Uiso   1.00
C252   C     0.50060   0.54296   0.45355   0.00000  Uiso   1.00
C253   C     0.49936   0.45705   0.04645   0.00000  Uiso   1.00
C254   C     0.49891   0.41452   0.47689   0.00000  Uiso   1.00
C255   C     0.49883   0.41453   0.02311   0.00000  Uiso   1.00
C256   C     0.50097   0.58549   0.02310   0.00000  Uiso   1.00
C257   C     0.50108   0.58548   0.47689   0.00000  Uiso   1.00
C258   C     0.35421   0.45704   0.25430   0.00000  Uiso   1.00
C259   C     0.64595   0.54205   0.25465   0.00000  Uiso   1.00
C260   C     0.64578   0.45705   0.24562   0.00000  Uiso   1.00
C261   C     0.35405   0.54204   0.24528   0.00000  Uiso   1.00
C262   C     0.62400   0.49966   0.25018   0.00000  Uiso   1.00
Cu263  Cu    0.50000   0.54689   0.25000   0.00000  Uiso   1.00
Cu264  Cu    0.50000   0.45311   0.25000   0.00000  Uiso   1.00
H265   H     0.50109   0.57568   0.38955   0.00000  Uiso   1.00
H266   H     0.52877   0.62336   0.31295   0.00000  Uiso   1.00
H267   H     0.52958   0.37669   0.31251   0.00000  Uiso   1.00
H268   H     0.47124   0.62338   0.18705   0.00000  Uiso   1.00
H269   H     0.49896   0.42432   0.11046   0.00000  Uiso   1.00
H270   H     0.49917   0.42429   0.38955   0.00000  Uiso   1.00
H271   H     0.50070   0.57571   0.11045   0.00000  Uiso   1.00
H272   H     0.49849   0.38132   0.45941   0.00000  Uiso   1.00
H273   H     0.50135   0.61869   0.04058   0.00000  Uiso   1.00
H274   H     0.49834   0.38134   0.04060   0.00000  Uiso   1.00
H275   H     0.50155   0.61867   0.45940   0.00000  Uiso   1.00
H276   H     0.47042   0.37671   0.18749   0.00000  Uiso   1.00
I277   I     0.37981   0.39330   0.28067   0.00000  Uiso   1.00
I278   I     0.62171   0.60511   0.28301   0.00000  Uiso   1.00
I279   I     0.62018   0.39335   0.21918   0.00000  Uiso   1.00
I280   I     0.37830   0.60508   0.21685   0.00000  Uiso   1.00
N281   N     0.50000   0.61736   0.25000   0.00000  Uiso   1.00
N282   N     0.50000   0.38264   0.25000   0.00000  Uiso   1.00
O283   O     0.43988   0.53958   0.25000   0.00000  Uiso   1.00
O284   O     0.56012   0.46042   0.25001   0.00000  Uiso   1.00
O285   O     0.56012   0.53958   0.25001   0.00000  Uiso   1.00
O286   O     0.43988   0.46042   0.25000   0.00000  Uiso   1.00
O287   O     0.49999   0.53960   0.18513   0.00000  Uiso   1.00
O288   O     0.50001   0.46040   0.31487   0.00000  Uiso   1.00
O289   O     0.50001   0.53960   0.31487   0.00000  Uiso   1.00
O290   O     0.49999   0.46040   0.18513   0.00000  Uiso   1.00
C291   C     0.75397   0.49994   0.24987   0.00000  Uiso   1.00
C292   C     0.70934   0.49965   0.24977   0.00000  Uiso   1.00
C293   C     0.81710   0.35814   0.21523   0.00000  Uiso   1.00
C294   C     0.84925   0.64190   0.28493   0.00000  Uiso   1.00
C295   C     0.84957   0.35813   0.28477   0.00000  Uiso   1.00
C296   C     0.81742   0.64191   0.21507   0.00000  Uiso   1.00
C297   C     0.83327   0.50000   0.16426   0.00000  Uiso   1.00
C298   C     0.83339   0.50000   0.33574   0.00000  Uiso   1.00
C299   C     0.83399   0.54265   0.40736   0.00000  Uiso   1.00
C300   C     0.83268   0.45735   0.09264   0.00000  Uiso   1.00
C301   C     0.83345   0.49999   0.38418   0.00000  Uiso   1.00
C302   C     0.91270   0.49994   0.25012   0.00000  Uiso   1.00
C303   C     0.83320   0.50001   0.11582   0.00000  Uiso   1.00
C304   C     0.83292   0.45732   0.40737   0.00000  Uiso   1.00
C305   C     0.83366   0.54268   0.09263   0.00000  Uiso   1.00
C306   C     0.83285   0.45703   0.45355   0.00000  Uiso   1.00
C307   C     0.83373   0.54298   0.04645   0.00000  Uiso   1.00
C308   C     0.83335   0.50000   0.47676   0.00000  Uiso   1.00
C309   C     0.83326   0.50001   0.02324   0.00000  Uiso   1.00
C310   C     0.83393   0.54296   0.45355   0.00000  Uiso   1.00
C311   C     0.83269   0.45705   0.04645   0.00000  Uiso   1.00
C312   C     0.83224   0.41452   0.47689   0.00000  Uiso   1.00
C313   C     0.83216   0.41453   0.02311   0.00000  Uiso   1.00
C314   C     0.83430   0.58549   0.02310   0.00000  Uiso   1.00
C315   C     0.83442   0.58548   0.47689   0.00000  Uiso   1.00
C316   C     0.68755   0.45704   0.25430   0.00000  Uiso   1.00
C317   C     0.97929   0.54205   0.25465   0.00000  Uiso   1.00
C318   C     0.97912   0.45705   0.24562   0.00000  Uiso   1.00
C319   C     0.68738   0.54204   0.24528   0.00000  Uiso   1.00
C320   C     0.95733   0.49966   0.25018   0.00000  Uiso   1.00
Cu321  Cu    0.83333   0.54689   0.25000   0.00000  Uiso   1.00
Cu322  Cu    0.83333   0.45311   0.25000   0.00000  Uiso   1.00
H323   H     0.83442   0.57568   0.38955   0.00000  Uiso   1.00
H324   H     0.86210   0.62336   0.31295   0.00000  Uiso   1.00
H325   H     0.86291   0.37669   0.31251   0.00000  Uiso   1.00
H326   H     0.80458   0.62338   0.18705   0.00000  Uiso   1.00
H327   H     0.83229   0.42432   0.11046   0.00000  Uiso   1.00
H328   H     0.83251   0.42429   0.38955   0.00000  Uiso   1.00
H329   H     0.83403   0.57571   0.11045   0.00000  Uiso   1.00
H330   H     0.83183   0.38132   0.45941   0.00000  Uiso   1.00
H331   H     0.83468   0.61869   0.04058   0.00000  Uiso   1.00
H332   H     0.83168   0.38134   0.04060   0.00000  Uiso   1.00
H333   H     0.83488   0.61867   0.45940   0.00000  Uiso   1.00
H334   H     0.80375   0.37671   0.18749   0.00000  Uiso   1.00
I335   I     0.71314   0.39330   0.28067   0.00000  Uiso   1.00
I336   I     0.95505   0.60511   0.28301   0.00000  Uiso   1.00
I337   I     0.95351   0.39335   0.21918   0.00000  Uiso   1.00
I338   I     0.71163   0.60508   0.21685   0.00000  Uiso   1.00
N339   N     0.83333   0.61736   0.25000   0.00000  Uiso   1.00
N340   N     0.83333   0.38264   0.25000   0.00000  Uiso   1.00
O341   O     0.77321   0.53958   0.25000   0.00000  Uiso   1.00
O342   O     0.89345   0.46042   0.25001   0.00000  Uiso   1.00
O343   O     0.89345   0.53958   0.25001   0.00000  Uiso   1.00
O344   O     0.77321   0.46042   0.25000   0.00000  Uiso   1.00
O345   O     0.83332   0.53960   0.18513   0.00000  Uiso   1.00
O346   O     0.83334   0.46040   0.31487   0.00000  Uiso   1.00
O347   O     0.83334   0.53960   0.31487   0.00000  Uiso   1.00
O348   O     0.83332   0.46040   0.18513   0.00000  Uiso   1.00
C349   C     0.08730   0.83327   0.24987   0.00000  Uiso   1.00
C350   C     0.04267   0.83299   0.24977   0.00000  Uiso   1.00
C351   C     0.15043   0.69148   0.21523   0.00000  Uiso   1.00
C352   C     0.18258   0.97523   0.28493   0.00000  Uiso   1.00
C353   C     0.18290   0.69146   0.28477   0.00000  Uiso   1.00
C354   C     0.15076   0.97524   0.21507   0.00000  Uiso   1.00
C355   C     0.16660   0.83334   0.16426   0.00000  Uiso   1.00
C356   C     0.16673   0.83333   0.33574   0.00000  Uiso   1.00
C357   C     0.16732   0.87598   0.40736   0.00000  Uiso   1.00
C358   C     0.16602   0.79068   0.09264   0.00000  Uiso   1.00
C359   C     0.16678   0.83332   0.38418   0.00000  Uiso   1.00
C360   C     0.24603   0.83327   0.25012   0.00000  Uiso   1.00
C361   C     0.16653   0.83334   0.11582   0.00000  Uiso   1.00
C362   C     0.16625   0.79066   0.40737   0.00000  Uiso   1.00
C363   C     0.16699   0.87601   0.09263   0.00000  Uiso   1.00
C364   C     0.16619   0.79036   0.45355   0.00000  Uiso   1.00
C365   C     0.16706   0.87631   0.04645   0.00000  Uiso   1.00
C366   C     0.16668   0.83333   0.47676   0.00000  Uiso   1.00
C367   C     0.16659   0.83334   0.02324   0.00000  Uiso   1.00
C368   C     0.16727   0.87629   0.45355   0.00000  Uiso   1.00
C369   C     0.16603   0.79038   0.04645   0.00000  Uiso   1.00
C370   C     0.16558   0.74786   0.47689   0.00000  Uiso   1.00
C371   C     0.16550   0.74787   0.02311   0.00000  Uiso   1.00
C372   C     0.16764   0.91882   0.02310   0.00000  Uiso   1.00
C373   C     0.16775   0.91881   0.47689   0.00000  Uiso   1.00
C374   C     0.02088   0.79037   0.25430   0.00000  Uiso   1.00
C375   C     0.31262   0.87538   0.25465   0.00000  Uiso   1.00
C376   C     0.31245   0.79038   0.24562   0.00000  Uiso   1.00
C377   C     0.02071   0.87538   0.24528   0.00000  Uiso   1.00
C378   C     0.29066   0.83299   0.25018   0.00000  Uiso   1.00
Cu379  Cu    0.16667   0.88022   0.25000   0.00000  Uiso   1.00
Cu380  Cu    0.16667   0.78645   0.25000   0.00000  Uiso   1.00
H381   H     0.16776   0.90901   0.38955   0.00000  Uiso   1.00
H382   H     0.19543   0.95669   0.31295   0.00000  Uiso   1.00
H383   H     0.19624   0.71002   0.31251   0.00000  Uiso   1.00
H384   H     0.13791   0.95672   0.18705   0.00000  Uiso   1.00
H385   H     0.16562   0.75765   0.11046   0.00000  Uiso   1.00
H386   H     0.16584   0.75763   0.38955   0.00000  Uiso   1.00
H387   H     0.16736   0.90904   0.11045   0.00000  Uiso   1.00
H388   H     0.16516   0.71465   0.45941   0.00000  Uiso   1.00
H389   H     0.16801   0.95203   0.04058   0.00000  Uiso   1.00
H390   H     0.16501   0.71467   0.04060   0.00000  Uiso   1.00
H391   H     0.16822   0.95201   0.45940   0.00000  Uiso   1.00
H392   H     0.13709   0.71004   0.18749   0.00000  Uiso   1.00
I393   I     0.04648   0.72663   0.28067   0.00000  Uiso   1.00
I394   I     0.28838   0.93845   0.28301   0.00000  Uiso   1.00
I395   I     0.28684   0.72669   0.21918   0.00000  Uiso   1.00
I396   I     0.04496   0.93841   0.21685   0.00000  Uiso   1.00
N397   N     0.16667   0.95069   0.25000   0.00000  Uiso   1.00
N398   N     0.16667   0.71598   0.25000   0.00000  Uiso   1.00
O399   O     0.10655   0.87291   0.25000   0.00000  Uiso   1.00
O400   O     0.22679   0.79375   0.25001   0.00000  Uiso   1.00
O401   O     0.22679   0.87291   0.25001   0.00000  Uiso   1.00
O402   O     0.10655   0.79375   0.25000   0.00000  Uiso   1.00
O403   O     0.16666   0.87293   0.18513   0.00000  Uiso   1.00
O404   O     0.16668   0.79373   0.31487   0.00000  Uiso   1.00
O405   O     0.16668   0.87293   0.31487   0.00000  Uiso   1.00
O406   O     0.16666   0.79373   0.18513   0.00000  Uiso   1.00
C407   C     0.42064   0.83327   0.24987   0.00000  Uiso   1.00
C408   C     0.37600   0.83299   0.24977   0.00000  Uiso   1.00
C409   C     0.48376   0.69148   0.21523   0.00000  Uiso   1.00
C410   C     0.51591   0.97523   0.28493   0.00000  Uiso   1.00
C411   C     0.51624   0.69146   0.28477   0.00000  Uiso   1.00
C412   C     0.48409   0.97524   0.21507   0.00000  Uiso   1.00
C413   C     0.49994   0.83334   0.16426   0.00000  Uiso   1.00
C414   C     0.50006   0.83333   0.33574   0.00000  Uiso   1.00
C415   C     0.50065   0.87598   0.40736   0.00000  Uiso   1.00
C416   C     0.49935   0.79068   0.09264   0.00000  Uiso   1.00
C417   C     0.50011   0.83332   0.38418   0.00000  Uiso   1.00
C418   C     0.57936   0.83327   0.25012   0.00000  Uiso   1.00
C419   C     0.49986   0.83334   0.11582   0.00000  Uiso   1.00
C420   C     0.49959   0.79066   0.40737   0.00000  Uiso   1.00
C421   C     0.50033   0.87601   0.09263   0.00000  Uiso   1.00
C422   C     0.49952   0.79036   0.45355   0.00000  Uiso   1.00
C423   C     0.50040   0.87631   0.04645   0.00000  Uiso   1.00
C424   C     0.50002   0.83333   0.47676   0.00000  Uiso   1.00
C425   C     0.49992   0.83334   0.02324   0.00000  Uiso   1.00
C426   C     0.50060   0.87629   0.45355   0.00000  Uiso   1.00
C427   C     0.49936   0.79038   0.04645   0.00000  Uiso   1.00
C428   C     0.49891   0.74786   0.47689   0.00000  Uiso   1.00
C429   C     0.49883   0.74787   0.02311   0.00000  Uiso   1.00
C430   C     0.50097   0.91882   0.02310   0.00000  Uiso   1.00
C431   C     0.50108   0.91881   0.47689   0.00000  Uiso   1.00
C432   C     0.35421   0.79037   0.25430   0.00000  Uiso   1.00
C433   C     0.64595   0.87538   0.25465   0.00000  Uiso   1.00
C434   C     0.64578   0.79038   0.24562   0.00000  Uiso   1.00
C435   C     0.35405   0.87538   0.24528   0.00000  Uiso   1.00
C436   C     0.62400   0.83299   0.25018   0.00000  Uiso   1.00
Cu437  Cu    0.50000   0.88022   0.25000   0.00000  Uiso   1.00
Cu438  Cu    0.50000   0.78645   0.25000   0.00000  Uiso   1.00
H439   H     0.50109   0.90901   0.38955   0.00000  Uiso   1.00
H440   H     0.52877   0.95669   0.31295   0.00000  Uiso   1.00
H441   H     0.52958   0.71002   0.31251   0.00000  Uiso   1.00
H442   H     0.47124   0.95672   0.18705   0.00000  Uiso   1.00
H443   H     0.49896   0.75765   0.11046   0.00000  Uiso   1.00
H444   H     0.49917   0.75763   0.38955   0.00000  Uiso   1.00
H445   H     0.50070   0.90904   0.11045   0.00000  Uiso   1.00
H446   H     0.49849   0.71465   0.45941   0.00000  Uiso   1.00
H447   H     0.50135   0.95203   0.04058   0.00000  Uiso   1.00
H448   H     0.49834   0.71467   0.04060   0.00000  Uiso   1.00
H449   H     0.50155   0.95201   0.45940   0.00000  Uiso   1.00
H450   H     0.47042   0.71004   0.18749   0.00000  Uiso   1.00
I451   I     0.37981   0.72663   0.28067   0.00000  Uiso   1.00
I452   I     0.62171   0.93845   0.28301   0.00000  Uiso   1.00
I453   I     0.62018   0.72669   0.21918   0.00000  Uiso   1.00
I454   I     0.37830   0.93841   0.21685   0.00000  Uiso   1.00
N455   N     0.50000   0.95069   0.25000   0.00000  Uiso   1.00
N456   N     0.50000   0.71598   0.25000   0.00000  Uiso   1.00
O457   O     0.43988   0.87291   0.25000   0.00000  Uiso   1.00
O458   O     0.56012   0.79375   0.25001   0.00000  Uiso   1.00
O459   O     0.56012   0.87291   0.25001   0.00000  Uiso   1.00
O460   O     0.43988   0.79375   0.25000   0.00000  Uiso   1.00
O461   O     0.49999   0.87293   0.18513   0.00000  Uiso   1.00
O462   O     0.50001   0.79373   0.31487   0.00000  Uiso   1.00
O463   O     0.50001   0.87293   0.31487   0.00000  Uiso   1.00
O464   O     0.49999   0.79373   0.18513   0.00000  Uiso   1.00
C465   C     0.75397   0.83327   0.24987   0.00000  Uiso   1.00
C466   C     0.70934   0.83299   0.24977   0.00000  Uiso   1.00
C467   C     0.81710   0.69148   0.21523   0.00000  Uiso   1.00
C468   C     0.84925   0.97523   0.28493   0.00000  Uiso   1.00
C469   C     0.84957   0.69146   0.28477   0.00000  Uiso   1.00
C470   C     0.81742   0.97524   0.21507   0.00000  Uiso   1.00
C471   C     0.83327   0.83334   0.16426   0.00000  Uiso   1.00
C472   C     0.83339   0.83333   0.33574   0.00000  Uiso   1.00
C473   C     0.83399   0.87598   0.40736   0.00000  Uiso   1.00
C474   C     0.83268   0.79068   0.09264   0.00000  Uiso   1.00
C475   C     0.83345   0.83332   0.38418   0.00000  Uiso   1.00
C476   C     0.91270   0.83327   0.25012   0.00000  Uiso   1.00
C477   C     0.83320   0.83334   0.11582   0.00000  Uiso   1.00
C478   C     0.83292   0.79066   0.40737   0.00000  Uiso   1.00
C479   C     0.83366   0.87601   0.09263   0.00000  Uiso   1.00
C480   C     0.83285   0.79036   0.45355   0.00000  Uiso   1.00
C481   C     0.83373   0.87631   0.04645   0.00000  Uiso   1.00
C482   C     0.83335   0.83333   0.47676   0.00000  Uiso   1.00
C483   C     0.83326   0.83334   0.02324   0.00000  Uiso   1.00
C484   C     0.83393   0.87629   0.45355   0.00000  Uiso   1.00
C485   C     0.83269   0.79038   0.04645   0.00000  Uiso   1.00
C486   C     0.83224   0.74786   0.47689   0.00000  Uiso   1.00
C487   C     0.83216   0.74787   0.02311   0.00000  Uiso   1.00
C488   C     0.83430   0.91882   0.02310   0.00000  Uiso   1.00
C489   C     0.83442   0.91881   0.47689   0.00000  Uiso   1.00
C490   C     0.68755   0.79037   0.25430   0.00000  Uiso   1.00
C491   C     0.97929   0.87538   0.25465   0.00000  Uiso   1.00
C492   C     0.97912   0.79038   0.24562   0.00000  Uiso   1.00
C493   C     0.68738   0.87538   0.24528   0.00000  Uiso   1.00
C494   C     0.95733   0.83299   0.25018   0.00000  Uiso   1.00
Cu495  Cu    0.83333   0.88022   0.25000   0.00000  Uiso   1.00
Cu496  Cu    0.83333   0.78645   0.25000   0.00000  Uiso   1.00
H497   H     0.83442   0.90901   0.38955   0.00000  Uiso   1.00
H498   H     0.86210   0.95669   0.31295   0.00000  Uiso   1.00
H499   H     0.86291   0.71002   0.31251   0.00000  Uiso   1.00
H500   H     0.80458   0.95672   0.18705   0.00000  Uiso   1.00
H501   H     0.83229   0.75765   0.11046   0.00000  Uiso   1.00
H502   H     0.83251   0.75763   0.38955   0.00000  Uiso   1.00
H503   H     0.83403   0.90904   0.11045   0.00000  Uiso   1.00
H504   H     0.83183   0.71465   0.45941   0.00000  Uiso   1.00
H505   H     0.83468   0.95203   0.04058   0.00000  Uiso   1.00
H506   H     0.83168   0.71467   0.04060   0.00000  Uiso   1.00
H507   H     0.83488   0.95201   0.45940   0.00000  Uiso   1.00
H508   H     0.80375   0.71004   0.18749   0.00000  Uiso   1.00
I509   I     0.71314   0.72663   0.28067   0.00000  Uiso   1.00
I510   I     0.95505   0.93845   0.28301   0.00000  Uiso   1.00
I511   I     0.95351   0.72669   0.21918   0.00000  Uiso   1.00
I512   I     0.71163   0.93841   0.21685   0.00000  Uiso   1.00
N513   N     0.83333   0.95069   0.25000   0.00000  Uiso   1.00
N514   N     0.83333   0.71598   0.25000   0.00000  Uiso   1.00
O515   O     0.77321   0.87291   0.25000   0.00000  Uiso   1.00
O516   O     0.89345   0.79375   0.25001   0.00000  Uiso   1.00
O517   O     0.89345   0.87291   0.25001   0.00000  Uiso   1.00
O518   O     0.77321   0.79375   0.25000   0.00000  Uiso   1.00
O519   O     0.83332   0.87293   0.18513   0.00000  Uiso   1.00
O520   O     0.83334   0.79373   0.31487   0.00000  Uiso   1.00
O521   O     0.83334   0.87293   0.31487   0.00000  Uiso   1.00
O522   O     0.83332   0.79373   0.18513   0.00000  Uiso   1.00
C523   C     0.08730   0.16660   0.74987   0.00000  Uiso   1.00
C524   C     0.04267   0.16632   0.74977   0.00000  Uiso   1.00
C525   C     0.15043   0.02481   0.71523   0.00000  Uiso   1.00
C526   C     0.18258   0.30856   0.78493   0.00000  Uiso   1.00
C527   C     0.18290   0.02480   0.78477   0.00000  Uiso   1.00
C528   C     0.15076   0.30858   0.71507   0.00000  Uiso   1.00
C529   C     0.16660   0.16667   0.66426   0.00000  Uiso   1.00
C530   C     0.16673   0.16666   0.83574   0.00000  Uiso   1.00
C531   C     0.16732   0.20932   0.90736   0.00000  Uiso   1.00
C532   C     0.16602   0.12402   0.59264   0.00000  Uiso   1.00
C533   C     0.16678   0.16665   0.88418   0.00000  Uiso   1.00
C534   C     0.24603   0.16661   0.75012   0.00000  Uiso   1.00
C535   C     0.16653   0.16668   0.61582   0.00000  Uiso   1.00
C536   C     0.16625   0.12399   0.90737   0.00000  Uiso   1.00
C537   C     0.16699   0.20935   0.59263   0.00000  Uiso   1.00
C538   C     0.16619   0.12369   0.95355   0.00000  Uiso   1.00
C539   C     0.16706   0.20964   0.54645   0.00000  Uiso   1.00
C540   C     0.16668   0.16666   0.97676   0.00000  Uiso   1.00
C541   C     0.16659   0.16667   0.52324   0.00000  Uiso   1.00
C542   C     0.16727   0.20963   0.95355   0.00000  Uiso   1.00
C543   C     0.16603   0.12371   0.54645   0.00000  Uiso   1.00
C544   C     0.16558   0.08119   0.97689   0.00000  Uiso   1.00
C545   C     0.16550   0.08120   0.52311   0.00000  Uiso   1.00
C546   C     0.16764   0.25215   0.52310   0.00000  Uiso   1.00
C547   C     0.16775   0.25214   0.97689   0.00000  Uiso   1.00
C548   C     0.02088   0.12371   0.75430   0.00000  Uiso   1.00
C549   C     0.31262   0.20871   0.75465   0.00000  Uiso   1.00
C550   C     0.31245   0.12372   0.74562   0.00000  Uiso   1.00
C551   C     0.02071   0.20871   0.74528   0.00000  Uiso   1.00
C552   C     0.29066   0.16633   0.75018   0.00000  Uiso   1.00
Cu553  Cu    0.16667   0.21355   0.75000   0.00000  Uiso   1.00
Cu554  Cu    0.16667   0.11978   0.75000   0.00000  Uiso   1.00
H555   H     0.16776   0.24235   0.88955   0.00000  Uiso   1.00
H556   H     0.19543   0.29003   0.81295   0.00000  Uiso   1.00
H557   H     0.19624   0.04335   0.81251   0.00000  Uiso   1.00
H558   H     0.13791   0.29005   0.68705   0.00000  Uiso   1.00
H559   H     0.16562   0.09098   0.61046   0.00000  Uiso   1.00
H560   H     0.16584   0.09096   0.88955   0.00000  Uiso   1.00
H561   H     0.16736   0.24238   0.61045   0.00000  Uiso   1.00
H562   H     0.16516   0.04799   0.95941   0.00000  Uiso   1.00
H563   H     0.16801   0.28536   0.54058   0.00000  Uiso   1.00
H564   H     0.16501   0.04801   0.54060   0.00000  Uiso   1.00
H565   H     0.16822   0.28534   0.95940   0.00000  Uiso   1.00
H566   H     0.13709   0.04338   0.68749   0.00000  Uiso   1.00
I567   I     0.04648   0.05996   0.78067   0.00000  Uiso   1.00
I568   I     0.28838   0.27178   0.78301   0.00000  Uiso   1.00
I569   I     0.28684   0.06002   0.71918   0.00000  Uiso   1.00
I570   I     0.04496   0.27175   0.71685   0.00000  Uiso   1.00
N571   N     0.16667   0.28402   0.75000   0.00000  Uiso   1.00
N572   N     0.16667   0.04931   0.75000   0.00000  Uiso   1.00
O573   O     0.10655   0.20625   0.75000   0.00000  Uiso   1.00
O574   O     0.22679   0.12709   0.75001   0.00000  Uiso   1.00
O575   O     0.22679   0.20625   0.75001   0.00000  Uiso   1.00
O576   O     0.10655   0.12709   0.75000   0.00000  Uiso   1.00
O577   O     0.16666   0.20627   0.68513   0.00000  Uiso   1.00
O578   O     0.16668   0.12707   0.81487   0.00000  Uiso   1.00
O579   O     0.16668   0.20627   0.81487   0.00000  Uiso   1.00
O580   O     0.16666   0.12707   0.68513   0.00000  Uiso   1.00
C581   C     0.42064   0.16660   0.74987   0.00000  Uiso   1.00
C582   C     0.37600   0.16632   0.74977   0.00000  Uiso   1.00
C583   C     0.48376   0.02481   0.71523   0.00000  Uiso   1.00
C584   C     0.51591   0.30856   0.78493   0.00000  Uiso   1.00
C585   C     0.51624   0.02480   0.78477   0.00000  Uiso   1.00
C586   C     0.48409   0.30858   0.71507   0.00000  Uiso   1.00
C587   C     0.49994   0.16667   0.66426   0.00000  Uiso   1.00
C588   C     0.50006   0.16666   0.83574   0.00000  Uiso   1.00
C589   C     0.50065   0.20932   0.90736   0.00000  Uiso   1.00
C590   C     0.49935   0.12402   0.59264   0.00000  Uiso   1.00
C591   C     0.50011   0.16665   0.88418   0.00000  Uiso   1.00
C592   C     0.57936   0.16661   0.75012   0.00000  Uiso   1.00
C593   C     0.49986   0.16668   0.61582   0.00000  Uiso   1.00
C594   C     0.49959   0.12399   0.90737   0.00000  Uiso   1.00
C595   C     0.50033   0.20935   0.59263   0.00000  Uiso   1.00
C596   C     0.49952   0.12369   0.95355   0.00000  Uiso   1.00
C597   C     0.50040   0.20964   0.54645   0.00000  Uiso   1.00
C598   C     0.50002   0.16666   0.97676   0.00000  Uiso   1.00
C599   C     0.49992   0.16667   0.52324   0.00000  Uiso   1.00
C600   C     0.50060   0.20963   0.95355   0.00000  Uiso   1.00
C601   C     0.49936   0.12371   0.54645   0.00000  Uiso   1.00
C602   C     0.49891   0.08119   0.97689   0.00000  Uiso   1.00
C603   C     0.49883   0.08120   0.52311   0.00000  Uiso   1.00
C604   C     0.50097   0.25215   0.52310   0.00000  Uiso   1.00
C605   C     0.50108   0.25214   0.97689   0.00000  Uiso   1.00
C606   C     0.35421   0.12371   0.75430   0.00000  Uiso   1.00
C607   C     0.64595   0.20871   0.75465   0.00000  Uiso   1.00
C608   C     0.64578   0.12372   0.74562   0.00000  Uiso   1.00
C609   C     0.35405   0.20871   0.74528   0.00000  Uiso   1.00
C610   C     0.62400   0.16633   0.75018   0.00000  Uiso   1.00
Cu611  Cu    0.50000   0.21355   0.75000   0.00000  Uiso   1.00
Cu612  Cu    0.50000   0.11978   0.75000   0.00000  Uiso   1.00
H613   H     0.50109   0.24235   0.88955   0.00000  Uiso   1.00
H614   H     0.52877   0.29003   0.81295   0.00000  Uiso   1.00
H615   H     0.52958   0.04335   0.81251   0.00000  Uiso   1.00
H616   H     0.47124   0.29005   0.68705   0.00000  Uiso   1.00
H617   H     0.49896   0.09098   0.61046   0.00000  Uiso   1.00
H618   H     0.49917   0.09096   0.88955   0.00000  Uiso   1.00
H619   H     0.50070   0.24238   0.61045   0.00000  Uiso   1.00
H620   H     0.49849   0.04799   0.95941   0.00000  Uiso   1.00
H621   H     0.50135   0.28536   0.54058   0.00000  Uiso   1.00
H622   H     0.49834   0.04801   0.54060   0.00000  Uiso   1.00
H623   H     0.50155   0.28534   0.95940   0.00000  Uiso   1.00
H624   H     0.47042   0.04338   0.68749   0.00000  Uiso   1.00
I625   I     0.37981   0.05996   0.78067   0.00000  Uiso   1.00
I626   I     0.62171   0.27178   0.78301   0.00000  Uiso   1.00
I627   I     0.62018   0.06002   0.71918   0.00000  Uiso   1.00
I628   I     0.37830   0.27175   0.71685   0.00000  Uiso   1.00
N629   N     0.50000   0.28402   0.75000   0.00000  Uiso   1.00
N630   N     0.50000   0.04931   0.75000   0.00000  Uiso   1.00
O631   O     0.43988   0.20625   0.75000   0.00000  Uiso   1.00
O632   O     0.56012   0.12709   0.75001   0.00000  Uiso   1.00
O633   O     0.56012   0.20625   0.75001   0.00000  Uiso   1.00
O634   O     0.43988   0.12709   0.75000   0.00000  Uiso   1.00
O635   O     0.49999   0.20627   0.68513   0.00000  Uiso   1.00
O636   O     0.50001   0.12707   0.81487   0.00000  Uiso   1.00
O637   O     0.50001   0.20627   0.81487   0.00000  Uiso   1.00
O638   O     0.49999   0.12707   0.68513   0.00000  Uiso   1.00
C639   C     0.75397   0.16660   0.74987   0.00000  Uiso   1.00
C640   C     0.70934   0.16632   0.74977   0.00000  Uiso   1.00
C641   C     0.81710   0.02481   0.71523   0.00000  Uiso   1.00
C642   C     0.84925   0.30856   0.78493   0.00000  Uiso   1.00
C643   C     0.84957   0.02480   0.78477   0.00000  Uiso   1.00
C644   C     0.81742   0.30858   0.71507   0.00000  Uiso   1.00
C645   C     0.83327   0.16667   0.66426   0.00000  Uiso   1.00
C646   C     0.83339   0.16666   0.83574   0.00000  Uiso   1.00
C647   C     0.83399   0.20932   0.90736   0.00000  Uiso   1.00
C648   C     0.83268   0.12402   0.59264   0.00000  Uiso   1.00
C649   C     0.83345   0.16665   0.88418   0.00000  Uiso   1.00
C650   C     0.91270   0.16661   0.75012   0.00000  Uiso   1.00
C651   C     0.83320   0.16668   0.61582   0.00000  Uiso   1.00
C652   C     0.83292   0.12399   0.90737   0.00000  Uiso   1.00
C653   C     0.83366   0.20935   0.59263   0.00000  Uiso   1.00
C654   C     0.83285   0.12369   0.95355   0.00000  Uiso   1.00
C655   C     0.83373   0.20964   0.54645   0.00000  Uiso   1.00
C656   C     0.83335   0.16666   0.97676   0.00000  Uiso   1.00
C657   C     0.83326   0.16667   0.52324   0.00000  Uiso   1.00
C658   C     0.83393   0.20963   0.95355   0.00000  Uiso   1.00
C659   C     0.83269   0.12371   0.54645   0.00000  Uiso   1.00
C660   C     0.83224   0.08119   0.97689   0.00000  Uiso   1.00
C661   C     0.83216   0.08120   0.52311   0.00000  Uiso   1.00
C662   C     0.83430   0.25215   0.52310   0.00000  Uiso   1.00
C663   C     0.83442   0.25214   0.97689   0.00000  Uiso   1.00
C664   C     0.68755   0.12371   0.75430   0.00000  Uiso   1.00
C665   C     0.97929   0.20871   0.75465   0.00000  Uiso   1.00
C666   C     0.97912   0.12372   0.74562   0.00000  Uiso   1.00
C667   C     0.68738   0.20871   0.74528   0.00000  Uiso   1.00
C668   C     0.95733   0.16633   0.75018   0.00000  Uiso   1.00
Cu669  Cu    0.83333   0.21355   0.75000   0.00000  Uiso   1.00
Cu670  Cu    0.83333   0.11978   0.75000   0.00000  Uiso   1.00
H671   H     0.83442   0.24235   0.88955   0.00000  Uiso   1.00
H672   H     0.86210   0.29003   0.81295   0.00000  Uiso   1.00
H673   H     0.86291   0.04335   0.81251   0.00000  Uiso   1.00
H674   H     0.80458   0.29005   0.68705   0.00000  Uiso   1.00
H675   H     0.83229   0.09098   0.61046   0.00000  Uiso   1.00
H676   H     0.83251   0.09096   0.88955   0.00000  Uiso   1.00
H677   H     0.83403   0.24238   0.61045   0.00000  Uiso   1.00
H678   H     0.83183   0.04799   0.95941   0.00000  Uiso   1.00
H679   H     0.83468   0.28536   0.54058   0.00000  Uiso   1.00
H680   H     0.83168   0.04801   0.54060   0.00000  Uiso   1.00
H681   H     0.83488   0.28534   0.95940   0.00000  Uiso   1.00
H682   H     0.80375   0.04338   0.68749   0.00000  Uiso   1.00
I683   I     0.71314   0.05996   0.78067   0.00000  Uiso   1.00
I684   I     0.95505   0.27178   0.78301   0.00000  Uiso   1.00
I685   I     0.95351   0.06002   0.71918   0.00000  Uiso   1.00
I686   I     0.71163   0.27175   0.71685   0.00000  Uiso   1.00
N687   N     0.83333   0.28402   0.75000   0.00000  Uiso   1.00
N688   N     0.83333   0.04931   0.75000   0.00000  Uiso   1.00
O689   O     0.77321   0.20625   0.75000   0.00000  Uiso   1.00
O690   O     0.89345   0.12709   0.75001   0.00000  Uiso   1.00
O691   O     0.89345   0.20625   0.75001   0.00000  Uiso   1.00
O692   O     0.77321   0.12709   0.75000   0.00000  Uiso   1.00
O693   O     0.83332   0.20627   0.68513   0.00000  Uiso   1.00
O694   O     0.83334   0.12707   0.81487   0.00000  Uiso   1.00
O695   O     0.83334   0.20627   0.81487   0.00000  Uiso   1.00
O696   O     0.83332   0.12707   0.68513   0.00000  Uiso   1.00
C697   C     0.08730   0.49994   0.74987   0.00000  Uiso   1.00
C698   C     0.04267   0.49965   0.74977   0.00000  Uiso   1.00
C699   C     0.15043   0.35814   0.71523   0.00000  Uiso   1.00
C700   C     0.18258   0.64190   0.78493   0.00000  Uiso   1.00
C701   C     0.18290   0.35813   0.78477   0.00000  Uiso   1.00
C702   C     0.15076   0.64191   0.71507   0.00000  Uiso   1.00
C703   C     0.16660   0.50000   0.66426   0.00000  Uiso   1.00
C704   C     0.16673   0.50000   0.83574   0.00000  Uiso   1.00
C705   C     0.16732   0.54265   0.90736   0.00000  Uiso   1.00
C706   C     0.16602   0.45735   0.59264   0.00000  Uiso   1.00
C707   C     0.16678   0.49999   0.88418   0.00000  Uiso   1.00
C708   C     0.24603   0.49994   0.75012   0.00000  Uiso   1.00
C709   C     0.16653   0.50001   0.61582   0.00000  Uiso   1.00
C710   C     0.16625   0.45732   0.90737   0.00000  Uiso   1.00
C711   C     0.16699   0.54268   0.59263   0.00000  Uiso   1.00
C712   C     0.16619   0.45703   0.95355   0.00000  Uiso   1.00
C713   C     0.16706   0.54298   0.54645   0.00000  Uiso   1.00
C714   C     0.16668   0.50000   0.97676   0.00000  Uiso   1.00
C715   C     0.16659   0.50001   0.52324   0.00000  Uiso   1.00
C716   C     0.16727   0.54296   0.95355   0.00000  Uiso   1.00
C717   C     0.16603   0.45705   0.54645   0.00000  Uiso   1.00
C718   C     0.16558   0.41452   0.97689   0.00000  Uiso   1.00
C719   C     0.16550   0.41453   0.52311   0.00000  Uiso   1.00
C720   C     0.16764   0.58549   0.52310   0.00000  Uiso   1.00
C721   C     0.16775   0.58548   0.97689   0.00000  Uiso   1.00
C722   C     0.02088   0.45704   0.75430   0.00000  Uiso   1.00
C723   C     0.31262   0.54205   0.75465   0.00000  Uiso   1.00
C724   C     0.31245   0.45705   0.74562   0.00000  Uiso   1.00
C725   C     0.02071   0.54204   0.74528   0.00000  Uiso   1.00
C726   C     0.29066   0.49966   0.75018   0.00000  Uiso   1.00
Cu727  Cu    0.16667   0.54689   0.75000   0.00000  Uiso   1.00
Cu728  Cu    0.16667   0.45311   0.75000   0.00000  Uiso   1.00
H729   H     0.16776   0.57568   0.88955   0.00000  Uiso   1.00
H730   H     0.19543   0.62336   0.81295   0.00000  Uiso   1.00
H731   H     0.19624   0.37669   0.81251   0.00000  Uiso   1.00
H732   H     0.13791   0.62338   0.68705   0.00000  Uiso   1.00
H733   H     0.16562   0.42432   0.61046   0.00000  Uiso   1.00
H734   H     0.16584   0.42429   0.88955   0.00000  Uiso   1.00
H735   H     0.16736   0.57571   0.61045   0.00000  Uiso   1.00
H736   H     0.16516   0.38132   0.95941   0.00000  Uiso   1.00
H737   H     0.16801   0.61869   0.54058   0.00000  Uiso   1.00
H738   H     0.16501   0.38134   0.54060   0.00000  Uiso   1.00
H739   H     0.16822   0.61867   0.95940   0.00000  Uiso   1.00
H740   H     0.13709   0.37671   0.68749   0.00000  Uiso   1.00
I741   I     0.04648   0.39330   0.78067   0.00000  Uiso   1.00
I742   I     0.28838   0.60511   0.78301   0.00000  Uiso   1.00
I743   I     0.28684   0.39335   0.71918   0.00000  Uiso   1.00
I744   I     0.04496   0.60508   0.71685   0.00000  Uiso   1.00
N745   N     0.16667   0.61736   0.75000   0.00000  Uiso   1.00
N746   N     0.16667   0.38264   0.75000   0.00000  Uiso   1.00
O747   O     0.10655   0.53958   0.75000   0.00000  Uiso   1.00
O748   O     0.22679   0.46042   0.75001   0.00000  Uiso   1.00
O749   O     0.22679   0.53958   0.75001   0.00000  Uiso   1.00
O750   O     0.10655   0.46042   0.75000   0.00000  Uiso   1.00
O751   O     0.16666   0.53960   0.68513   0.00000  Uiso   1.00
O752   O     0.16668   0.46040   0.81487   0.00000  Uiso   1.00
O753   O     0.16668   0.53960   0.81487   0.00000  Uiso   1.00
O754   O     0.16666   0.46040   0.68513   0.00000  Uiso   1.00
C755   C     0.42064   0.49994   0.74987   0.00000  Uiso   1.00
C756   C     0.37600   0.49965   0.74977   0.00000  Uiso   1.00
C757   C     0.48376   0.35814   0.71523   0.00000  Uiso   1.00
C758   C     0.51591   0.64190   0.78493   0.00000  Uiso   1.00
C759   C     0.51624   0.35813   0.78477   0.00000  Uiso   1.00
C760   C     0.48409   0.64191   0.71507   0.00000  Uiso   1.00
C761   C     0.49994   0.50000   0.66426   0.00000  Uiso   1.00
C762   C     0.50006   0.50000   0.83574   0.00000  Uiso   1.00
C763   C     0.50065   0.54265   0.90736   0.00000  Uiso   1.00
C764   C     0.49935   0.45735   0.59264   0.00000  Uiso   1.00
C765   C     0.50011   0.49999   0.88418   0.00000  Uiso   1.00
C766   C     0.57936   0.49994   0.75012   0.00000  Uiso   1.00
C767   C     0.49986   0.50001   0.61582   0.00000  Uiso   1.00
C768   C     0.49959   0.45732   0.90737   0.00000  Uiso   1.00
C769   C     0.50033   0.54268   0.59263   0.00000  Uiso   1.00
C770   C     0.49952   0.45703   0.95355   0.00000  Uiso   1.00
C771   C     0.50040   0.54298   0.54645   0.00000  Uiso   1.00
C772   C     0.50002   0.50000   0.97676   0.00000  Uiso   1.00
C773   C     0.49992   0.50001   0.52324   0.00000  Uiso   1.00
C774   C     0.50060   0.54296   0.95355   0.00000  Uiso   1.00
C775   C     0.49936   0.45705   0.54645   0.00000  Uiso   1.00
C776   C     0.49891   0.41452   0.97689   0.00000  Uiso   1.00
C777   C     0.49883   0.41453   0.52311   0.00000  Uiso   1.00
C778   C     0.50097   0.58549   0.52310   0.00000  Uiso   1.00
C779   C     0.50108   0.58548   0.97689   0.00000  Uiso   1.00
C780   C     0.35421   0.45704   0.75430   0.00000  Uiso   1.00
C781   C     0.64595   0.54205   0.75465   0.00000  Uiso   1.00
C782   C     0.64578   0.45705   0.74562   0.00000  Uiso   1.00
C783   C     0.35405   0.54204   0.74528   0.00000  Uiso   1.00
C784   C     0.62400   0.49966   0.75018   0.00000  Uiso   1.00
Cu785  Cu    0.50000   0.54689   0.75000   0.00000  Uiso   1.00
Cu786  Cu    0.50000   0.45311   0.75000   0.00000  Uiso   1.00
H787   H     0.50109   0.57568   0.88955   0.00000  Uiso   1.00
H788   H     0.52877   0.62336   0.81295   0.00000  Uiso   1.00
H789   H     0.52958   0.37669   0.81251   0.00000  Uiso   1.00
H790   H     0.47124   0.62338   0.68705   0.00000  Uiso   1.00
H791   H     0.49896   0.42432   0.61046   0.00000  Uiso   1.00
H792   H     0.49917   0.42429   0.88955   0.00000  Uiso   1.00
H793   H     0.50070   0.57571   0.61045   0.00000  Uiso   1.00
H794   H     0.49849   0.38132   0.95941   0.00000  Uiso   1.00
H795   H     0.50135   0.61869   0.54058   0.00000  Uiso   1.00
H796   H     0.49834   0.38134   0.54060   0.00000  Uiso   1.00
H797   H     0.50155   0.61867   0.95940   0.00000  Uiso   1.00
H798   H     0.47042   0.37671   0.68749   0.00000  Uiso   1.00
I799   I     0.37981   0.39330   0.78067   0.00000  Uiso   1.00
I800   I     0.62171   0.60511   0.78301   0.00000  Uiso   1.00
I801   I     0.62018   0.39335   0.71918   0.00000  Uiso   1.00
I802   I     0.37830   0.60508   0.71685   0.00000  Uiso   1.00
N803   N     0.50000   0.61736   0.75000   0.00000  Uiso   1.00
N804   N     0.50000   0.38264   0.75000   0.00000  Uiso   1.00
O805   O     0.43988   0.53958   0.75000   0.00000  Uiso   1.00
O806   O     0.56012   0.46042   0.75001   0.00000  Uiso   1.00
O807   O     0.56012   0.53958   0.75001   0.00000  Uiso   1.00
O808   O     0.43988   0.46042   0.75000   0.00000  Uiso   1.00
O809   O     0.49999   0.53960   0.68513   0.00000  Uiso   1.00
O810   O     0.50001   0.46040   0.81487   0.00000  Uiso   1.00
O811   O     0.50001   0.53960   0.81487   0.00000  Uiso   1.00
O812   O     0.49999   0.46040   0.68513   0.00000  Uiso   1.00
C813   C     0.75397   0.49994   0.74987   0.00000  Uiso   1.00
C814   C     0.70934   0.49965   0.74977   0.00000  Uiso   1.00
C815   C     0.81710   0.35814   0.71523   0.00000  Uiso   1.00
C816   C     0.84925   0.64190   0.78493   0.00000  Uiso   1.00
C817   C     0.84957   0.35813   0.78477   0.00000  Uiso   1.00
C818   C     0.81742   0.64191   0.71507   0.00000  Uiso   1.00
C819   C     0.83327   0.50000   0.66426   0.00000  Uiso   1.00
C820   C     0.83339   0.50000   0.83574   0.00000  Uiso   1.00
C821   C     0.83399   0.54265   0.90736   0.00000  Uiso   1.00
C822   C     0.83268   0.45735   0.59264   0.00000  Uiso   1.00
C823   C     0.83345   0.49999   0.88418   0.00000  Uiso   1.00
C824   C     0.91270   0.49994   0.75012   0.00000  Uiso   1.00
C825   C     0.83320   0.50001   0.61582   0.00000  Uiso   1.00
C826   C     0.83292   0.45732   0.90737   0.00000  Uiso   1.00
C827   C     0.83366   0.54268   0.59263   0.00000  Uiso   1.00
C828   C     0.83285   0.45703   0.95355   0.00000  Uiso   1.00
C829   C     0.83373   0.54298   0.54645   0.00000  Uiso   1.00
C830   C     0.83335   0.50000   0.97676   0.00000  Uiso   1.00
C831   C     0.83326   0.50001   0.52324   0.00000  Uiso   1.00
C832   C     0.83393   0.54296   0.95355   0.00000  Uiso   1.00
C833   C     0.83269   0.45705   0.54645   0.00000  Uiso   1.00
C834   C     0.83224   0.41452   0.97689   0.00000  Uiso   1.00
C835   C     0.83216   0.41453   0.52311   0.00000  Uiso   1.00
C836   C     0.83430   0.58549   0.52310   0.00000  Uiso   1.00
C837   C     0.83442   0.58548   0.97689   0.00000  Uiso   1.00
C838   C     0.68755   0.45704   0.75430   0.00000  Uiso   1.00
C839   C     0.97929   0.54205   0.75465   0.00000  Uiso   1.00
C840   C     0.97912   0.45705   0.74562   0.00000  Uiso   1.00
C841   C     0.68738   0.54204   0.74528   0.00000  Uiso   1.00
C842   C     0.95733   0.49966   0.75018   0.00000  Uiso   1.00
Cu843  Cu    0.83333   0.54689   0.75000   0.00000  Uiso   1.00
Cu844  Cu    0.83333   0.45311   0.75000   0.00000  Uiso   1.00
H845   H     0.83442   0.57568   0.88955   0.00000  Uiso   1.00
H846   H     0.86210   0.62336   0.81295   0.00000  Uiso   1.00
H847   H     0.86291   0.37669   0.81251   0.00000  Uiso   1.00
H848   H     0.80458   0.62338   0.68705   0.00000  Uiso   1.00
H849   H     0.83229   0.42432   0.61046   0.00000  Uiso   1.00
H850   H     0.83251   0.42429   0.88955   0.00000  Uiso   1.00
H851   H     0.83403   0.57571   0.61045   0.00000  Uiso   1.00
H852   H     0.83183   0.38132   0.95941   0.00000  Uiso   1.00
H853   H     0.83468   0.61869   0.54058   0.00000  Uiso   1.00
H854   H     0.83168   0.38134   0.54060   0.00000  Uiso   1.00
H855   H     0.83488   0.61867   0.95940   0.00000  Uiso   1.00
H856   H     0.80375   0.37671   0.68749   0.00000  Uiso   1.00
I857   I     0.71314   0.39330   0.78067   0.00000  Uiso   1.00
I858   I     0.95505   0.60511   0.78301   0.00000  Uiso   1.00
I859   I     0.95351   0.39335   0.71918   0.00000  Uiso   1.00
I860   I     0.71163   0.60508   0.71685   0.00000  Uiso   1.00
N861   N     0.83333   0.61736   0.75000   0.00000  Uiso   1.00
N862   N     0.83333   0.38264   0.75000   0.00000  Uiso   1.00
O863   O     0.77321   0.53958   0.75000   0.00000  Uiso   1.00
O864   O     0.89345   0.46042   0.75001   0.00000  Uiso   1.00
O865   O     0.89345   0.53958   0.75001   0.00000  Uiso   1.00
O866   O     0.77321   0.46042   0.75000   0.00000  Uiso   1.00
O867   O     0.83332   0.53960   0.68513   0.00000  Uiso   1.00
O868   O     0.83334   0.46040   0.81487   0.00000  Uiso   1.00
O869   O     0.83334   0.53960   0.81487   0.00000  Uiso   1.00
O870   O     0.83332   0.46040   0.68513   0.00000  Uiso   1.00
C871   C     0.08730   0.83327   0.74987   0.00000  Uiso   1.00
C872   C     0.04267   0.83299   0.74977   0.00000  Uiso   1.00
C873   C     0.15043   0.69148   0.71523   0.00000  Uiso   1.00
C874   C     0.18258   0.97523   0.78493   0.00000  Uiso   1.00
C875   C     0.18290   0.69146   0.78477   0.00000  Uiso   1.00
C876   C     0.15076   0.97524   0.71507   0.00000  Uiso   1.00
C877   C     0.16660   0.83334   0.66426   0.00000  Uiso   1.00
C878   C     0.16673   0.83333   0.83574   0.00000  Uiso   1.00
C879   C     0.16732   0.87598   0.90736   0.00000  Uiso   1.00
C880   C     0.16602   0.79068   0.59264   0.00000  Uiso   1.00
C881   C     0.16678   0.83332   0.88418   0.00000  Uiso   1.00
C882   C     0.24603   0.83327   0.75012   0.00000  Uiso   1.00
C883   C     0.16653   0.83334   0.61582   0.00000  Uiso   1.00
C884   C     0.16625   0.79066   0.90737   0.00000  Uiso   1.00
C885   C     0.16699   0.87601   0.59263   0.00000  Uiso   1.00
C886   C     0.16619   0.79036   0.95355   0.00000  Uiso   1.00
C887   C     0.16706   0.87631   0.54645   0.00000  Uiso   1.00
C888   C     0.16668   0.83333   0.97676   0.00000  Uiso   1.00
C889   C     0.16659   0.83334   0.52324   0.00000  Uiso   1.00
C890   C     0.16727   0.87629   0.95355   0.00000  Uiso   1.00
C891   C     0.16603   0.79038   0.54645   0.00000  Uiso   1.00
C892   C     0.16558   0.74786   0.97689   0.00000  Uiso   1.00
C893   C     0.16550   0.74787   0.52311   0.00000  Uiso   1.00
C894   C     0.16764   0.91882   0.52310   0.00000  Uiso   1.00
C895   C     0.16775   0.91881   0.97689   0.00000  Uiso   1.00
C896   C     0.02088   0.79037   0.75430   0.00000  Uiso   1.00
C897   C     0.31262   0.87538   0.75465   0.00000  Uiso   1.00
C898   C     0.31245   0.79038   0.74562   0.00000  Uiso   1.00
C899   C     0.02071   0.87538   0.74528   0.00000  Uiso   1.00
C900   C     0.29066   0.83299   0.75018   0.00000  Uiso   1.00
Cu901  Cu    0.16667   0.88022   0.75000   0.00000  Uiso   1.00
Cu902  Cu    0.16667   0.78645   0.75000   0.00000  Uiso   1.00
H903   H     0.16776   0.90901   0.88955   0.00000  Uiso   1.00
H904   H     0.19543   0.95669   0.81295   0.00000  Uiso   1.00
H905   H     0.19624   0.71002   0.81251   0.00000  Uiso   1.00
H906   H     0.13791   0.95672   0.68705   0.00000  Uiso   1.00
H907   H     0.16562   0.75765   0.61046   0.00000  Uiso   1.00
H908   H     0.16584   0.75763   0.88955   0.00000  Uiso   1.00
H909   H     0.16736   0.90904   0.61045   0.00000  Uiso   1.00
H910   H     0.16516   0.71465   0.95941   0.00000  Uiso   1.00
H911   H     0.16801   0.95203   0.54058   0.00000  Uiso   1.00
H912   H     0.16501   0.71467   0.54060   0.00000  Uiso   1.00
H913   H     0.16822   0.95201   0.95940   0.00000  Uiso   1.00
H914   H     0.13709   0.71004   0.68749   0.00000  Uiso   1.00
I915   I     0.04648   0.72663   0.78067   0.00000  Uiso   1.00
I916   I     0.28838   0.93845   0.78301   0.00000  Uiso   1.00
I917   I     0.28684   0.72669   0.71918   0.00000  Uiso   1.00
I918   I     0.04496   0.93841   0.71685   0.00000  Uiso   1.00
N919   N     0.16667   0.95069   0.75000   0.00000  Uiso   1.00
N920   N     0.16667   0.71598   0.75000   0.00000  Uiso   1.00
O921   O     0.10655   0.87291   0.75000   0.00000  Uiso   1.00
O922   O     0.22679   0.79375   0.75001   0.00000  Uiso   1.00
O923   O     0.22679   0.87291   0.75001   0.00000  Uiso   1.00
O924   O     0.10655   0.79375   0.75000   0.00000  Uiso   1.00
O925   O     0.16666   0.87293   0.68513   0.00000  Uiso   1.00
O926   O     0.16668   0.79373   0.81487   0.00000  Uiso   1.00
O927   O     0.16668   0.87293   0.81487   0.00000  Uiso   1.00
O928   O     0.16666   0.79373   0.68513   0.00000  Uiso   1.00
C929   C     0.42064   0.83327   0.74987   0.00000  Uiso   1.00
C930   C     0.37600   0.83299   0.74977   0.00000  Uiso   1.00
C931   C     0.48376   0.69148   0.71523   0.00000  Uiso   1.00
C932   C     0.51591   0.97523   0.78493   0.00000  Uiso   1.00
C933   C     0.51624   0.69146   0.78477   0.00000  Uiso   1.00
C934   C     0.48409   0.97524   0.71507   0.00000  Uiso   1.00
C935   C     0.49994   0.83334   0.66426   0.00000  Uiso   1.00
C936   C     0.50006   0.83333   0.83574   0.00000  Uiso   1.00
C937   C     0.50065   0.87598   0.90736   0.00000  Uiso   1.00
C938   C     0.49935   0.79068   0.59264   0.00000  Uiso   1.00
C939   C     0.50011   0.83332   0.88418   0.00000  Uiso   1.00
C940   C     0.57936   0.83327   0.75012   0.00000  Uiso   1.00
C941   C     0.49986   0.83334   0.61582   0.00000  Uiso   1.00
C942   C     0.49959   0.79066   0.90737   0.00000  Uiso   1.00
C943   C     0.50033   0.87601   0.59263   0.00000  Uiso   1.00
C944   C     0.49952   0.79036   0.95355   0.00000  Uiso   1.00
C945   C     0.50040   0.87631   0.54645   0.00000  Uiso   1.00
C946   C     0.50002   0.83333   0.97676   0.00000  Uiso   1.00
C947   C     0.49992   0.83334   0.52324   0.00000  Uiso   1.00
C948   C     0.50060   0.87629   0.95355   0.00000  Uiso   1.00
C949   C     0.49936   0.79038   0.54645   0.00000  Uiso   1.00
C950   C     0.49891   0.74786   0.97689   0.00000  Uiso   1.00
C951   C     0.49883   0.74787   0.52311   0.00000  Uiso   1.00
C952   C     0.50097   0.91882   0.52310   0.00000  Uiso   1.00
C953   C     0.50108   0.91881   0.97689   0.00000  Uiso   1.00
C954   C     0.35421   0.79037   0.75430   0.00000  Uiso   1.00
C955   C     0.64595   0.87538   0.75465   0.00000  Uiso   1.00
C956   C     0.64578   0.79038   0.74562   0.00000  Uiso   1.00
C957   C     0.35405   0.87538   0.74528   0.00000  Uiso   1.00
C958   C     0.62400   0.83299   0.75018   0.00000  Uiso   1.00
Cu959  Cu    0.50000   0.88022   0.75000   0.00000  Uiso   1.00
Cu960  Cu    0.50000   0.78645   0.75000   0.00000  Uiso   1.00
H961   H     0.50109   0.90901   0.88955   0.00000  Uiso   1.00
H962   H     0.52877   0.95669   0.81295   0.00000  Uiso   1.00
H963   H     0.52958   0.71002   0.81251   0.00000  Uiso   1.00
H964   H     0.47124   0.95672   0.68705   0.00000  Uiso   1.00
H965   H     0.49896   0.75765   0.61046   0.00000  Uiso   1.00
H966   H     0.49917   0.75763   0.88955   0.00000  Uiso   1.00
H967   H     0.50070   0.90904   0.61045   0.00000  Uiso   1.00
H968   H     0.49849   0.71465   0.95941   0.00000  Uiso   1.00
H969   H     0.50135   0.95203   0.54058   0.00000  Uiso   1.00
H970   H     0.49834   0.71467   0.54060   0.00000  Uiso   1.00
H971   H     0.50155   0.95201   0.95940   0.00000  Uiso   1.00
H972   H     0.47042   0.71004   0.68749   0.00000  Uiso   1.00
I973   I     0.37981   0.72663   0.78067   0.00000  Uiso   1.00
I974   I     0.62171   0.93845   0.78301   0.00000  Uiso   1.00
I975   I     0.62018   0.72669   0.71918   0.00000  Uiso   1.00
I976   I     0.37830   0.93841   0.71685   0.00000  Uiso   1.00
N977   N     0.50000   0.95069   0.75000   0.00000  Uiso   1.00
N978   N     0.50000   0.71598   0.75000   0.00000  Uiso   1.00
O979   O     0.43988   0.87291   0.75000   0.00000  Uiso   1.00
O980   O     0.56012   0.79375   0.75001   0.00000  Uiso   1.00
O981   O     0.56012   0.87291   0.75001   0.00000  Uiso   1.00
O982   O     0.43988   0.79375   0.75000   0.00000  Uiso   1.00
O983   O     0.49999   0.87293   0.68513   0.00000  Uiso   1.00
O984   O     0.50001   0.79373   0.81487   0.00000  Uiso   1.00
O985   O     0.50001   0.87293   0.81487   0.00000  Uiso   1.00
O986   O     0.49999   0.79373   0.68513   0.00000  Uiso   1.00
C987   C     0.75397   0.83327   0.74987   0.00000  Uiso   1.00
C988   C     0.70934   0.83299   0.74977   0.00000  Uiso   1.00
C989   C     0.81710   0.69148   0.71523   0.00000  Uiso   1.00
C990   C     0.84925   0.97523   0.78493   0.00000  Uiso   1.00
C991   C     0.84957   0.69146   0.78477   0.00000  Uiso   1.00
C992   C     0.81742   0.97524   0.71507   0.00000  Uiso   1.00
C993   C     0.83327   0.83334   0.66426   0.00000  Uiso   1.00
C994   C     0.83339   0.83333   0.83574   0.00000  Uiso   1.00
C995   C     0.83399   0.87598   0.90736   0.00000  Uiso   1.00
C996   C     0.83268   0.79068   0.59264   0.00000  Uiso   1.00
C997   C     0.83345   0.83332   0.88418   0.00000  Uiso   1.00
C998   C     0.91270   0.83327   0.75012   0.00000  Uiso   1.00
C999   C     0.83320   0.83334   0.61582   0.00000  Uiso   1.00
C1000  C     0.83292   0.79066   0.90737   0.00000  Uiso   1.00
C1001  C     0.83366   0.87601   0.59263   0.00000  Uiso   1.00
C1002  C     0.83285   0.79036   0.95355   0.00000  Uiso   1.00
C1003  C     0.83373   0.87631   0.54645   0.00000  Uiso   1.00
C1004  C     0.83335   0.83333   0.97676   0.00000  Uiso   1.00
C1005  C     0.83326   0.83334   0.52324   0.00000  Uiso   1.00
C1006  C     0.83393   0.87629   0.95355   0.00000  Uiso   1.00
C1007  C     0.83269   0.79038   0.54645   0.00000  Uiso   1.00
C1008  C     0.83224   0.74786   0.97689   0.00000  Uiso   1.00
C1009  C     0.83216   0.74787   0.52311   0.00000  Uiso   1.00
C1010  C     0.83430   0.91882   0.52310   0.00000  Uiso   1.00
C1011  C     0.83442   0.91881   0.97689   0.00000  Uiso   1.00
C1012  C     0.68755   0.79037   0.75430   0.00000  Uiso   1.00
C1013  C     0.97929   0.87538   0.75465   0.00000  Uiso   1.00
C1014  C     0.97912   0.79038   0.74562   0.00000  Uiso   1.00
C1015  C     0.68738   0.87538   0.74528   0.00000  Uiso   1.00
C1016  C     0.95733   0.83299   0.75018   0.00000  Uiso   1.00
Cu1017 Cu    0.83333   0.88022   0.75000   0.00000  Uiso   1.00
Cu1018 Cu    0.83333   0.78645   0.75000   0.00000  Uiso   1.00
H1019  H     0.83442   0.90901   0.88955   0.00000  Uiso   1.00
H1020  H     0.86210   0.95669   0.81295   0.00000  Uiso   1.00
H1021  H     0.86291   0.71002   0.81251   0.00000  Uiso   1.00
H1022  H     0.80458   0.95672   0.68705   0.00000  Uiso   1.00
H1023  H     0.83229   0.75765   0.61046   0.00000  Uiso   1.00
H1024  H     0.83251   0.75763   0.88955   0.00000  Uiso   1.00
H1025  H     0.83403   0.90904   0.61045   0.00000  Uiso   1.00
H1026  H     0.83183   0.71465   0.95941   0.00000  Uiso   1.00
H1027  H     0.83468   0.95203   0.54058   0.00000  Uiso   1.00
H1028  H     0.83168   0.71467   0.54060   0.00000  Uiso   1.00
H1029  H     0.83488   0.95201   0.95940   0.00000  Uiso   1.00
H1030  H     0.80375   0.71004   0.68749   0.00000  Uiso   1.00
I1031  I     0.71314   0.72663   0.78067   0.00000  Uiso   1.00
I1032  I     0.95505   0.93845   0.78301   0.00000  Uiso   1.00
I1033  I     0.95351   0.72669   0.71918   0.00000  Uiso   1.00
I1034  I     0.71163   0.93841   0.71685   0.00000  Uiso   1.00
N1035  N     0.83333   0.95069   0.75000   0.00000  Uiso   1.00
N1036  N     0.83333   0.71598   0.75000   0.00000  Uiso   1.00
O1037  O     0.77321   0.87291   0.75000   0.00000  Uiso   1.00
O1038  O     0.89345   0.79375   0.75001   0.00000  Uiso   1.00
O1039  O     0.89345   0.87291   0.75001   0.00000  Uiso   1.00
O1040  O     0.77321   0.79375   0.75000   0.00000  Uiso   1.00
O1041  O     0.83332   0.87293   0.68513   0.00000  Uiso   1.00
O1042  O     0.83334   0.79373   0.81487   0.00000  Uiso   1.00
O1043  O     0.83334   0.87293   0.81487   0.00000  Uiso   1.00
O1044  O     0.83332   0.79373   0.68513   0.00000  Uiso   1.00
loop_
_geom_bond_atom_site_label_1
_geom_bond_atom_site_label_2
_geom_bond_distance
_geom_bond_site_symmetry_2
_ccdc_geom_bond_type
C1     O54     1.292   .     A
C1     O51     1.295   .     A
C1     C2      1.464   .     S
C2     C26     1.417   .     A
C2     C29     1.413   .     A
C3     N50     1.366   .     A
C3     H44     1.081   .     S
C3     C354    1.414   1_545 S
C4     H34     1.081   .     S
C4     N49     1.367   .     A
C4     C179    1.414   .     S
C5     H35     1.081   .     S
C5     N50     1.366   .     A
C5     C352    1.414   1_545 S
C6     H36     1.081   .     S
C6     N49     1.367   .     A
C6     C177    1.414   .     S
C7     O55     1.293   .     A
C7     C13     1.461   .     S
C7     O58     1.293   .     A
C8     O57     1.293   .     A
C8     C11     1.461   .     S
C8     O56     1.293   .     A
C9     C11     1.404   .     A
C9     C20     1.393   .     A
C9     H33     1.085   .     S
C10    C21     1.393   .     A
C10    H37     1.085   .     S
C10    C13     1.403   .     A
C11    C14     1.404   .     A
C12    O52     1.292   .     A
C12    C30     1.464   .     S
C12    O53     1.295   .     A
C13    C15     1.404   .     A
C14    H38     1.085   .     S
C14    C16     1.393   .     A
C15    H39     1.085   .     S
C15    C17     1.393   .     A
C16    C18     1.411   .     A
C16    C22     1.402   .     A
C17    C24     1.402   .     A
C17    C19     1.411   .     A
C18    C20     1.411   .     A
C18    C541    1.402   .     S
C19    C21     1.411   .     A
C19    C540    1.402   1_554 S
C20    C25     1.402   .     A
C21    C23     1.402   .     A
C22    H40     1.084   .     S
C22    C545    1.394   .     S
C23    H42     1.084   .     S
C23    C544    1.394   1_554 S
C24    H41     1.084   .     S
C24    C547    1.394   1_554 S
C25    H43     1.084   .     S
C25    C546    1.394   .     S
C26    I45     2.153   .     S
C26    C144    1.394   1_455 S
C27    C30     1.413   .     A
C27    I46     2.146   .     S
C27    C87     1.389   .     S
C28    I47     2.153   .     S
C28    C30     1.417   .     A
C28    C84     1.394   .     S
C29    I48     2.146   .     S
C29    C143    1.389   1_455 S
Cu31   Cu32    2.674   .     S
Cu31   O57     1.968   .     S
Cu31   O53     1.983   .     S
Cu31   N49     2.010   .     S
Cu31   O55     1.968   .     S
Cu31   O51     1.983   .     S
Cu32   O58     1.968   .     S
Cu32   O54     1.983   .     S
Cu32   N50     2.010   .     S
Cu32   O56     1.968   .     S
Cu32   O52     1.983   .     S
C59    O112    1.292   .     A
C59    O109    1.295   .     A
C59    C60     1.464   .     S
C60    C84     1.417   .     A
C60    C87     1.413   .     A
C61    N108    1.366   .     A
C61    H102    1.081   .     S
C61    C412    1.414   1_545 S
C62    H92     1.081   .     S
C62    N107    1.367   .     A
C62    C237    1.414   .     S
C63    H93     1.081   .     S
C63    N108    1.366   .     A
C63    C410    1.414   1_545 S
C64    H94     1.081   .     S
C64    N107    1.367   .     A
C64    C235    1.414   .     S
C65    O113    1.293   .     A
C65    C71     1.461   .     S
C65    O116    1.293   .     A
C66    O115    1.293   .     A
C66    C69     1.461   .     S
C66    O114    1.293   .     A
C67    C69     1.404   .     A
C67    C78     1.393   .     A
C67    H91     1.085   .     S
C68    C79     1.393   .     A
C68    H95     1.085   .     S
C68    C71     1.403   .     A
C69    C72     1.404   .     A
C70    O110    1.292   .     A
C70    C88     1.464   .     S
C70    O111    1.295   .     A
C71    C73     1.404   .     A
C72    H96     1.085   .     S
C72    C74     1.393   .     A
C73    H97     1.085   .     S
C73    C75     1.393   .     A
C74    C76     1.411   .     A
C74    C80     1.402   .     A
C75    C82     1.402   .     A
C75    C77     1.411   .     A
C76    C78     1.411   .     A
C76    C599    1.402   .     S
C77    C79     1.411   .     A
C77    C598    1.402   1_554 S
C78    C83     1.402   .     A
C79    C81     1.402   .     A
C80    H98     1.084   .     S
C80    C603    1.394   .     S
C81    H100    1.084   .     S
C81    C602    1.394   1_554 S
C82    H99     1.084   .     S
C82    C605    1.394   1_554 S
C83    H101    1.084   .     S
C83    C604    1.394   .     S
C84    I103    2.153   .     S
C85    C88     1.413   .     A
C85    I104    2.146   .     S
C85    C145    1.389   .     S
C86    I105    2.153   .     S
C86    C88     1.417   .     A
C86    C142    1.394   .     S
C87    I106    2.146   .     S
Cu89   Cu90    2.674   .     S
Cu89   O115    1.968   .     S
Cu89   O111    1.983   .     S
Cu89   N107    2.010   .     S
Cu89   O113    1.968   .     S
Cu89   O109    1.983   .     S
Cu90   O116    1.968   .     S
Cu90   O112    1.983   .     S
Cu90   N108    2.010   .     S
Cu90   O114    1.968   .     S
Cu90   O110    1.983   .     S
C117   O170    1.292   .     A
C117   O167    1.295   .     A
C117   C118    1.464   .     S
C118   C142    1.417   .     A
C118   C145    1.413   .     A
C119   N166    1.366   .     A
C119   H160    1.081   .     S
C119   C470    1.414   1_545 S
C120   H150    1.081   .     S
C120   N165    1.367   .     A
C120   C295    1.414   .     S
C121   H151    1.081   .     S
C121   N166    1.366   .     A
C121   C468    1.414   1_545 S
C122   H152    1.081   .     S
C122   N165    1.367   .     A
C122   C293    1.414   .     S
C123   O171    1.293   .     A
C123   C129    1.461   .     S
C123   O174    1.293   .     A
C124   O173    1.293   .     A
C124   C127    1.461   .     S
C124   O172    1.293   .     A
C125   C127    1.404   .     A
C125   C136    1.393   .     A
C125   H149    1.085   .     S
C126   C137    1.393   .     A
C126   H153    1.085   .     S
C126   C129    1.403   .     A
C127   C130    1.404   .     A
C128   O168    1.292   .     A
C128   C146    1.464   .     S
C128   O169    1.295   .     A
C129   C131    1.404   .     A
C130   H154    1.085   .     S
C130   C132    1.393   .     A
C131   H155    1.085   .     S
C131   C133    1.393   .     A
C132   C134    1.411   .     A
C132   C138    1.402   .     A
C133   C140    1.402   .     A
C133   C135    1.411   .     A
C134   C136    1.411   .     A
C134   C657    1.402   .     S
C135   C137    1.411   .     A
C135   C656    1.402   1_554 S
C136   C141    1.402   .     A
C137   C139    1.402   .     A
C138   H156    1.084   .     S
C138   C661    1.394   .     S
C139   H158    1.084   .     S
C139   C660    1.394   1_554 S
C140   H157    1.084   .     S
C140   C663    1.394   1_554 S
C141   H159    1.084   .     S
C141   C662    1.394   .     S
C142   I161    2.153   .     S
C143   C146    1.413   .     A
C143   I162    2.146   .     S
C143   C29     1.389   1_655 S
C144   I163    2.153   .     S
C144   C146    1.417   .     A
C144   C26     1.394   1_655 S
C145   I164    2.146   .     S
Cu147  Cu148   2.674   .     S
Cu147  O173    1.968   .     S
Cu147  O169    1.983   .     S
Cu147  N165    2.010   .     S
Cu147  O171    1.968   .     S
Cu147  O167    1.983   .     S
Cu148  O174    1.968   .     S
Cu148  O170    1.983   .     S
Cu148  N166    2.010   .     S
Cu148  O172    1.968   .     S
Cu148  O168    1.983   .     S
C175   O228    1.292   .     A
C175   O225    1.295   .     A
C175   C176    1.464   .     S
C176   C200    1.417   .     A
C176   C203    1.413   .     A
C177   N224    1.366   .     A
C177   H218    1.081   .     S
C178   H208    1.081   .     S
C178   N223    1.367   .     A
C178   C353    1.414   .     S
C179   H209    1.081   .     S
C179   N224    1.366   .     A
C180   H210    1.081   .     S
C180   N223    1.367   .     A
C180   C351    1.414   .     S
C181   O229    1.293   .     A
C181   C187    1.461   .     S
C181   O232    1.293   .     A
C182   O231    1.293   .     A
C182   C185    1.461   .     S
C182   O230    1.293   .     A
C183   C185    1.404   .     A
C183   C194    1.393   .     A
C183   H207    1.085   .     S
C184   C195    1.393   .     A
C184   H211    1.085   .     S
C184   C187    1.403   .     A
C185   C188    1.404   .     A
C186   O226    1.292   .     A
C186   C204    1.464   .     S
C186   O227    1.295   .     A
C187   C189    1.404   .     A
C188   H212    1.085   .     S
C188   C190    1.393   .     A
C189   H213    1.085   .     S
C189   C191    1.393   .     A
C190   C192    1.411   .     A
C190   C196    1.402   .     A
C191   C198    1.402   .     A
C191   C193    1.411   .     A
C192   C194    1.411   .     A
C192   C715    1.402   .     S
C193   C195    1.411   .     A
C193   C714    1.402   1_554 S
C194   C199    1.402   .     A
C195   C197    1.402   .     A
C196   H214    1.084   .     S
C196   C719    1.394   .     S
C197   H216    1.084   .     S
C197   C718    1.394   1_554 S
C198   H215    1.084   .     S
C198   C721    1.394   1_554 S
C199   H217    1.084   .     S
C199   C720    1.394   .     S
C200   I219    2.153   .     S
C200   C318    1.394   1_455 S
C201   C204    1.413   .     A
C201   I220    2.146   .     S
C201   C261    1.389   .     S
C202   I221    2.153   .     S
C202   C204    1.417   .     A
C202   C258    1.394   .     S
C203   I222    2.146   .     S
C203   C317    1.389   1_455 S
Cu205  Cu206   2.674   .     S
Cu205  O231    1.968   .     S
Cu205  O227    1.983   .     S
Cu205  N223    2.010   .     S
Cu205  O229    1.968   .     S
Cu205  O225    1.983   .     S
Cu206  O232    1.968   .     S
Cu206  O228    1.983   .     S
Cu206  N224    2.010   .     S
Cu206  O230    1.968   .     S
Cu206  O226    1.983   .     S
C233   O286    1.292   .     A
C233   O283    1.295   .     A
C233   C234    1.464   .     S
C234   C258    1.417   .     A
C234   C261    1.413   .     A
C235   N282    1.366   .     A
C235   H276    1.081   .     S
C236   H266    1.081   .     S
C236   N281    1.367   .     A
C236   C411    1.414   .     S
C237   H267    1.081   .     S
C237   N282    1.366   .     A
C238   H268    1.081   .     S
C238   N281    1.367   .     A
C238   C409    1.414   .     S
C239   O287    1.293   .     A
C239   C245    1.461   .     S
C239   O290    1.293   .     A
C240   O289    1.293   .     A
C240   C243    1.461   .     S
C240   O288    1.293   .     A
C241   C243    1.404   .     A
C241   C252    1.393   .     A
C241   H265    1.085   .     S
C242   C253    1.393   .     A
C242   H269    1.085   .     S
C242   C245    1.403   .     A
C243   C246    1.404   .     A
C244   O284    1.292   .     A
C244   C262    1.464   .     S
C244   O285    1.295   .     A
C245   C247    1.404   .     A
C246   H270    1.085   .     S
C246   C248    1.393   .     A
C247   H271    1.085   .     S
C247   C249    1.393   .     A
C248   C250    1.411   .     A
C248   C254    1.402   .     A
C249   C256    1.402   .     A
C249   C251    1.411   .     A
C250   C252    1.411   .     A
C250   C773    1.402   .     S
C251   C253    1.411   .     A
C251   C772    1.402   1_554 S
C252   C257    1.402   .     A
C253   C255    1.402   .     A
C254   H272    1.084   .     S
C254   C777    1.394   .     S
C255   H274    1.084   .     S
C255   C776    1.394   1_554 S
C256   H273    1.084   .     S
C256   C779    1.394   1_554 S
C257   H275    1.084   .     S
C257   C778    1.394   .     S
C258   I277    2.153   .     S
C259   C262    1.413   .     A
C259   I278    2.146   .     S
C259   C319    1.389   .     S
C260   I279    2.153   .     S
C260   C262    1.417   .     A
C260   C316    1.394   .     S
C261   I280    2.146   .     S
Cu263  Cu264   2.674   .     S
Cu263  O289    1.968   .     S
Cu263  O285    1.983   .     S
Cu263  N281    2.010   .     S
Cu263  O287    1.968   .     S
Cu263  O283    1.983   .     S
Cu264  O290    1.968   .     S
Cu264  O286    1.983   .     S
Cu264  N282    2.010   .     S
Cu264  O288    1.968   .     S
Cu264  O284    1.983   .     S
C291   O344    1.292   .     A
C291   O341    1.295   .     A
C291   C292    1.464   .     S
C292   C316    1.417   .     A
C292   C319    1.413   .     A
C293   N340    1.366   .     A
C293   H334    1.081   .     S
C294   H324    1.081   .     S
C294   N339    1.367   .     A
C294   C469    1.414   .     S
C295   H325    1.081   .     S
C295   N340    1.366   .     A
C296   H326    1.081   .     S
C296   N339    1.367   .     A
C296   C467    1.414   .     S
C297   O345    1.293   .     A
C297   C303    1.461   .     S
C297   O348    1.293   .     A
C298   O347    1.293   .     A
C298   C301    1.461   .     S
C298   O346    1.293   .     A
C299   C301    1.404   .     A
C299   C310    1.393   .     A
C299   H323    1.085   .     S
C300   C311    1.393   .     A
C300   H327    1.085   .     S
C300   C303    1.403   .     A
C301   C304    1.404   .     A
C302   O342    1.292   .     A
C302   C320    1.464   .     S
C302   O343    1.295   .     A
C303   C305    1.404   .     A
C304   H328    1.085   .     S
C304   C306    1.393   .     A
C305   H329    1.085   .     S
C305   C307    1.393   .     A
C306   C308    1.411   .     A
C306   C312    1.402   .     A
C307   C314    1.402   .     A
C307   C309    1.411   .     A
C308   C310    1.411   .     A
C308   C831    1.402   .     S
C309   C311    1.411   .     A
C309   C830    1.402   1_554 S
C310   C315    1.402   .     A
C311   C313    1.402   .     A
C312   H330    1.084   .     S
C312   C835    1.394   .     S
C313   H332    1.084   .     S
C313   C834    1.394   1_554 S
C314   H331    1.084   .     S
C314   C837    1.394   1_554 S
C315   H333    1.084   .     S
C315   C836    1.394   .     S
C316   I335    2.153   .     S
C317   C320    1.413   .     A
C317   I336    2.146   .     S
C317   C203    1.389   1_655 S
C318   I337    2.153   .     S
C318   C320    1.417   .     A
C318   C200    1.394   1_655 S
C319   I338    2.146   .     S
Cu321  Cu322   2.674   .     S
Cu321  O347    1.968   .     S
Cu321  O343    1.983   .     S
Cu321  N339    2.010   .     S
Cu321  O345    1.968   .     S
Cu321  O341    1.983   .     S
Cu322  O348    1.968   .     S
Cu322  O344    1.983   .     S
Cu322  N340    2.010   .     S
Cu322  O346    1.968   .     S
Cu322  O342    1.983   .     S
C349   O402    1.292   .     A
C349   O399    1.295   .     A
C349   C350    1.464   .     S
C350   C374    1.417   .     A
C350   C377    1.413   .     A
C351   N398    1.366   .     A
C351   H392    1.081   .     S
C352   H382    1.081   .     S
C352   N397    1.367   .     A
C352   C5      1.414   1_565 S
C353   H383    1.081   .     S
C353   N398    1.366   .     A
C354   H384    1.081   .     S
C354   N397    1.367   .     A
C354   C3      1.414   1_565 S
C355   O403    1.293   .     A
C355   C361    1.461   .     S
C355   O406    1.293   .     A
C356   O405    1.293   .     A
C356   C359    1.461   .     S
C356   O404    1.293   .     A
C357   C359    1.404   .     A
C357   C368    1.393   .     A
C357   H381    1.085   .     S
C358   C369    1.393   .     A
C358   H385    1.085   .     S
C358   C361    1.403   .     A
C359   C362    1.404   .     A
C360   O400    1.292   .     A
C360   C378    1.464   .     S
C360   O401    1.295   .     A
C361   C363    1.404   .     A
C362   H386    1.085   .     S
C362   C364    1.393   .     A
C363   H387    1.085   .     S
C363   C365    1.393   .     A
C364   C366    1.411   .     A
C364   C370    1.402   .     A
C365   C372    1.402   .     A
C365   C367    1.411   .     A
C366   C368    1.411   .     A
C366   C889    1.402   .     S
C367   C369    1.411   .     A
C367   C888    1.402   1_554 S
C368   C373    1.402   .     A
C369   C371    1.402   .     A
C370   H388    1.084   .     S
C370   C893    1.394   .     S
C371   H390    1.084   .     S
C371   C892    1.394   1_554 S
C372   H389    1.084   .     S
C372   C895    1.394   1_554 S
C373   H391    1.084   .     S
C373   C894    1.394   .     S
C374   I393    2.153   .     S
C374   C492    1.394   1_455 S
C375   C378    1.413   .     A
C375   I394    2.146   .     S
C375   C435    1.389   .     S
C376   I395    2.153   .     S
C376   C378    1.417   .     A
C376   C432    1.394   .     S
C377   I396    2.146   .     S
C377   C491    1.389   1_455 S
Cu379  Cu380   2.674   .     S
Cu379  O405    1.968   .     S
Cu379  O401    1.983   .     S
Cu379  N397    2.010   .     S
Cu379  O403    1.968   .     S
Cu379  O399    1.983   .     S
Cu380  O406    1.968   .     S
Cu380  O402    1.983   .     S
Cu380  N398    2.010   .     S
Cu380  O404    1.968   .     S
Cu380  O400    1.983   .     S
C407   O460    1.292   .     A
C407   O457    1.295   .     A
C407   C408    1.464   .     S
C408   C432    1.417   .     A
C408   C435    1.413   .     A
C409   N456    1.366   .     A
C409   H450    1.081   .     S
C410   H440    1.081   .     S
C410   N455    1.367   .     A
C410   C63     1.414   1_565 S
C411   H441    1.081   .     S
C411   N456    1.366   .     A
C412   H442    1.081   .     S
C412   N455    1.367   .     A
C412   C61     1.414   1_565 S
C413   O461    1.293   .     A
C413   C419    1.461   .     S
C413   O464    1.293   .     A
C414   O463    1.293   .     A
C414   C417    1.461   .     S
C414   O462    1.293   .     A
C415   C417    1.404   .     A
C415   C426    1.393   .     A
C415   H439    1.085   .     S
C416   C427    1.393   .     A
C416   H443    1.085   .     S
C416   C419    1.403   .     A
C417   C420    1.404   .     A
C418   O458    1.292   .     A
C418   C436    1.464   .     S
C418   O459    1.295   .     A
C419   C421    1.404   .     A
C420   H444    1.085   .     S
C420   C422    1.393   .     A
C421   H445    1.085   .     S
C421   C423    1.393   .     A
C422   C424    1.411   .     A
C422   C428    1.402   .     A
C423   C430    1.402   .     A
C423   C425    1.411   .     A
C424   C426    1.411   .     A
C424   C947    1.402   .     S
C425   C427    1.411   .     A
C425   C946    1.402   1_554 S
C426   C431    1.402   .     A
C427   C429    1.402   .     A
C428   H446    1.084   .     S
C428   C951    1.394   .     S
C429   H448    1.084   .     S
C429   C950    1.394   1_554 S
C430   H447    1.084   .     S
C430   C953    1.394   1_554 S
C431   H449    1.084   .     S
C431   C952    1.394   .     S
C432   I451    2.153   .     S
C433   C436    1.413   .     A
C433   I452    2.146   .     S
C433   C493    1.389   .     S
C434   I453    2.153   .     S
C434   C436    1.417   .     A
C434   C490    1.394   .     S
C435   I454    2.146   .     S
Cu437  Cu438   2.674   .     S
Cu437  O463    1.968   .     S
Cu437  O459    1.983   .     S
Cu437  N455    2.010   .     S
Cu437  O461    1.968   .     S
Cu437  O457    1.983   .     S
Cu438  O464    1.968   .     S
Cu438  O460    1.983   .     S
Cu438  N456    2.010   .     S
Cu438  O462    1.968   .     S
Cu438  O458    1.983   .     S
C465   O518    1.292   .     A
C465   O515    1.295   .     A
C465   C466    1.464   .     S
C466   C490    1.417   .     A
C466   C493    1.413   .     A
C467   N514    1.366   .     A
C467   H508    1.081   .     S
C468   H498    1.081   .     S
C468   N513    1.367   .     A
C468   C121    1.414   1_565 S
C469   H499    1.081   .     S
C469   N514    1.366   .     A
C470   H500    1.081   .     S
C470   N513    1.367   .     A
C470   C119    1.414   1_565 S
C471   O519    1.293   .     A
C471   C477    1.461   .     S
C471   O522    1.293   .     A
C472   O521    1.293   .     A
C472   C475    1.461   .     S
C472   O520    1.293   .     A
C473   C475    1.404   .     A
C473   C484    1.393   .     A
C473   H497    1.085   .     S
C474   C485    1.393   .     A
C474   H501    1.085   .     S
C474   C477    1.403   .     A
C475   C478    1.404   .     A
C476   O516    1.292   .     A
C476   C494    1.464   .     S
C476   O517    1.295   .     A
C477   C479    1.404   .     A
C478   H502    1.085   .     S
C478   C480    1.393   .     A
C479   H503    1.085   .     S
C479   C481    1.393   .     A
C480   C482    1.411   .     A
C480   C486    1.402   .     A
C481   C488    1.402   .     A
C481   C483    1.411   .     A
C482   C484    1.411   .     A
C482   C1005   1.402   .     S
C483   C485    1.411   .     A
C483   C1004   1.402   1_554 S
C484   C489    1.402   .     A
C485   C487    1.402   .     A
C486   H504    1.084   .     S
C486   C1009   1.394   .     S
C487   H506    1.084   .     S
C487   C1008   1.394   1_554 S
C488   H505    1.084   .     S
C488   C1011   1.394   1_554 S
C489   H507    1.084   .     S
C489   C1010   1.394   .     S
C490   I509    2.153   .     S
C491   C494    1.413   .     A
C491   I510    2.146   .     S
C491   C377    1.389   1_655 S
C492   I511    2.153   .     S
C492   C494    1.417   .     A
C492   C374    1.394   1_655 S
C493   I512    2.146   .     S
Cu495  Cu496   2.674   .     S
Cu495  O521    1.968   .     S
Cu495  O517    1.983   .     S
Cu495  N513    2.010   .     S
Cu495  O519    1.968   .     S
Cu495  O515    1.983   .     S
Cu496  O522    1.968   .     S
Cu496  O518    1.983   .     S
Cu496  N514    2.010   .     S
Cu496  O520    1.968   .     S
Cu496  O516    1.983   .     S
C523   O576    1.292   .     A
C523   O573    1.295   .     A
C523   C524    1.464   .     S
C524   C548    1.417   .     A
C524   C551    1.413   .     A
C525   N572    1.366   .     A
C525   H566    1.081   .     S
C525   C876    1.414   1_545 S
C526   H556    1.081   .     S
C526   N571    1.367   .     A
C526   C701    1.414   .     S
C527   H557    1.081   .     S
C527   N572    1.366   .     A
C527   C874    1.414   1_545 S
C528   H558    1.081   .     S
C528   N571    1.367   .     A
C528   C699    1.414   .     S
C529   O577    1.293   .     A
C529   C535    1.461   .     S
C529   O580    1.293   .     A
C530   O579    1.293   .     A
C530   C533    1.461   .     S
C530   O578    1.293   .     A
C531   C533    1.404   .     A
C531   C542    1.393   .     A
C531   H555    1.085   .     S
C532   C543    1.393   .     A
C532   H559    1.085   .     S
C532   C535    1.403   .     A
C533   C536    1.404   .     A
C534   O574    1.292   .     A
C534   C552    1.464   .     S
C534   O575    1.295   .     A
C535   C537    1.404   .     A
C536   H560    1.085   .     S
C536   C538    1.393   .     A
C537   H561    1.085   .     S
C537   C539    1.393   .     A
C538   C540    1.411   .     A
C538   C544    1.402   .     A
C539   C546    1.402   .     A
C539   C541    1.411   .     A
C540   C542    1.411   .     A
C540   C19     1.402   1_556 S
C541   C543    1.411   .     A
C542   C547    1.402   .     A
C543   C545    1.402   .     A
C544   H562    1.084   .     S
C544   C23     1.394   1_556 S
C545   H564    1.084   .     S
C546   H563    1.084   .     S
C547   H565    1.084   .     S
C547   C24     1.394   1_556 S
C548   I567    2.153   .     S
C548   C666    1.394   1_455 S
C549   C552    1.413   .     A
C549   I568    2.146   .     S
C549   C609    1.389   .     S
C550   I569    2.153   .     S
C550   C552    1.417   .     A
C550   C606    1.394   .     S
C551   I570    2.146   .     S
C551   C665    1.389   1_455 S
Cu553  Cu554   2.674   .     S
Cu553  O579    1.968   .     S
Cu553  O575    1.983   .     S
Cu553  N571    2.010   .     S
Cu553  O577    1.968   .     S
Cu553  O573    1.983   .     S
Cu554  O580    1.968   .     S
Cu554  O576    1.983   .     S
Cu554  N572    2.010   .     S
Cu554  O578    1.968   .     S
Cu554  O574    1.983   .     S
C581   O634    1.292   .     A
C581   O631    1.295   .     A
C581   C582    1.464   .     S
C582   C606    1.417   .     A
C582   C609    1.413   .     A
C583   N630    1.366   .     A
C583   H624    1.081   .     S
C583   C934    1.414   1_545 S
C584   H614    1.081   .     S
C584   N629    1.367   .     A
C584   C759    1.414   .     S
C585   H615    1.081   .     S
C585   N630    1.366   .     A
C585   C932    1.414   1_545 S
C586   H616    1.081   .     S
C586   N629    1.367   .     A
C586   C757    1.414   .     S
C587   O635    1.293   .     A
C587   C593    1.461   .     S
C587   O638    1.293   .     A
C588   O637    1.293   .     A
C588   C591    1.461   .     S
C588   O636    1.293   .     A
C589   C591    1.404   .     A
C589   C600    1.393   .     A
C589   H613    1.085   .     S
C590   C601    1.393   .     A
C590   H617    1.085   .     S
C590   C593    1.403   .     A
C591   C594    1.404   .     A
C592   O632    1.292   .     A
C592   C610    1.464   .     S
C592   O633    1.295   .     A
C593   C595    1.404   .     A
C594   H618    1.085   .     S
C594   C596    1.393   .     A
C595   H619    1.085   .     S
C595   C597    1.393   .     A
C596   C598    1.411   .     A
C596   C602    1.402   .     A
C597   C604    1.402   .     A
C597   C599    1.411   .     A
C598   C600    1.411   .     A
C598   C77     1.402   1_556 S
C599   C601    1.411   .     A
C600   C605    1.402   .     A
C601   C603    1.402   .     A
C602   H620    1.084   .     S
C602   C81     1.394   1_556 S
C603   H622    1.084   .     S
C604   H621    1.084   .     S
C605   H623    1.084   .     S
C605   C82     1.394   1_556 S
C606   I625    2.153   .     S
C607   C610    1.413   .     A
C607   I626    2.146   .     S
C607   C667    1.389   .     S
C608   I627    2.153   .     S
C608   C610    1.417   .     A
C608   C664    1.394   .     S
C609   I628    2.146   .     S
Cu611  Cu612   2.674   .     S
Cu611  O637    1.968   .     S
Cu611  O633    1.983   .     S
Cu611  N629    2.010   .     S
Cu611  O635    1.968   .     S
Cu611  O631    1.983   .     S
Cu612  O638    1.968   .     S
Cu612  O634    1.983   .     S
Cu612  N630    2.010   .     S
Cu612  O636    1.968   .     S
Cu612  O632    1.983   .     S
C639   O692    1.292   .     A
C639   O689    1.295   .     A
C639   C640    1.464   .     S
C640   C664    1.417   .     A
C640   C667    1.413   .     A
C641   N688    1.366   .     A
C641   H682    1.081   .     S
C641   C992    1.414   1_545 S
C642   H672    1.081   .     S
C642   N687    1.367   .     A
C642   C817    1.414   .     S
C643   H673    1.081   .     S
C643   N688    1.366   .     A
C643   C990    1.414   1_545 S
C644   H674    1.081   .     S
C644   N687    1.367   .     A
C644   C815    1.414   .     S
C645   O693    1.293   .     A
C645   C651    1.461   .     S
C645   O696    1.293   .     A
C646   O695    1.293   .     A
C646   C649    1.461   .     S
C646   O694    1.293   .     A
C647   C649    1.404   .     A
C647   C658    1.393   .     A
C647   H671    1.085   .     S
C648   C659    1.393   .     A
C648   H675    1.085   .     S
C648   C651    1.403   .     A
C649   C652    1.404   .     A
C650   O690    1.292   .     A
C650   C668    1.464   .     S
C650   O691    1.295   .     A
C651   C653    1.404   .     A
C652   H676    1.085   .     S
C652   C654    1.393   .     A
C653   H677    1.085   .     S
C653   C655    1.393   .     A
C654   C656    1.411   .     A
C654   C660    1.402   .     A
C655   C662    1.402   .     A
C655   C657    1.411   .     A
C656   C658    1.411   .     A
C656   C135    1.402   1_556 S
C657   C659    1.411   .     A
C658   C663    1.402   .     A
C659   C661    1.402   .     A
C660   H678    1.084   .     S
C660   C139    1.394   1_556 S
C661   H680    1.084   .     S
C662   H679    1.084   .     S
C663   H681    1.084   .     S
C663   C140    1.394   1_556 S
C664   I683    2.153   .     S
C665   C668    1.413   .     A
C665   I684    2.146   .     S
C665   C551    1.389   1_655 S
C666   I685    2.153   .     S
C666   C668    1.417   .     A
C666   C548    1.394   1_655 S
C667   I686    2.146   .     S
Cu669  Cu670   2.674   .     S
Cu669  O695    1.968   .     S
Cu669  O691    1.983   .     S
Cu669  N687    2.010   .     S
Cu669  O693    1.968   .     S
Cu669  O689    1.983   .     S
Cu670  O696    1.968   .     S
Cu670  O692    1.983   .     S
Cu670  N688    2.010   .     S
Cu670  O694    1.968   .     S
Cu670  O690    1.983   .     S
C697   O750    1.292   .     A
C697   O747    1.295   .     A
C697   C698    1.464   .     S
C698   C722    1.417   .     A
C698   C725    1.413   .     A
C699   N746    1.366   .     A
C699   H740    1.081   .     S
C700   H730    1.081   .     S
C700   N745    1.367   .     A
C700   C875    1.414   .     S
C701   H731    1.081   .     S
C701   N746    1.366   .     A
C702   H732    1.081   .     S
C702   N745    1.367   .     A
C702   C873    1.414   .     S
C703   O751    1.293   .     A
C703   C709    1.461   .     S
C703   O754    1.293   .     A
C704   O753    1.293   .     A
C704   C707    1.461   .     S
C704   O752    1.293   .     A
C705   C707    1.404   .     A
C705   C716    1.393   .     A
C705   H729    1.085   .     S
C706   C717    1.393   .     A
C706   H733    1.085   .     S
C706   C709    1.403   .     A
C707   C710    1.404   .     A
C708   O748    1.292   .     A
C708   C726    1.464   .     S
C708   O749    1.295   .     A
C709   C711    1.404   .     A
C710   H734    1.085   .     S
C710   C712    1.393   .     A
C711   H735    1.085   .     S
C711   C713    1.393   .     A
C712   C714    1.411   .     A
C712   C718    1.402   .     A
C713   C720    1.402   .     A
C713   C715    1.411   .     A
C714   C716    1.411   .     A
C714   C193    1.402   1_556 S
C715   C717    1.411   .     A
C716   C721    1.402   .     A
C717   C719    1.402   .     A
C718   H736    1.084   .     S
C718   C197    1.394   1_556 S
C719   H738    1.084   .     S
C720   H737    1.084   .     S
C721   H739    1.084   .     S
C721   C198    1.394   1_556 S
C722   I741    2.153   .     S
C722   C840    1.394   1_455 S
C723   C726    1.413   .     A
C723   I742    2.146   .     S
C723   C783    1.389   .     S
C724   I743    2.153   .     S
C724   C726    1.417   .     A
C724   C780    1.394   .     S
C725   I744    2.146   .     S
C725   C839    1.389   1_455 S
Cu727  Cu728   2.674   .     S
Cu727  O753    1.968   .     S
Cu727  O749    1.983   .     S
Cu727  N745    2.010   .     S
Cu727  O751    1.968   .     S
Cu727  O747    1.983   .     S
Cu728  O754    1.968   .     S
Cu728  O750    1.983   .     S
Cu728  N746    2.010   .     S
Cu728  O752    1.968   .     S
Cu728  O748    1.983   .     S
C755   O808    1.292   .     A
C755   O805    1.295   .     A
C755   C756    1.464   .     S
C756   C780    1.417   .     A
C756   C783    1.413   .     A
C757   N804    1.366   .     A
C757   H798    1.081   .     S
C758   H788    1.081   .     S
C758   N803    1.367   .     A
C758   C933    1.414   .     S
C759   H789    1.081   .     S
C759   N804    1.366   .     A
C760   H790    1.081   .     S
C760   N803    1.367   .     A
C760   C931    1.414   .     S
C761   O809    1.293   .     A
C761   C767    1.461   .     S
C761   O812    1.293   .     A
C762   O811    1.293   .     A
C762   C765    1.461   .     S
C762   O810    1.293   .     A
C763   C765    1.404   .     A
C763   C774    1.393   .     A
C763   H787    1.085   .     S
C764   C775    1.393   .     A
C764   H791    1.085   .     S
C764   C767    1.403   .     A
C765   C768    1.404   .     A
C766   O806    1.292   .     A
C766   C784    1.464   .     S
C766   O807    1.295   .     A
C767   C769    1.404   .     A
C768   H792    1.085   .     S
C768   C770    1.393   .     A
C769   H793    1.085   .     S
C769   C771    1.393   .     A
C770   C772    1.411   .     A
C770   C776    1.402   .     A
C771   C778    1.402   .     A
C771   C773    1.411   .     A
C772   C774    1.411   .     A
C772   C251    1.402   1_556 S
C773   C775    1.411   .     A
C774   C779    1.402   .     A
C775   C777    1.402   .     A
C776   H794    1.084   .     S
C776   C255    1.394   1_556 S
C777   H796    1.084   .     S
C778   H795    1.084   .     S
C779   H797    1.084   .     S
C779   C256    1.394   1_556 S
C780   I799    2.153   .     S
C781   C784    1.413   .     A
C781   I800    2.146   .     S
C781   C841    1.389   .     S
C782   I801    2.153   .     S
C782   C784    1.417   .     A
C782   C838    1.394   .     S
C783   I802    2.146   .     S
Cu785  Cu786   2.674   .     S
Cu785  O811    1.968   .     S
Cu785  O807    1.983   .     S
Cu785  N803    2.010   .     S
Cu785  O809    1.968   .     S
Cu785  O805    1.983   .     S
Cu786  O812    1.968   .     S
Cu786  O808    1.983   .     S
Cu786  N804    2.010   .     S
Cu786  O810    1.968   .     S
Cu786  O806    1.983   .     S
C813   O866    1.292   .     A
C813   O863    1.295   .     A
C813   C814    1.464   .     S
C814   C838    1.417   .     A
C814   C841    1.413   .     A
C815   N862    1.366   .     A
C815   H856    1.081   .     S
C816   H846    1.081   .     S
C816   N861    1.367   .     A
C816   C991    1.414   .     S
C817   H847    1.081   .     S
C817   N862    1.366   .     A
C818   H848    1.081   .     S
C818   N861    1.367   .     A
C818   C989    1.414   .     S
C819   O867    1.293   .     A
C819   C825    1.461   .     S
C819   O870    1.293   .     A
C820   O869    1.293   .     A
C820   C823    1.461   .     S
C820   O868    1.293   .     A
C821   C823    1.404   .     A
C821   C832    1.393   .     A
C821   H845    1.085   .     S
C822   C833    1.393   .     A
C822   H849    1.085   .     S
C822   C825    1.403   .     A
C823   C826    1.404   .     A
C824   O864    1.292   .     A
C824   C842    1.464   .     S
C824   O865    1.295   .     A
C825   C827    1.404   .     A
C826   H850    1.085   .     S
C826   C828    1.393   .     A
C827   H851    1.085   .     S
C827   C829    1.393   .     A
C828   C830    1.411   .     A
C828   C834    1.402   .     A
C829   C836    1.402   .     A
C829   C831    1.411   .     A
C830   C832    1.411   .     A
C830   C309    1.402   1_556 S
C831   C833    1.411   .     A
C832   C837    1.402   .     A
C833   C835    1.402   .     A
C834   H852    1.084   .     S
C834   C313    1.394   1_556 S
C835   H854    1.084   .     S
C836   H853    1.084   .     S
C837   H855    1.084   .     S
C837   C314    1.394   1_556 S
C838   I857    2.153   .     S
C839   C842    1.413   .     A
C839   I858    2.146   .     S
C839   C725    1.389   1_655 S
C840   I859    2.153   .     S
C840   C842    1.417   .     A
C840   C722    1.394   1_655 S
C841   I860    2.146   .     S
Cu843  Cu844   2.674   .     S
Cu843  O869    1.968   .     S
Cu843  O865    1.983   .     S
Cu843  N861    2.010   .     S
Cu843  O867    1.968   .     S
Cu843  O863    1.983   .     S
Cu844  O870    1.968   .     S
Cu844  O866    1.983   .     S
Cu844  N862    2.010   .     S
Cu844  O868    1.968   .     S
Cu844  O864    1.983   .     S
C871   O924    1.292   .     A
C871   O921    1.295   .     A
C871   C872    1.464   .     S
C872   C896    1.417   .     A
C872   C899    1.413   .     A
C873   N920    1.366   .     A
C873   H914    1.081   .     S
C874   H904    1.081   .     S
C874   N919    1.367   .     A
C874   C527    1.414   1_565 S
C875   H905    1.081   .     S
C875   N920    1.366   .     A
C876   H906    1.081   .     S
C876   N919    1.367   .     A
C876   C525    1.414   1_565 S
C877   O925    1.293   .     A
C877   C883    1.461   .     S
C877   O928    1.293   .     A
C878   O927    1.293   .     A
C878   C881    1.461   .     S
C878   O926    1.293   .     A
C879   C881    1.404   .     A
C879   C890    1.393   .     A
C879   H903    1.085   .     S
C880   C891    1.393   .     A
C880   H907    1.085   .     S
C880   C883    1.403   .     A
C881   C884    1.404   .     A
C882   O922    1.292   .     A
C882   C900    1.464   .     S
C882   O923    1.295   .     A
C883   C885    1.404   .     A
C884   H908    1.085   .     S
C884   C886    1.393   .     A
C885   H909    1.085   .     S
C885   C887    1.393   .     A
C886   C888    1.411   .     A
C886   C892    1.402   .     A
C887   C894    1.402   .     A
C887   C889    1.411   .     A
C888   C890    1.411   .     A
C888   C367    1.402   1_556 S
C889   C891    1.411   .     A
C890   C895    1.402   .     A
C891   C893    1.402   .     A
C892   H910    1.084   .     S
C892   C371    1.394   1_556 S
C893   H912    1.084   .     S
C894   H911    1.084   .     S
C895   H913    1.084   .     S
C895   C372    1.394   1_556 S
C896   I915    2.153   .     S
C896   C1014   1.394   1_455 S
C897   C900    1.413   .     A
C897   I916    2.146   .     S
C897   C957    1.389   .     S
C898   I917    2.153   .     S
C898   C900    1.417   .     A
C898   C954    1.394   .     S
C899   I918    2.146   .     S
C899   C1013   1.389   1_455 S
Cu901  Cu902   2.674   .     S
Cu901  O927    1.968   .     S
Cu901  O923    1.983   .     S
Cu901  N919    2.010   .     S
Cu901  O925    1.968   .     S
Cu901  O921    1.983   .     S
Cu902  O928    1.968   .     S
Cu902  O924    1.983   .     S
Cu902  N920    2.010   .     S
Cu902  O926    1.968   .     S
Cu902  O922    1.983   .     S
C929   O982    1.292   .     A
C929   O979    1.295   .     A
C929   C930    1.464   .     S
C930   C954    1.417   .     A
C930   C957    1.413   .     A
C931   N978    1.366   .     A
C931   H972    1.081   .     S
C932   H962    1.081   .     S
C932   N977    1.367   .     A
C932   C585    1.414   1_565 S
C933   H963    1.081   .     S
C933   N978    1.366   .     A
C934   H964    1.081   .     S
C934   N977    1.367   .     A
C934   C583    1.414   1_565 S
C935   O983    1.293   .     A
C935   C941    1.461   .     S
C935   O986    1.293   .     A
C936   O985    1.293   .     A
C936   C939    1.461   .     S
C936   O984    1.293   .     A
C937   C939    1.404   .     A
C937   C948    1.393   .     A
C937   H961    1.085   .     S
C938   C949    1.393   .     A
C938   H965    1.085   .     S
C938   C941    1.403   .     A
C939   C942    1.404   .     A
C940   O980    1.292   .     A
C940   C958    1.464   .     S
C940   O981    1.295   .     A
C941   C943    1.404   .     A
C942   H966    1.085   .     S
C942   C944    1.393   .     A
C943   H967    1.085   .     S
C943   C945    1.393   .     A
C944   C946    1.411   .     A
C944   C950    1.402   .     A
C945   C952    1.402   .     A
C945   C947    1.411   .     A
C946   C948    1.411   .     A
C946   C425    1.402   1_556 S
C947   C949    1.411   .     A
C948   C953    1.402   .     A
C949   C951    1.402   .     A
C950   H968    1.084   .     S
C950   C429    1.394   1_556 S
C951   H970    1.084   .     S
C952   H969    1.084   .     S
C953   H971    1.084   .     S
C953   C430    1.394   1_556 S
C954   I973    2.153   .     S
C955   C958    1.413   .     A
C955   I974    2.146   .     S
C955   C1015   1.389   .     S
C956   I975    2.153   .     S
C956   C958    1.417   .     A
C956   C1012   1.394   .     S
C957   I976    2.146   .     S
Cu959  Cu960   2.674   .     S
Cu959  O985    1.968   .     S
Cu959  O981    1.983   .     S
Cu959  N977    2.010   .     S
Cu959  O983    1.968   .     S
Cu959  O979    1.983   .     S
Cu960  O986    1.968   .     S
Cu960  O982    1.983   .     S
Cu960  N978    2.010   .     S
Cu960  O984    1.968   .     S
Cu960  O980    1.983   .     S
C987   O1040   1.292   .     A
C987   O1037   1.295   .     A
C987   C988    1.464   .     S
C988   C1012   1.417   .     A
C988   C1015   1.413   .     A
C989   N1036   1.366   .     A
C989   H1030   1.081   .     S
C990   H1020   1.081   .     S
C990   N1035   1.367   .     A
C990   C643    1.414   1_565 S
C991   H1021   1.081   .     S
C991   N1036   1.366   .     A
C992   H1022   1.081   .     S
C992   N1035   1.367   .     A
C992   C641    1.414   1_565 S
C993   O1041   1.293   .     A
C993   C999    1.461   .     S
C993   O1044   1.293   .     A
C994   O1043   1.293   .     A
C994   C997    1.461   .     S
C994   O1042   1.293   .     A
C995   C997    1.404   .     A
C995   C1006   1.393   .     A
C995   H1019   1.085   .     S
C996   C1007   1.393   .     A
C996   H1023   1.085   .     S
C996   C999    1.403   .     A
C997   C1000   1.404   .     A
C998   O1038   1.292   .     A
C998   C1016   1.464   .     S
C998   O1039   1.295   .     A
C999   C1001   1.404   .     A
C1000  H1024   1.085   .     S
C1000  C1002   1.393   .     A
C1001  H1025   1.085   .     S
C1001  C1003   1.393   .     A
C1002  C1004   1.411   .     A
C1002  C1008   1.402   .     A
C1003  C1010   1.402   .     A
C1003  C1005   1.411   .     A
C1004  C1006   1.411   .     A
C1004  C483    1.402   1_556 S
C1005  C1007   1.411   .     A
C1006  C1011   1.402   .     A
C1007  C1009   1.402   .     A
C1008  H1026   1.084   .     S
C1008  C487    1.394   1_556 S
C1009  H1028   1.084   .     S
C1010  H1027   1.084   .     S
C1011  H1029   1.084   .     S
C1011  C488    1.394   1_556 S
C1012  I1031   2.153   .     S
C1013  C1016   1.413   .     A
C1013  I1032   2.146   .     S
C1013  C899    1.389   1_655 S
C1014  I1033   2.153   .     S
C1014  C1016   1.417   .     A
C1014  C896    1.394   1_655 S
C1015  I1034   2.146   .     S
Cu1017 Cu1018  2.674   .     S
Cu1017 O1043   1.968   .     S
Cu1017 O1039   1.983   .     S
Cu1017 N1035   2.010   .     S
Cu1017 O1041   1.968   .     S
Cu1017 O1037   1.983   .     S
Cu1018 O1044   1.968   .     S
Cu1018 O1040   1.983   .     S
Cu1018 N1036   2.010   .     S
Cu1018 O1042   1.968   .     S
Cu1018 O1038   1.983   .     S
