data_str_m2_o10_o17_pcu_sym.86
_audit_creation_date              2020-01-03
_audit_creation_method            'Materials Studio'
_symmetry_space_group_name_H-M    'P1'
_symmetry_Int_Tables_number       1
_symmetry_cell_setting            triclinic
loop_
_symmetry_equiv_pos_as_xyz
  x,y,z
_cell_length_a                    29.9454
_cell_length_b                    26.3007
_cell_length_c                    22.6132
_cell_angle_alpha                 103.0551
_cell_angle_beta                  94.9931
_cell_angle_gamma                 94.4293
loop_
_atom_site_label
_atom_site_type_symbol
_atom_site_fract_x
_atom_site_fract_y
_atom_site_fract_z
_atom_site_U_iso_or_equiv
_atom_site_adp_type
_atom_site_occupancy
C1     C     0.24833   0.06681   0.15135   0.00000  Uiso   1.00
C2     C     0.08744   0.11554   0.14200   0.00000  Uiso   1.00
C3     C     0.38388   0.16815   0.16738   0.00000  Uiso   1.00
C4     C     0.11588   0.16178   0.16915   0.00000  Uiso   1.00
C5     C     0.40129   0.12044   0.14858   0.00000  Uiso   1.00
C6     C     0.09896   0.20526   0.20391   0.00000  Uiso   1.00
C7     C     0.44751   0.11823   0.15208   0.00000  Uiso   1.00
C8     C     0.05297   0.20586   0.20705   0.00000  Uiso   1.00
C9     C     0.47678   0.16381   0.17837   0.00000  Uiso   1.00
C10    C     0.02362   0.16096   0.17892   0.00000  Uiso   1.00
C11    C     0.45928   0.21217   0.20319   0.00000  Uiso   1.00
C12    C     0.25155   0.26651   0.18201   0.00000  Uiso   1.00
C13    C     0.04107   0.11345   0.15122   0.00000  Uiso   1.00
C14    C     0.46465   0.07022   0.13256   0.00000  Uiso   1.00
C15    C     0.03620   0.25084   0.23885   0.00000  Uiso   1.00
C16    C     0.01088   0.06687   0.13401   0.00000  Uiso   1.00
C17    C     0.49001   0.25467   0.23776   0.00000  Uiso   1.00
C18    C     0.24249   0.01108   0.14387   0.00000  Uiso   1.00
C19    C     0.25729   0.32226   0.18962   0.00000  Uiso   1.00
C20    C     0.16441   0.16465   0.16688   0.00000  Uiso   1.00
C21    C     0.33545   0.16757   0.16661   0.00000  Uiso   1.00
C22    C     0.41220   0.21474   0.19222   0.00000  Uiso   1.00
Cl23   Cl    0.21010   0.30973   0.07479   0.00000  Uiso   1.00
Cl24   Cl    0.28960   0.02352   0.25890   0.00000  Uiso   1.00
Cu25   Cu    0.25500   0.17246   0.22813   0.00000  Uiso   1.00
Cu26   Cu    0.24499   0.16087   0.10521   0.00000  Uiso   1.00
H27    H     0.37856   0.08500   0.13067   0.00000  Uiso   1.00
H28    H     0.12170   0.23978   0.22617   0.00000  Uiso   1.00
H29    H     0.44183   0.03460   0.11783   0.00000  Uiso   1.00
H30    H     0.05939   0.28387   0.26410   0.00000  Uiso   1.00
I31    I     0.38196   0.28610   0.19329   0.00000  Uiso   1.00
I32    I     0.11476   0.05613   0.07837   0.00000  Uiso   1.00
I33    I     0.02797   0.32210   0.12699   0.00000  Uiso   1.00
I34    I     0.47462   0.32367   0.29927   0.00000  Uiso   1.00
I35    I     0.18697   0.09550   0.29815   0.00000  Uiso   1.00
I36    I     0.31368   0.23771   0.03314   0.00000  Uiso   1.00
N37    N     0.23744   0.15214   0.01284   0.00000  Uiso   1.00
N38    N     0.26255   0.18119   0.32049   0.00000  Uiso   1.00
O39    O     0.25325   0.09538   0.20659   0.00000  Uiso   1.00
O40    O     0.24674   0.23796   0.12674   0.00000  Uiso   1.00
O41    O     0.24480   0.08559   0.10279   0.00000  Uiso   1.00
O42    O     0.25520   0.24774   0.23055   0.00000  Uiso   1.00
O43    O     0.18935   0.17155   0.21857   0.00000  Uiso   1.00
O44    O     0.31064   0.16179   0.11476   0.00000  Uiso   1.00
O45    O     0.18090   0.16176   0.11477   0.00000  Uiso   1.00
O46    O     0.31910   0.17157   0.21857   0.00000  Uiso   1.00
C47    C     0.74833   0.06681   0.15135   0.00000  Uiso   1.00
C48    C     0.58744   0.11554   0.14200   0.00000  Uiso   1.00
C49    C     0.88388   0.16815   0.16738   0.00000  Uiso   1.00
C50    C     0.61588   0.16178   0.16915   0.00000  Uiso   1.00
C51    C     0.90129   0.12044   0.14858   0.00000  Uiso   1.00
C52    C     0.59896   0.20526   0.20391   0.00000  Uiso   1.00
C53    C     0.94751   0.11823   0.15208   0.00000  Uiso   1.00
C54    C     0.55297   0.20586   0.20705   0.00000  Uiso   1.00
C55    C     0.97678   0.16381   0.17837   0.00000  Uiso   1.00
C56    C     0.52362   0.16096   0.17892   0.00000  Uiso   1.00
C57    C     0.95928   0.21217   0.20319   0.00000  Uiso   1.00
C58    C     0.75155   0.26651   0.18201   0.00000  Uiso   1.00
C59    C     0.54107   0.11345   0.15122   0.00000  Uiso   1.00
C60    C     0.96465   0.07022   0.13256   0.00000  Uiso   1.00
C61    C     0.53620   0.25084   0.23885   0.00000  Uiso   1.00
C62    C     0.51088   0.06687   0.13401   0.00000  Uiso   1.00
C63    C     0.99001   0.25467   0.23776   0.00000  Uiso   1.00
C64    C     0.74249   0.01108   0.14387   0.00000  Uiso   1.00
C65    C     0.75729   0.32226   0.18962   0.00000  Uiso   1.00
C66    C     0.66441   0.16465   0.16688   0.00000  Uiso   1.00
C67    C     0.83545   0.16757   0.16661   0.00000  Uiso   1.00
C68    C     0.91220   0.21474   0.19222   0.00000  Uiso   1.00
Cl69   Cl    0.71010   0.30973   0.07479   0.00000  Uiso   1.00
Cl70   Cl    0.78960   0.02352   0.25890   0.00000  Uiso   1.00
Cu71   Cu    0.75500   0.17246   0.22813   0.00000  Uiso   1.00
Cu72   Cu    0.74499   0.16087   0.10521   0.00000  Uiso   1.00
H73    H     0.87856   0.08500   0.13067   0.00000  Uiso   1.00
H74    H     0.62170   0.23978   0.22617   0.00000  Uiso   1.00
H75    H     0.94183   0.03460   0.11783   0.00000  Uiso   1.00
H76    H     0.55939   0.28387   0.26410   0.00000  Uiso   1.00
I77    I     0.88196   0.28610   0.19329   0.00000  Uiso   1.00
I78    I     0.61476   0.05613   0.07837   0.00000  Uiso   1.00
I79    I     0.52797   0.32210   0.12699   0.00000  Uiso   1.00
I80    I     0.97462   0.32367   0.29927   0.00000  Uiso   1.00
I81    I     0.68697   0.09550   0.29815   0.00000  Uiso   1.00
I82    I     0.81368   0.23771   0.03314   0.00000  Uiso   1.00
N83    N     0.73744   0.15214   0.01284   0.00000  Uiso   1.00
N84    N     0.76255   0.18119   0.32049   0.00000  Uiso   1.00
O85    O     0.75325   0.09538   0.20659   0.00000  Uiso   1.00
O86    O     0.74674   0.23796   0.12674   0.00000  Uiso   1.00
O87    O     0.74480   0.08559   0.10279   0.00000  Uiso   1.00
O88    O     0.75520   0.24774   0.23055   0.00000  Uiso   1.00
O89    O     0.68935   0.17155   0.21857   0.00000  Uiso   1.00
O90    O     0.81064   0.16179   0.11476   0.00000  Uiso   1.00
O91    O     0.68090   0.16176   0.11477   0.00000  Uiso   1.00
O92    O     0.81910   0.17157   0.21857   0.00000  Uiso   1.00
C93    C     0.24833   0.40014   0.15135   0.00000  Uiso   1.00
C94    C     0.08744   0.44887   0.14200   0.00000  Uiso   1.00
C95    C     0.38388   0.50149   0.16738   0.00000  Uiso   1.00
C96    C     0.11588   0.49512   0.16915   0.00000  Uiso   1.00
C97    C     0.40129   0.45378   0.14858   0.00000  Uiso   1.00
C98    C     0.09896   0.53859   0.20391   0.00000  Uiso   1.00
C99    C     0.44751   0.45157   0.15208   0.00000  Uiso   1.00
C100   C     0.05297   0.53919   0.20705   0.00000  Uiso   1.00
C101   C     0.47678   0.49715   0.17837   0.00000  Uiso   1.00
C102   C     0.02362   0.49429   0.17892   0.00000  Uiso   1.00
C103   C     0.45928   0.54550   0.20319   0.00000  Uiso   1.00
C104   C     0.25155   0.59985   0.18201   0.00000  Uiso   1.00
C105   C     0.04107   0.44678   0.15122   0.00000  Uiso   1.00
C106   C     0.46465   0.40355   0.13256   0.00000  Uiso   1.00
C107   C     0.03620   0.58418   0.23885   0.00000  Uiso   1.00
C108   C     0.01088   0.40021   0.13401   0.00000  Uiso   1.00
C109   C     0.49001   0.58801   0.23776   0.00000  Uiso   1.00
C110   C     0.24249   0.34441   0.14387   0.00000  Uiso   1.00
C111   C     0.25729   0.65559   0.18962   0.00000  Uiso   1.00
C112   C     0.16441   0.49798   0.16688   0.00000  Uiso   1.00
C113   C     0.33545   0.50091   0.16661   0.00000  Uiso   1.00
C114   C     0.41220   0.54808   0.19222   0.00000  Uiso   1.00
Cl115  Cl    0.21010   0.64306   0.07479   0.00000  Uiso   1.00
Cl116  Cl    0.28960   0.35685   0.25890   0.00000  Uiso   1.00
Cu117  Cu    0.25500   0.50579   0.22813   0.00000  Uiso   1.00
Cu118  Cu    0.24499   0.49421   0.10521   0.00000  Uiso   1.00
H119   H     0.37856   0.41834   0.13067   0.00000  Uiso   1.00
H120   H     0.12170   0.57311   0.22617   0.00000  Uiso   1.00
H121   H     0.44183   0.36793   0.11783   0.00000  Uiso   1.00
H122   H     0.05939   0.61720   0.26410   0.00000  Uiso   1.00
I123   I     0.38196   0.61944   0.19329   0.00000  Uiso   1.00
I124   I     0.11476   0.38946   0.07837   0.00000  Uiso   1.00
I125   I     0.02797   0.65543   0.12699   0.00000  Uiso   1.00
I126   I     0.47462   0.65701   0.29927   0.00000  Uiso   1.00
I127   I     0.18697   0.42883   0.29815   0.00000  Uiso   1.00
I128   I     0.31368   0.57104   0.03314   0.00000  Uiso   1.00
N129   N     0.23744   0.48547   0.01284   0.00000  Uiso   1.00
N130   N     0.26255   0.51453   0.32049   0.00000  Uiso   1.00
O131   O     0.25325   0.42871   0.20659   0.00000  Uiso   1.00
O132   O     0.24674   0.57129   0.12674   0.00000  Uiso   1.00
O133   O     0.24480   0.41892   0.10279   0.00000  Uiso   1.00
O134   O     0.25520   0.58108   0.23055   0.00000  Uiso   1.00
O135   O     0.18935   0.50488   0.21857   0.00000  Uiso   1.00
O136   O     0.31064   0.49512   0.11476   0.00000  Uiso   1.00
O137   O     0.18090   0.49510   0.11477   0.00000  Uiso   1.00
O138   O     0.31910   0.50490   0.21857   0.00000  Uiso   1.00
C139   C     0.74833   0.40014   0.15135   0.00000  Uiso   1.00
C140   C     0.58744   0.44887   0.14200   0.00000  Uiso   1.00
C141   C     0.88388   0.50149   0.16738   0.00000  Uiso   1.00
C142   C     0.61588   0.49512   0.16915   0.00000  Uiso   1.00
C143   C     0.90129   0.45378   0.14858   0.00000  Uiso   1.00
C144   C     0.59896   0.53859   0.20391   0.00000  Uiso   1.00
C145   C     0.94751   0.45157   0.15208   0.00000  Uiso   1.00
C146   C     0.55297   0.53919   0.20705   0.00000  Uiso   1.00
C147   C     0.97678   0.49715   0.17837   0.00000  Uiso   1.00
C148   C     0.52362   0.49429   0.17892   0.00000  Uiso   1.00
C149   C     0.95928   0.54550   0.20319   0.00000  Uiso   1.00
C150   C     0.75155   0.59985   0.18201   0.00000  Uiso   1.00
C151   C     0.54107   0.44678   0.15122   0.00000  Uiso   1.00
C152   C     0.96465   0.40355   0.13256   0.00000  Uiso   1.00
C153   C     0.53620   0.58418   0.23885   0.00000  Uiso   1.00
C154   C     0.51088   0.40021   0.13401   0.00000  Uiso   1.00
C155   C     0.99001   0.58801   0.23776   0.00000  Uiso   1.00
C156   C     0.74249   0.34441   0.14387   0.00000  Uiso   1.00
C157   C     0.75729   0.65559   0.18962   0.00000  Uiso   1.00
C158   C     0.66441   0.49798   0.16688   0.00000  Uiso   1.00
C159   C     0.83545   0.50091   0.16661   0.00000  Uiso   1.00
C160   C     0.91220   0.54808   0.19222   0.00000  Uiso   1.00
Cl161  Cl    0.71010   0.64306   0.07479   0.00000  Uiso   1.00
Cl162  Cl    0.78960   0.35685   0.25890   0.00000  Uiso   1.00
Cu163  Cu    0.75500   0.50579   0.22813   0.00000  Uiso   1.00
Cu164  Cu    0.74499   0.49421   0.10521   0.00000  Uiso   1.00
H165   H     0.87856   0.41834   0.13067   0.00000  Uiso   1.00
H166   H     0.62170   0.57311   0.22617   0.00000  Uiso   1.00
H167   H     0.94183   0.36793   0.11783   0.00000  Uiso   1.00
H168   H     0.55939   0.61720   0.26410   0.00000  Uiso   1.00
I169   I     0.88196   0.61944   0.19329   0.00000  Uiso   1.00
I170   I     0.61476   0.38946   0.07837   0.00000  Uiso   1.00
I171   I     0.52797   0.65543   0.12699   0.00000  Uiso   1.00
I172   I     0.97462   0.65701   0.29927   0.00000  Uiso   1.00
I173   I     0.68697   0.42883   0.29815   0.00000  Uiso   1.00
I174   I     0.81368   0.57104   0.03314   0.00000  Uiso   1.00
N175   N     0.73744   0.48547   0.01284   0.00000  Uiso   1.00
N176   N     0.76255   0.51453   0.32049   0.00000  Uiso   1.00
O177   O     0.75325   0.42871   0.20659   0.00000  Uiso   1.00
O178   O     0.74674   0.57129   0.12674   0.00000  Uiso   1.00
O179   O     0.74480   0.41892   0.10279   0.00000  Uiso   1.00
O180   O     0.75520   0.58108   0.23055   0.00000  Uiso   1.00
O181   O     0.68935   0.50488   0.21857   0.00000  Uiso   1.00
O182   O     0.81064   0.49512   0.11476   0.00000  Uiso   1.00
O183   O     0.68090   0.49510   0.11477   0.00000  Uiso   1.00
O184   O     0.81910   0.50490   0.21857   0.00000  Uiso   1.00
C185   C     0.24833   0.73348   0.15135   0.00000  Uiso   1.00
C186   C     0.08744   0.78221   0.14200   0.00000  Uiso   1.00
C187   C     0.38388   0.83482   0.16738   0.00000  Uiso   1.00
C188   C     0.11588   0.82845   0.16915   0.00000  Uiso   1.00
C189   C     0.40129   0.78711   0.14858   0.00000  Uiso   1.00
C190   C     0.09896   0.87192   0.20391   0.00000  Uiso   1.00
C191   C     0.44751   0.78490   0.15208   0.00000  Uiso   1.00
C192   C     0.05297   0.87253   0.20705   0.00000  Uiso   1.00
C193   C     0.47678   0.83048   0.17837   0.00000  Uiso   1.00
C194   C     0.02362   0.82763   0.17892   0.00000  Uiso   1.00
C195   C     0.45928   0.87884   0.20319   0.00000  Uiso   1.00
C196   C     0.25155   0.93318   0.18201   0.00000  Uiso   1.00
C197   C     0.04107   0.78011   0.15122   0.00000  Uiso   1.00
C198   C     0.46465   0.73688   0.13256   0.00000  Uiso   1.00
C199   C     0.03620   0.91751   0.23885   0.00000  Uiso   1.00
C200   C     0.01088   0.73354   0.13401   0.00000  Uiso   1.00
C201   C     0.49001   0.92134   0.23776   0.00000  Uiso   1.00
C202   C     0.24249   0.67774   0.14387   0.00000  Uiso   1.00
C203   C     0.25729   0.98893   0.18962   0.00000  Uiso   1.00
C204   C     0.16441   0.83131   0.16688   0.00000  Uiso   1.00
C205   C     0.33545   0.83424   0.16661   0.00000  Uiso   1.00
C206   C     0.41220   0.88141   0.19222   0.00000  Uiso   1.00
Cl207  Cl    0.21010   0.97639   0.07479   0.00000  Uiso   1.00
Cl208  Cl    0.28960   0.69019   0.25890   0.00000  Uiso   1.00
Cu209  Cu    0.25500   0.83913   0.22813   0.00000  Uiso   1.00
Cu210  Cu    0.24499   0.82754   0.10521   0.00000  Uiso   1.00
H211   H     0.37856   0.75167   0.13067   0.00000  Uiso   1.00
H212   H     0.12170   0.90644   0.22617   0.00000  Uiso   1.00
H213   H     0.44183   0.70127   0.11783   0.00000  Uiso   1.00
H214   H     0.05939   0.95054   0.26410   0.00000  Uiso   1.00
I215   I     0.38196   0.95277   0.19329   0.00000  Uiso   1.00
I216   I     0.11476   0.72280   0.07837   0.00000  Uiso   1.00
I217   I     0.02797   0.98876   0.12699   0.00000  Uiso   1.00
I218   I     0.47462   0.99034   0.29927   0.00000  Uiso   1.00
I219   I     0.18697   0.76216   0.29815   0.00000  Uiso   1.00
I220   I     0.31368   0.90438   0.03314   0.00000  Uiso   1.00
N221   N     0.23744   0.81881   0.01284   0.00000  Uiso   1.00
N222   N     0.26255   0.84786   0.32049   0.00000  Uiso   1.00
O223   O     0.25325   0.76204   0.20659   0.00000  Uiso   1.00
O224   O     0.24674   0.90462   0.12674   0.00000  Uiso   1.00
O225   O     0.24480   0.75226   0.10279   0.00000  Uiso   1.00
O226   O     0.25520   0.91441   0.23055   0.00000  Uiso   1.00
O227   O     0.18935   0.83821   0.21857   0.00000  Uiso   1.00
O228   O     0.31064   0.82845   0.11476   0.00000  Uiso   1.00
O229   O     0.18090   0.82843   0.11477   0.00000  Uiso   1.00
O230   O     0.31910   0.83824   0.21857   0.00000  Uiso   1.00
C231   C     0.74833   0.73348   0.15135   0.00000  Uiso   1.00
C232   C     0.58744   0.78221   0.14200   0.00000  Uiso   1.00
C233   C     0.88388   0.83482   0.16738   0.00000  Uiso   1.00
C234   C     0.61588   0.82845   0.16915   0.00000  Uiso   1.00
C235   C     0.90129   0.78711   0.14858   0.00000  Uiso   1.00
C236   C     0.59896   0.87192   0.20391   0.00000  Uiso   1.00
C237   C     0.94751   0.78490   0.15208   0.00000  Uiso   1.00
C238   C     0.55297   0.87253   0.20705   0.00000  Uiso   1.00
C239   C     0.97678   0.83048   0.17837   0.00000  Uiso   1.00
C240   C     0.52362   0.82763   0.17892   0.00000  Uiso   1.00
C241   C     0.95928   0.87884   0.20319   0.00000  Uiso   1.00
C242   C     0.75155   0.93318   0.18201   0.00000  Uiso   1.00
C243   C     0.54107   0.78011   0.15122   0.00000  Uiso   1.00
C244   C     0.96465   0.73688   0.13256   0.00000  Uiso   1.00
C245   C     0.53620   0.91751   0.23885   0.00000  Uiso   1.00
C246   C     0.51088   0.73354   0.13401   0.00000  Uiso   1.00
C247   C     0.99001   0.92134   0.23776   0.00000  Uiso   1.00
C248   C     0.74249   0.67774   0.14387   0.00000  Uiso   1.00
C249   C     0.75729   0.98893   0.18962   0.00000  Uiso   1.00
C250   C     0.66441   0.83131   0.16688   0.00000  Uiso   1.00
C251   C     0.83545   0.83424   0.16661   0.00000  Uiso   1.00
C252   C     0.91220   0.88141   0.19222   0.00000  Uiso   1.00
Cl253  Cl    0.71010   0.97639   0.07479   0.00000  Uiso   1.00
Cl254  Cl    0.78960   0.69019   0.25890   0.00000  Uiso   1.00
Cu255  Cu    0.75500   0.83913   0.22813   0.00000  Uiso   1.00
Cu256  Cu    0.74499   0.82754   0.10521   0.00000  Uiso   1.00
H257   H     0.87856   0.75167   0.13067   0.00000  Uiso   1.00
H258   H     0.62170   0.90644   0.22617   0.00000  Uiso   1.00
H259   H     0.94183   0.70127   0.11783   0.00000  Uiso   1.00
H260   H     0.55939   0.95054   0.26410   0.00000  Uiso   1.00
I261   I     0.88196   0.95277   0.19329   0.00000  Uiso   1.00
I262   I     0.61476   0.72280   0.07837   0.00000  Uiso   1.00
I263   I     0.52797   0.98876   0.12699   0.00000  Uiso   1.00
I264   I     0.97462   0.99034   0.29927   0.00000  Uiso   1.00
I265   I     0.68697   0.76216   0.29815   0.00000  Uiso   1.00
I266   I     0.81368   0.90438   0.03314   0.00000  Uiso   1.00
N267   N     0.73744   0.81881   0.01284   0.00000  Uiso   1.00
N268   N     0.76255   0.84786   0.32049   0.00000  Uiso   1.00
O269   O     0.75325   0.76204   0.20659   0.00000  Uiso   1.00
O270   O     0.74674   0.90462   0.12674   0.00000  Uiso   1.00
O271   O     0.74480   0.75226   0.10279   0.00000  Uiso   1.00
O272   O     0.75520   0.91441   0.23055   0.00000  Uiso   1.00
O273   O     0.68935   0.83821   0.21857   0.00000  Uiso   1.00
O274   O     0.81064   0.82845   0.11476   0.00000  Uiso   1.00
O275   O     0.68090   0.82843   0.11477   0.00000  Uiso   1.00
O276   O     0.81910   0.83824   0.21857   0.00000  Uiso   1.00
C277   C     0.24833   0.06681   0.48469   0.00000  Uiso   1.00
C278   C     0.08744   0.11554   0.47533   0.00000  Uiso   1.00
C279   C     0.38388   0.16815   0.50072   0.00000  Uiso   1.00
C280   C     0.11588   0.16178   0.50249   0.00000  Uiso   1.00
C281   C     0.40129   0.12044   0.48191   0.00000  Uiso   1.00
C282   C     0.09896   0.20526   0.53725   0.00000  Uiso   1.00
C283   C     0.44751   0.11823   0.48541   0.00000  Uiso   1.00
C284   C     0.05297   0.20586   0.54039   0.00000  Uiso   1.00
C285   C     0.47678   0.16381   0.51170   0.00000  Uiso   1.00
C286   C     0.02362   0.16096   0.51225   0.00000  Uiso   1.00
C287   C     0.45928   0.21217   0.53652   0.00000  Uiso   1.00
C288   C     0.25155   0.26651   0.51534   0.00000  Uiso   1.00
C289   C     0.04107   0.11345   0.48455   0.00000  Uiso   1.00
C290   C     0.46465   0.07022   0.46589   0.00000  Uiso   1.00
C291   C     0.03620   0.25084   0.57218   0.00000  Uiso   1.00
C292   C     0.01088   0.06687   0.46734   0.00000  Uiso   1.00
C293   C     0.49001   0.25467   0.57109   0.00000  Uiso   1.00
C294   C     0.24249   0.01108   0.47720   0.00000  Uiso   1.00
C295   C     0.25729   0.32226   0.52296   0.00000  Uiso   1.00
C296   C     0.16441   0.16465   0.50022   0.00000  Uiso   1.00
C297   C     0.33545   0.16757   0.49995   0.00000  Uiso   1.00
C298   C     0.41220   0.21474   0.52555   0.00000  Uiso   1.00
Cl299  Cl    0.21010   0.30973   0.40812   0.00000  Uiso   1.00
Cl300  Cl    0.28960   0.02352   0.59223   0.00000  Uiso   1.00
Cu301  Cu    0.25500   0.17246   0.56146   0.00000  Uiso   1.00
Cu302  Cu    0.24499   0.16087   0.43854   0.00000  Uiso   1.00
H303   H     0.37856   0.08500   0.46400   0.00000  Uiso   1.00
H304   H     0.12170   0.23978   0.55950   0.00000  Uiso   1.00
H305   H     0.44183   0.03460   0.45117   0.00000  Uiso   1.00
H306   H     0.05939   0.28387   0.59743   0.00000  Uiso   1.00
I307   I     0.38196   0.28610   0.52663   0.00000  Uiso   1.00
I308   I     0.11476   0.05613   0.41171   0.00000  Uiso   1.00
I309   I     0.02797   0.32210   0.46032   0.00000  Uiso   1.00
I310   I     0.47462   0.32367   0.63260   0.00000  Uiso   1.00
I311   I     0.18697   0.09550   0.63149   0.00000  Uiso   1.00
I312   I     0.31368   0.23771   0.36648   0.00000  Uiso   1.00
N313   N     0.23744   0.15214   0.34617   0.00000  Uiso   1.00
N314   N     0.26255   0.18119   0.65383   0.00000  Uiso   1.00
O315   O     0.25325   0.09538   0.53992   0.00000  Uiso   1.00
O316   O     0.24674   0.23796   0.46008   0.00000  Uiso   1.00
O317   O     0.24480   0.08559   0.43612   0.00000  Uiso   1.00
O318   O     0.25520   0.24774   0.56388   0.00000  Uiso   1.00
O319   O     0.18935   0.17155   0.55191   0.00000  Uiso   1.00
O320   O     0.31064   0.16179   0.44809   0.00000  Uiso   1.00
O321   O     0.18090   0.16176   0.44810   0.00000  Uiso   1.00
O322   O     0.31910   0.17157   0.55190   0.00000  Uiso   1.00
C323   C     0.74833   0.06681   0.48469   0.00000  Uiso   1.00
C324   C     0.58744   0.11554   0.47533   0.00000  Uiso   1.00
C325   C     0.88388   0.16815   0.50072   0.00000  Uiso   1.00
C326   C     0.61588   0.16178   0.50249   0.00000  Uiso   1.00
C327   C     0.90129   0.12044   0.48191   0.00000  Uiso   1.00
C328   C     0.59896   0.20526   0.53725   0.00000  Uiso   1.00
C329   C     0.94751   0.11823   0.48541   0.00000  Uiso   1.00
C330   C     0.55297   0.20586   0.54039   0.00000  Uiso   1.00
C331   C     0.97678   0.16381   0.51170   0.00000  Uiso   1.00
C332   C     0.52362   0.16096   0.51225   0.00000  Uiso   1.00
C333   C     0.95928   0.21217   0.53652   0.00000  Uiso   1.00
C334   C     0.75155   0.26651   0.51534   0.00000  Uiso   1.00
C335   C     0.54107   0.11345   0.48455   0.00000  Uiso   1.00
C336   C     0.96465   0.07022   0.46589   0.00000  Uiso   1.00
C337   C     0.53620   0.25084   0.57218   0.00000  Uiso   1.00
C338   C     0.51088   0.06687   0.46734   0.00000  Uiso   1.00
C339   C     0.99001   0.25467   0.57109   0.00000  Uiso   1.00
C340   C     0.74249   0.01108   0.47720   0.00000  Uiso   1.00
C341   C     0.75729   0.32226   0.52296   0.00000  Uiso   1.00
C342   C     0.66441   0.16465   0.50022   0.00000  Uiso   1.00
C343   C     0.83545   0.16757   0.49995   0.00000  Uiso   1.00
C344   C     0.91220   0.21474   0.52555   0.00000  Uiso   1.00
Cl345  Cl    0.71010   0.30973   0.40812   0.00000  Uiso   1.00
Cl346  Cl    0.78960   0.02352   0.59223   0.00000  Uiso   1.00
Cu347  Cu    0.75500   0.17246   0.56146   0.00000  Uiso   1.00
Cu348  Cu    0.74499   0.16087   0.43854   0.00000  Uiso   1.00
H349   H     0.87856   0.08500   0.46400   0.00000  Uiso   1.00
H350   H     0.62170   0.23978   0.55950   0.00000  Uiso   1.00
H351   H     0.94183   0.03460   0.45117   0.00000  Uiso   1.00
H352   H     0.55939   0.28387   0.59743   0.00000  Uiso   1.00
I353   I     0.88196   0.28610   0.52663   0.00000  Uiso   1.00
I354   I     0.61476   0.05613   0.41171   0.00000  Uiso   1.00
I355   I     0.52797   0.32210   0.46032   0.00000  Uiso   1.00
I356   I     0.97462   0.32367   0.63260   0.00000  Uiso   1.00
I357   I     0.68697   0.09550   0.63149   0.00000  Uiso   1.00
I358   I     0.81368   0.23771   0.36648   0.00000  Uiso   1.00
N359   N     0.73744   0.15214   0.34617   0.00000  Uiso   1.00
N360   N     0.76255   0.18119   0.65383   0.00000  Uiso   1.00
O361   O     0.75325   0.09538   0.53992   0.00000  Uiso   1.00
O362   O     0.74674   0.23796   0.46008   0.00000  Uiso   1.00
O363   O     0.74480   0.08559   0.43612   0.00000  Uiso   1.00
O364   O     0.75520   0.24774   0.56388   0.00000  Uiso   1.00
O365   O     0.68935   0.17155   0.55191   0.00000  Uiso   1.00
O366   O     0.81064   0.16179   0.44809   0.00000  Uiso   1.00
O367   O     0.68090   0.16176   0.44810   0.00000  Uiso   1.00
O368   O     0.81910   0.17157   0.55190   0.00000  Uiso   1.00
C369   C     0.24833   0.40014   0.48469   0.00000  Uiso   1.00
C370   C     0.08744   0.44887   0.47533   0.00000  Uiso   1.00
C371   C     0.38388   0.50149   0.50072   0.00000  Uiso   1.00
C372   C     0.11588   0.49512   0.50249   0.00000  Uiso   1.00
C373   C     0.40129   0.45378   0.48191   0.00000  Uiso   1.00
C374   C     0.09896   0.53859   0.53725   0.00000  Uiso   1.00
C375   C     0.44751   0.45157   0.48541   0.00000  Uiso   1.00
C376   C     0.05297   0.53919   0.54039   0.00000  Uiso   1.00
C377   C     0.47678   0.49715   0.51170   0.00000  Uiso   1.00
C378   C     0.02362   0.49429   0.51225   0.00000  Uiso   1.00
C379   C     0.45928   0.54550   0.53652   0.00000  Uiso   1.00
C380   C     0.25155   0.59985   0.51534   0.00000  Uiso   1.00
C381   C     0.04107   0.44678   0.48455   0.00000  Uiso   1.00
C382   C     0.46465   0.40355   0.46589   0.00000  Uiso   1.00
C383   C     0.03620   0.58418   0.57218   0.00000  Uiso   1.00
C384   C     0.01088   0.40021   0.46734   0.00000  Uiso   1.00
C385   C     0.49001   0.58801   0.57109   0.00000  Uiso   1.00
C386   C     0.24249   0.34441   0.47720   0.00000  Uiso   1.00
C387   C     0.25729   0.65559   0.52296   0.00000  Uiso   1.00
C388   C     0.16441   0.49798   0.50022   0.00000  Uiso   1.00
C389   C     0.33545   0.50091   0.49995   0.00000  Uiso   1.00
C390   C     0.41220   0.54808   0.52555   0.00000  Uiso   1.00
Cl391  Cl    0.21010   0.64306   0.40812   0.00000  Uiso   1.00
Cl392  Cl    0.28960   0.35685   0.59223   0.00000  Uiso   1.00
Cu393  Cu    0.25500   0.50579   0.56146   0.00000  Uiso   1.00
Cu394  Cu    0.24499   0.49421   0.43854   0.00000  Uiso   1.00
H395   H     0.37856   0.41834   0.46400   0.00000  Uiso   1.00
H396   H     0.12170   0.57311   0.55950   0.00000  Uiso   1.00
H397   H     0.44183   0.36793   0.45117   0.00000  Uiso   1.00
H398   H     0.05939   0.61720   0.59743   0.00000  Uiso   1.00
I399   I     0.38196   0.61944   0.52663   0.00000  Uiso   1.00
I400   I     0.11476   0.38946   0.41171   0.00000  Uiso   1.00
I401   I     0.02797   0.65543   0.46032   0.00000  Uiso   1.00
I402   I     0.47462   0.65701   0.63260   0.00000  Uiso   1.00
I403   I     0.18697   0.42883   0.63149   0.00000  Uiso   1.00
I404   I     0.31368   0.57104   0.36648   0.00000  Uiso   1.00
N405   N     0.23744   0.48547   0.34617   0.00000  Uiso   1.00
N406   N     0.26255   0.51453   0.65383   0.00000  Uiso   1.00
O407   O     0.25325   0.42871   0.53992   0.00000  Uiso   1.00
O408   O     0.24674   0.57129   0.46008   0.00000  Uiso   1.00
O409   O     0.24480   0.41892   0.43612   0.00000  Uiso   1.00
O410   O     0.25520   0.58108   0.56388   0.00000  Uiso   1.00
O411   O     0.18935   0.50488   0.55191   0.00000  Uiso   1.00
O412   O     0.31064   0.49512   0.44809   0.00000  Uiso   1.00
O413   O     0.18090   0.49510   0.44810   0.00000  Uiso   1.00
O414   O     0.31910   0.50490   0.55190   0.00000  Uiso   1.00
C415   C     0.74833   0.40014   0.48469   0.00000  Uiso   1.00
C416   C     0.58744   0.44887   0.47533   0.00000  Uiso   1.00
C417   C     0.88388   0.50149   0.50072   0.00000  Uiso   1.00
C418   C     0.61588   0.49512   0.50249   0.00000  Uiso   1.00
C419   C     0.90129   0.45378   0.48191   0.00000  Uiso   1.00
C420   C     0.59896   0.53859   0.53725   0.00000  Uiso   1.00
C421   C     0.94751   0.45157   0.48541   0.00000  Uiso   1.00
C422   C     0.55297   0.53919   0.54039   0.00000  Uiso   1.00
C423   C     0.97678   0.49715   0.51170   0.00000  Uiso   1.00
C424   C     0.52362   0.49429   0.51225   0.00000  Uiso   1.00
C425   C     0.95928   0.54550   0.53652   0.00000  Uiso   1.00
C426   C     0.75155   0.59985   0.51534   0.00000  Uiso   1.00
C427   C     0.54107   0.44678   0.48455   0.00000  Uiso   1.00
C428   C     0.96465   0.40355   0.46589   0.00000  Uiso   1.00
C429   C     0.53620   0.58418   0.57218   0.00000  Uiso   1.00
C430   C     0.51088   0.40021   0.46734   0.00000  Uiso   1.00
C431   C     0.99001   0.58801   0.57109   0.00000  Uiso   1.00
C432   C     0.74249   0.34441   0.47720   0.00000  Uiso   1.00
C433   C     0.75729   0.65559   0.52296   0.00000  Uiso   1.00
C434   C     0.66441   0.49798   0.50022   0.00000  Uiso   1.00
C435   C     0.83545   0.50091   0.49995   0.00000  Uiso   1.00
C436   C     0.91220   0.54808   0.52555   0.00000  Uiso   1.00
Cl437  Cl    0.71010   0.64306   0.40812   0.00000  Uiso   1.00
Cl438  Cl    0.78960   0.35685   0.59223   0.00000  Uiso   1.00
Cu439  Cu    0.75500   0.50579   0.56146   0.00000  Uiso   1.00
Cu440  Cu    0.74499   0.49421   0.43854   0.00000  Uiso   1.00
H441   H     0.87856   0.41834   0.46400   0.00000  Uiso   1.00
H442   H     0.62170   0.57311   0.55950   0.00000  Uiso   1.00
H443   H     0.94183   0.36793   0.45117   0.00000  Uiso   1.00
H444   H     0.55939   0.61720   0.59743   0.00000  Uiso   1.00
I445   I     0.88196   0.61944   0.52663   0.00000  Uiso   1.00
I446   I     0.61476   0.38946   0.41171   0.00000  Uiso   1.00
I447   I     0.52797   0.65543   0.46032   0.00000  Uiso   1.00
I448   I     0.97462   0.65701   0.63260   0.00000  Uiso   1.00
I449   I     0.68697   0.42883   0.63149   0.00000  Uiso   1.00
I450   I     0.81368   0.57104   0.36648   0.00000  Uiso   1.00
N451   N     0.73744   0.48547   0.34617   0.00000  Uiso   1.00
N452   N     0.76255   0.51453   0.65383   0.00000  Uiso   1.00
O453   O     0.75325   0.42871   0.53992   0.00000  Uiso   1.00
O454   O     0.74674   0.57129   0.46008   0.00000  Uiso   1.00
O455   O     0.74480   0.41892   0.43612   0.00000  Uiso   1.00
O456   O     0.75520   0.58108   0.56388   0.00000  Uiso   1.00
O457   O     0.68935   0.50488   0.55191   0.00000  Uiso   1.00
O458   O     0.81064   0.49512   0.44809   0.00000  Uiso   1.00
O459   O     0.68090   0.49510   0.44810   0.00000  Uiso   1.00
O460   O     0.81910   0.50490   0.55190   0.00000  Uiso   1.00
C461   C     0.24833   0.73348   0.48469   0.00000  Uiso   1.00
C462   C     0.08744   0.78221   0.47533   0.00000  Uiso   1.00
C463   C     0.38388   0.83482   0.50072   0.00000  Uiso   1.00
C464   C     0.11588   0.82845   0.50249   0.00000  Uiso   1.00
C465   C     0.40129   0.78711   0.48191   0.00000  Uiso   1.00
C466   C     0.09896   0.87192   0.53725   0.00000  Uiso   1.00
C467   C     0.44751   0.78490   0.48541   0.00000  Uiso   1.00
C468   C     0.05297   0.87253   0.54039   0.00000  Uiso   1.00
C469   C     0.47678   0.83048   0.51170   0.00000  Uiso   1.00
C470   C     0.02362   0.82763   0.51225   0.00000  Uiso   1.00
C471   C     0.45928   0.87884   0.53652   0.00000  Uiso   1.00
C472   C     0.25155   0.93318   0.51534   0.00000  Uiso   1.00
C473   C     0.04107   0.78011   0.48455   0.00000  Uiso   1.00
C474   C     0.46465   0.73688   0.46589   0.00000  Uiso   1.00
C475   C     0.03620   0.91751   0.57218   0.00000  Uiso   1.00
C476   C     0.01088   0.73354   0.46734   0.00000  Uiso   1.00
C477   C     0.49001   0.92134   0.57109   0.00000  Uiso   1.00
C478   C     0.24249   0.67774   0.47720   0.00000  Uiso   1.00
C479   C     0.25729   0.98893   0.52296   0.00000  Uiso   1.00
C480   C     0.16441   0.83131   0.50022   0.00000  Uiso   1.00
C481   C     0.33545   0.83424   0.49995   0.00000  Uiso   1.00
C482   C     0.41220   0.88141   0.52555   0.00000  Uiso   1.00
Cl483  Cl    0.21010   0.97639   0.40812   0.00000  Uiso   1.00
Cl484  Cl    0.28960   0.69019   0.59223   0.00000  Uiso   1.00
Cu485  Cu    0.25500   0.83913   0.56146   0.00000  Uiso   1.00
Cu486  Cu    0.24499   0.82754   0.43854   0.00000  Uiso   1.00
H487   H     0.37856   0.75167   0.46400   0.00000  Uiso   1.00
H488   H     0.12170   0.90644   0.55950   0.00000  Uiso   1.00
H489   H     0.44183   0.70127   0.45117   0.00000  Uiso   1.00
H490   H     0.05939   0.95054   0.59743   0.00000  Uiso   1.00
I491   I     0.38196   0.95277   0.52663   0.00000  Uiso   1.00
I492   I     0.11476   0.72280   0.41171   0.00000  Uiso   1.00
I493   I     0.02797   0.98876   0.46032   0.00000  Uiso   1.00
I494   I     0.47462   0.99034   0.63260   0.00000  Uiso   1.00
I495   I     0.18697   0.76216   0.63149   0.00000  Uiso   1.00
I496   I     0.31368   0.90438   0.36648   0.00000  Uiso   1.00
N497   N     0.23744   0.81881   0.34617   0.00000  Uiso   1.00
N498   N     0.26255   0.84786   0.65383   0.00000  Uiso   1.00
O499   O     0.25325   0.76204   0.53992   0.00000  Uiso   1.00
O500   O     0.24674   0.90462   0.46008   0.00000  Uiso   1.00
O501   O     0.24480   0.75226   0.43612   0.00000  Uiso   1.00
O502   O     0.25520   0.91441   0.56388   0.00000  Uiso   1.00
O503   O     0.18935   0.83821   0.55191   0.00000  Uiso   1.00
O504   O     0.31064   0.82845   0.44809   0.00000  Uiso   1.00
O505   O     0.18090   0.82843   0.44810   0.00000  Uiso   1.00
O506   O     0.31910   0.83824   0.55190   0.00000  Uiso   1.00
C507   C     0.74833   0.73348   0.48469   0.00000  Uiso   1.00
C508   C     0.58744   0.78221   0.47533   0.00000  Uiso   1.00
C509   C     0.88388   0.83482   0.50072   0.00000  Uiso   1.00
C510   C     0.61588   0.82845   0.50249   0.00000  Uiso   1.00
C511   C     0.90129   0.78711   0.48191   0.00000  Uiso   1.00
C512   C     0.59896   0.87192   0.53725   0.00000  Uiso   1.00
C513   C     0.94751   0.78490   0.48541   0.00000  Uiso   1.00
C514   C     0.55297   0.87253   0.54039   0.00000  Uiso   1.00
C515   C     0.97678   0.83048   0.51170   0.00000  Uiso   1.00
C516   C     0.52362   0.82763   0.51225   0.00000  Uiso   1.00
C517   C     0.95928   0.87884   0.53652   0.00000  Uiso   1.00
C518   C     0.75155   0.93318   0.51534   0.00000  Uiso   1.00
C519   C     0.54107   0.78011   0.48455   0.00000  Uiso   1.00
C520   C     0.96465   0.73688   0.46589   0.00000  Uiso   1.00
C521   C     0.53620   0.91751   0.57218   0.00000  Uiso   1.00
C522   C     0.51088   0.73354   0.46734   0.00000  Uiso   1.00
C523   C     0.99001   0.92134   0.57109   0.00000  Uiso   1.00
C524   C     0.74249   0.67774   0.47720   0.00000  Uiso   1.00
C525   C     0.75729   0.98893   0.52296   0.00000  Uiso   1.00
C526   C     0.66441   0.83131   0.50022   0.00000  Uiso   1.00
C527   C     0.83545   0.83424   0.49995   0.00000  Uiso   1.00
C528   C     0.91220   0.88141   0.52555   0.00000  Uiso   1.00
Cl529  Cl    0.71010   0.97639   0.40812   0.00000  Uiso   1.00
Cl530  Cl    0.78960   0.69019   0.59223   0.00000  Uiso   1.00
Cu531  Cu    0.75500   0.83913   0.56146   0.00000  Uiso   1.00
Cu532  Cu    0.74499   0.82754   0.43854   0.00000  Uiso   1.00
H533   H     0.87856   0.75167   0.46400   0.00000  Uiso   1.00
H534   H     0.62170   0.90644   0.55950   0.00000  Uiso   1.00
H535   H     0.94183   0.70127   0.45117   0.00000  Uiso   1.00
H536   H     0.55939   0.95054   0.59743   0.00000  Uiso   1.00
I537   I     0.88196   0.95277   0.52663   0.00000  Uiso   1.00
I538   I     0.61476   0.72280   0.41171   0.00000  Uiso   1.00
I539   I     0.52797   0.98876   0.46032   0.00000  Uiso   1.00
I540   I     0.97462   0.99034   0.63260   0.00000  Uiso   1.00
I541   I     0.68697   0.76216   0.63149   0.00000  Uiso   1.00
I542   I     0.81368   0.90438   0.36648   0.00000  Uiso   1.00
N543   N     0.73744   0.81881   0.34617   0.00000  Uiso   1.00
N544   N     0.76255   0.84786   0.65383   0.00000  Uiso   1.00
O545   O     0.75325   0.76204   0.53992   0.00000  Uiso   1.00
O546   O     0.74674   0.90462   0.46008   0.00000  Uiso   1.00
O547   O     0.74480   0.75226   0.43612   0.00000  Uiso   1.00
O548   O     0.75520   0.91441   0.56388   0.00000  Uiso   1.00
O549   O     0.68935   0.83821   0.55191   0.00000  Uiso   1.00
O550   O     0.81064   0.82845   0.44809   0.00000  Uiso   1.00
O551   O     0.68090   0.82843   0.44810   0.00000  Uiso   1.00
O552   O     0.81910   0.83824   0.55190   0.00000  Uiso   1.00
C553   C     0.24833   0.06681   0.81802   0.00000  Uiso   1.00
C554   C     0.08744   0.11554   0.80866   0.00000  Uiso   1.00
C555   C     0.38388   0.16815   0.83405   0.00000  Uiso   1.00
C556   C     0.11588   0.16178   0.83582   0.00000  Uiso   1.00
C557   C     0.40129   0.12044   0.81525   0.00000  Uiso   1.00
C558   C     0.09896   0.20526   0.87058   0.00000  Uiso   1.00
C559   C     0.44751   0.11823   0.81874   0.00000  Uiso   1.00
C560   C     0.05297   0.20586   0.87372   0.00000  Uiso   1.00
C561   C     0.47678   0.16381   0.84503   0.00000  Uiso   1.00
C562   C     0.02362   0.16096   0.84559   0.00000  Uiso   1.00
C563   C     0.45928   0.21217   0.86985   0.00000  Uiso   1.00
C564   C     0.25155   0.26651   0.84867   0.00000  Uiso   1.00
C565   C     0.04107   0.11345   0.81788   0.00000  Uiso   1.00
C566   C     0.46465   0.07022   0.79922   0.00000  Uiso   1.00
C567   C     0.03620   0.25084   0.90551   0.00000  Uiso   1.00
C568   C     0.01088   0.06687   0.80068   0.00000  Uiso   1.00
C569   C     0.49001   0.25467   0.90443   0.00000  Uiso   1.00
C570   C     0.24249   0.01108   0.81054   0.00000  Uiso   1.00
C571   C     0.25729   0.32226   0.85629   0.00000  Uiso   1.00
C572   C     0.16441   0.16465   0.83355   0.00000  Uiso   1.00
C573   C     0.33545   0.16757   0.83328   0.00000  Uiso   1.00
C574   C     0.41220   0.21474   0.85888   0.00000  Uiso   1.00
Cl575  Cl    0.21010   0.30973   0.74145   0.00000  Uiso   1.00
Cl576  Cl    0.28960   0.02352   0.92556   0.00000  Uiso   1.00
Cu577  Cu    0.25500   0.17246   0.89479   0.00000  Uiso   1.00
Cu578  Cu    0.24499   0.16087   0.77187   0.00000  Uiso   1.00
H579   H     0.37856   0.08500   0.79734   0.00000  Uiso   1.00
H580   H     0.12170   0.23978   0.89284   0.00000  Uiso   1.00
H581   H     0.44183   0.03460   0.78450   0.00000  Uiso   1.00
H582   H     0.05939   0.28387   0.93077   0.00000  Uiso   1.00
I583   I     0.38196   0.28610   0.85996   0.00000  Uiso   1.00
I584   I     0.11476   0.05613   0.74504   0.00000  Uiso   1.00
I585   I     0.02797   0.32210   0.79365   0.00000  Uiso   1.00
I586   I     0.47462   0.32367   0.96594   0.00000  Uiso   1.00
I587   I     0.18697   0.09550   0.96482   0.00000  Uiso   1.00
I588   I     0.31368   0.23771   0.69981   0.00000  Uiso   1.00
N589   N     0.23744   0.15214   0.67951   0.00000  Uiso   1.00
N590   N     0.26255   0.18119   0.98716   0.00000  Uiso   1.00
O591   O     0.25325   0.09538   0.87326   0.00000  Uiso   1.00
O592   O     0.24674   0.23796   0.79341   0.00000  Uiso   1.00
O593   O     0.24480   0.08559   0.76945   0.00000  Uiso   1.00
O594   O     0.25520   0.24774   0.89721   0.00000  Uiso   1.00
O595   O     0.18935   0.17155   0.88524   0.00000  Uiso   1.00
O596   O     0.31064   0.16179   0.78143   0.00000  Uiso   1.00
O597   O     0.18090   0.16176   0.78143   0.00000  Uiso   1.00
O598   O     0.31910   0.17157   0.88523   0.00000  Uiso   1.00
C599   C     0.74833   0.06681   0.81802   0.00000  Uiso   1.00
C600   C     0.58744   0.11554   0.80866   0.00000  Uiso   1.00
C601   C     0.88388   0.16815   0.83405   0.00000  Uiso   1.00
C602   C     0.61588   0.16178   0.83582   0.00000  Uiso   1.00
C603   C     0.90129   0.12044   0.81525   0.00000  Uiso   1.00
C604   C     0.59896   0.20526   0.87058   0.00000  Uiso   1.00
C605   C     0.94751   0.11823   0.81874   0.00000  Uiso   1.00
C606   C     0.55297   0.20586   0.87372   0.00000  Uiso   1.00
C607   C     0.97678   0.16381   0.84503   0.00000  Uiso   1.00
C608   C     0.52362   0.16096   0.84559   0.00000  Uiso   1.00
C609   C     0.95928   0.21217   0.86985   0.00000  Uiso   1.00
C610   C     0.75155   0.26651   0.84867   0.00000  Uiso   1.00
C611   C     0.54107   0.11345   0.81788   0.00000  Uiso   1.00
C612   C     0.96465   0.07022   0.79922   0.00000  Uiso   1.00
C613   C     0.53620   0.25084   0.90551   0.00000  Uiso   1.00
C614   C     0.51088   0.06687   0.80068   0.00000  Uiso   1.00
C615   C     0.99001   0.25467   0.90443   0.00000  Uiso   1.00
C616   C     0.74249   0.01108   0.81054   0.00000  Uiso   1.00
C617   C     0.75729   0.32226   0.85629   0.00000  Uiso   1.00
C618   C     0.66441   0.16465   0.83355   0.00000  Uiso   1.00
C619   C     0.83545   0.16757   0.83328   0.00000  Uiso   1.00
C620   C     0.91220   0.21474   0.85888   0.00000  Uiso   1.00
Cl621  Cl    0.71010   0.30973   0.74145   0.00000  Uiso   1.00
Cl622  Cl    0.78960   0.02352   0.92556   0.00000  Uiso   1.00
Cu623  Cu    0.75500   0.17246   0.89479   0.00000  Uiso   1.00
Cu624  Cu    0.74499   0.16087   0.77187   0.00000  Uiso   1.00
H625   H     0.87856   0.08500   0.79734   0.00000  Uiso   1.00
H626   H     0.62170   0.23978   0.89284   0.00000  Uiso   1.00
H627   H     0.94183   0.03460   0.78450   0.00000  Uiso   1.00
H628   H     0.55939   0.28387   0.93077   0.00000  Uiso   1.00
I629   I     0.88196   0.28610   0.85996   0.00000  Uiso   1.00
I630   I     0.61476   0.05613   0.74504   0.00000  Uiso   1.00
I631   I     0.52797   0.32210   0.79365   0.00000  Uiso   1.00
I632   I     0.97462   0.32367   0.96594   0.00000  Uiso   1.00
I633   I     0.68697   0.09550   0.96482   0.00000  Uiso   1.00
I634   I     0.81368   0.23771   0.69981   0.00000  Uiso   1.00
N635   N     0.73744   0.15214   0.67951   0.00000  Uiso   1.00
N636   N     0.76255   0.18119   0.98716   0.00000  Uiso   1.00
O637   O     0.75325   0.09538   0.87326   0.00000  Uiso   1.00
O638   O     0.74674   0.23796   0.79341   0.00000  Uiso   1.00
O639   O     0.74480   0.08559   0.76945   0.00000  Uiso   1.00
O640   O     0.75520   0.24774   0.89721   0.00000  Uiso   1.00
O641   O     0.68935   0.17155   0.88524   0.00000  Uiso   1.00
O642   O     0.81064   0.16179   0.78143   0.00000  Uiso   1.00
O643   O     0.68090   0.16176   0.78143   0.00000  Uiso   1.00
O644   O     0.81910   0.17157   0.88523   0.00000  Uiso   1.00
C645   C     0.24833   0.40014   0.81802   0.00000  Uiso   1.00
C646   C     0.08744   0.44887   0.80866   0.00000  Uiso   1.00
C647   C     0.38388   0.50149   0.83405   0.00000  Uiso   1.00
C648   C     0.11588   0.49512   0.83582   0.00000  Uiso   1.00
C649   C     0.40129   0.45378   0.81525   0.00000  Uiso   1.00
C650   C     0.09896   0.53859   0.87058   0.00000  Uiso   1.00
C651   C     0.44751   0.45157   0.81874   0.00000  Uiso   1.00
C652   C     0.05297   0.53919   0.87372   0.00000  Uiso   1.00
C653   C     0.47678   0.49715   0.84503   0.00000  Uiso   1.00
C654   C     0.02362   0.49429   0.84559   0.00000  Uiso   1.00
C655   C     0.45928   0.54550   0.86985   0.00000  Uiso   1.00
C656   C     0.25155   0.59985   0.84867   0.00000  Uiso   1.00
C657   C     0.04107   0.44678   0.81788   0.00000  Uiso   1.00
C658   C     0.46465   0.40355   0.79922   0.00000  Uiso   1.00
C659   C     0.03620   0.58418   0.90551   0.00000  Uiso   1.00
C660   C     0.01088   0.40021   0.80068   0.00000  Uiso   1.00
C661   C     0.49001   0.58801   0.90443   0.00000  Uiso   1.00
C662   C     0.24249   0.34441   0.81054   0.00000  Uiso   1.00
C663   C     0.25729   0.65559   0.85629   0.00000  Uiso   1.00
C664   C     0.16441   0.49798   0.83355   0.00000  Uiso   1.00
C665   C     0.33545   0.50091   0.83328   0.00000  Uiso   1.00
C666   C     0.41220   0.54808   0.85888   0.00000  Uiso   1.00
Cl667  Cl    0.21010   0.64306   0.74145   0.00000  Uiso   1.00
Cl668  Cl    0.28960   0.35685   0.92556   0.00000  Uiso   1.00
Cu669  Cu    0.25500   0.50579   0.89479   0.00000  Uiso   1.00
Cu670  Cu    0.24499   0.49421   0.77187   0.00000  Uiso   1.00
H671   H     0.37856   0.41834   0.79734   0.00000  Uiso   1.00
H672   H     0.12170   0.57311   0.89284   0.00000  Uiso   1.00
H673   H     0.44183   0.36793   0.78450   0.00000  Uiso   1.00
H674   H     0.05939   0.61720   0.93077   0.00000  Uiso   1.00
I675   I     0.38196   0.61944   0.85996   0.00000  Uiso   1.00
I676   I     0.11476   0.38946   0.74504   0.00000  Uiso   1.00
I677   I     0.02797   0.65543   0.79365   0.00000  Uiso   1.00
I678   I     0.47462   0.65701   0.96594   0.00000  Uiso   1.00
I679   I     0.18697   0.42883   0.96482   0.00000  Uiso   1.00
I680   I     0.31368   0.57104   0.69981   0.00000  Uiso   1.00
N681   N     0.23744   0.48547   0.67951   0.00000  Uiso   1.00
N682   N     0.26255   0.51453   0.98716   0.00000  Uiso   1.00
O683   O     0.25325   0.42871   0.87326   0.00000  Uiso   1.00
O684   O     0.24674   0.57129   0.79341   0.00000  Uiso   1.00
O685   O     0.24480   0.41892   0.76945   0.00000  Uiso   1.00
O686   O     0.25520   0.58108   0.89721   0.00000  Uiso   1.00
O687   O     0.18935   0.50488   0.88524   0.00000  Uiso   1.00
O688   O     0.31064   0.49512   0.78143   0.00000  Uiso   1.00
O689   O     0.18090   0.49510   0.78143   0.00000  Uiso   1.00
O690   O     0.31910   0.50490   0.88523   0.00000  Uiso   1.00
C691   C     0.74833   0.40014   0.81802   0.00000  Uiso   1.00
C692   C     0.58744   0.44887   0.80866   0.00000  Uiso   1.00
C693   C     0.88388   0.50149   0.83405   0.00000  Uiso   1.00
C694   C     0.61588   0.49512   0.83582   0.00000  Uiso   1.00
C695   C     0.90129   0.45378   0.81525   0.00000  Uiso   1.00
C696   C     0.59896   0.53859   0.87058   0.00000  Uiso   1.00
C697   C     0.94751   0.45157   0.81874   0.00000  Uiso   1.00
C698   C     0.55297   0.53919   0.87372   0.00000  Uiso   1.00
C699   C     0.97678   0.49715   0.84503   0.00000  Uiso   1.00
C700   C     0.52362   0.49429   0.84559   0.00000  Uiso   1.00
C701   C     0.95928   0.54550   0.86985   0.00000  Uiso   1.00
C702   C     0.75155   0.59985   0.84867   0.00000  Uiso   1.00
C703   C     0.54107   0.44678   0.81788   0.00000  Uiso   1.00
C704   C     0.96465   0.40355   0.79922   0.00000  Uiso   1.00
C705   C     0.53620   0.58418   0.90551   0.00000  Uiso   1.00
C706   C     0.51088   0.40021   0.80068   0.00000  Uiso   1.00
C707   C     0.99001   0.58801   0.90443   0.00000  Uiso   1.00
C708   C     0.74249   0.34441   0.81054   0.00000  Uiso   1.00
C709   C     0.75729   0.65559   0.85629   0.00000  Uiso   1.00
C710   C     0.66441   0.49798   0.83355   0.00000  Uiso   1.00
C711   C     0.83545   0.50091   0.83328   0.00000  Uiso   1.00
C712   C     0.91220   0.54808   0.85888   0.00000  Uiso   1.00
Cl713  Cl    0.71010   0.64306   0.74145   0.00000  Uiso   1.00
Cl714  Cl    0.78960   0.35685   0.92556   0.00000  Uiso   1.00
Cu715  Cu    0.75500   0.50579   0.89479   0.00000  Uiso   1.00
Cu716  Cu    0.74499   0.49421   0.77187   0.00000  Uiso   1.00
H717   H     0.87856   0.41834   0.79734   0.00000  Uiso   1.00
H718   H     0.62170   0.57311   0.89284   0.00000  Uiso   1.00
H719   H     0.94183   0.36793   0.78450   0.00000  Uiso   1.00
H720   H     0.55939   0.61720   0.93077   0.00000  Uiso   1.00
I721   I     0.88196   0.61944   0.85996   0.00000  Uiso   1.00
I722   I     0.61476   0.38946   0.74504   0.00000  Uiso   1.00
I723   I     0.52797   0.65543   0.79365   0.00000  Uiso   1.00
I724   I     0.97462   0.65701   0.96594   0.00000  Uiso   1.00
I725   I     0.68697   0.42883   0.96482   0.00000  Uiso   1.00
I726   I     0.81368   0.57104   0.69981   0.00000  Uiso   1.00
N727   N     0.73744   0.48547   0.67951   0.00000  Uiso   1.00
N728   N     0.76255   0.51453   0.98716   0.00000  Uiso   1.00
O729   O     0.75325   0.42871   0.87326   0.00000  Uiso   1.00
O730   O     0.74674   0.57129   0.79341   0.00000  Uiso   1.00
O731   O     0.74480   0.41892   0.76945   0.00000  Uiso   1.00
O732   O     0.75520   0.58108   0.89721   0.00000  Uiso   1.00
O733   O     0.68935   0.50488   0.88524   0.00000  Uiso   1.00
O734   O     0.81064   0.49512   0.78143   0.00000  Uiso   1.00
O735   O     0.68090   0.49510   0.78143   0.00000  Uiso   1.00
O736   O     0.81910   0.50490   0.88523   0.00000  Uiso   1.00
C737   C     0.24833   0.73348   0.81802   0.00000  Uiso   1.00
C738   C     0.08744   0.78221   0.80866   0.00000  Uiso   1.00
C739   C     0.38388   0.83482   0.83405   0.00000  Uiso   1.00
C740   C     0.11588   0.82845   0.83582   0.00000  Uiso   1.00
C741   C     0.40129   0.78711   0.81525   0.00000  Uiso   1.00
C742   C     0.09896   0.87192   0.87058   0.00000  Uiso   1.00
C743   C     0.44751   0.78490   0.81874   0.00000  Uiso   1.00
C744   C     0.05297   0.87253   0.87372   0.00000  Uiso   1.00
C745   C     0.47678   0.83048   0.84503   0.00000  Uiso   1.00
C746   C     0.02362   0.82763   0.84559   0.00000  Uiso   1.00
C747   C     0.45928   0.87884   0.86985   0.00000  Uiso   1.00
C748   C     0.25155   0.93318   0.84867   0.00000  Uiso   1.00
C749   C     0.04107   0.78011   0.81788   0.00000  Uiso   1.00
C750   C     0.46465   0.73688   0.79922   0.00000  Uiso   1.00
C751   C     0.03620   0.91751   0.90551   0.00000  Uiso   1.00
C752   C     0.01088   0.73354   0.80068   0.00000  Uiso   1.00
C753   C     0.49001   0.92134   0.90443   0.00000  Uiso   1.00
C754   C     0.24249   0.67774   0.81054   0.00000  Uiso   1.00
C755   C     0.25729   0.98893   0.85629   0.00000  Uiso   1.00
C756   C     0.16441   0.83131   0.83355   0.00000  Uiso   1.00
C757   C     0.33545   0.83424   0.83328   0.00000  Uiso   1.00
C758   C     0.41220   0.88141   0.85888   0.00000  Uiso   1.00
Cl759  Cl    0.21010   0.97639   0.74145   0.00000  Uiso   1.00
Cl760  Cl    0.28960   0.69019   0.92556   0.00000  Uiso   1.00
Cu761  Cu    0.25500   0.83913   0.89479   0.00000  Uiso   1.00
Cu762  Cu    0.24499   0.82754   0.77187   0.00000  Uiso   1.00
H763   H     0.37856   0.75167   0.79734   0.00000  Uiso   1.00
H764   H     0.12170   0.90644   0.89284   0.00000  Uiso   1.00
H765   H     0.44183   0.70127   0.78450   0.00000  Uiso   1.00
H766   H     0.05939   0.95054   0.93077   0.00000  Uiso   1.00
I767   I     0.38196   0.95277   0.85996   0.00000  Uiso   1.00
I768   I     0.11476   0.72280   0.74504   0.00000  Uiso   1.00
I769   I     0.02797   0.98876   0.79365   0.00000  Uiso   1.00
I770   I     0.47462   0.99034   0.96594   0.00000  Uiso   1.00
I771   I     0.18697   0.76216   0.96482   0.00000  Uiso   1.00
I772   I     0.31368   0.90438   0.69981   0.00000  Uiso   1.00
N773   N     0.23744   0.81881   0.67951   0.00000  Uiso   1.00
N774   N     0.26255   0.84786   0.98716   0.00000  Uiso   1.00
O775   O     0.25325   0.76204   0.87326   0.00000  Uiso   1.00
O776   O     0.24674   0.90462   0.79341   0.00000  Uiso   1.00
O777   O     0.24480   0.75226   0.76945   0.00000  Uiso   1.00
O778   O     0.25520   0.91441   0.89721   0.00000  Uiso   1.00
O779   O     0.18935   0.83821   0.88524   0.00000  Uiso   1.00
O780   O     0.31064   0.82845   0.78143   0.00000  Uiso   1.00
O781   O     0.18090   0.82843   0.78143   0.00000  Uiso   1.00
O782   O     0.31910   0.83824   0.88523   0.00000  Uiso   1.00
C783   C     0.74833   0.73348   0.81802   0.00000  Uiso   1.00
C784   C     0.58744   0.78221   0.80866   0.00000  Uiso   1.00
C785   C     0.88388   0.83482   0.83405   0.00000  Uiso   1.00
C786   C     0.61588   0.82845   0.83582   0.00000  Uiso   1.00
C787   C     0.90129   0.78711   0.81525   0.00000  Uiso   1.00
C788   C     0.59896   0.87192   0.87058   0.00000  Uiso   1.00
C789   C     0.94751   0.78490   0.81874   0.00000  Uiso   1.00
C790   C     0.55297   0.87253   0.87372   0.00000  Uiso   1.00
C791   C     0.97678   0.83048   0.84503   0.00000  Uiso   1.00
C792   C     0.52362   0.82763   0.84559   0.00000  Uiso   1.00
C793   C     0.95928   0.87884   0.86985   0.00000  Uiso   1.00
C794   C     0.75155   0.93318   0.84867   0.00000  Uiso   1.00
C795   C     0.54107   0.78011   0.81788   0.00000  Uiso   1.00
C796   C     0.96465   0.73688   0.79922   0.00000  Uiso   1.00
C797   C     0.53620   0.91751   0.90551   0.00000  Uiso   1.00
C798   C     0.51088   0.73354   0.80068   0.00000  Uiso   1.00
C799   C     0.99001   0.92134   0.90443   0.00000  Uiso   1.00
C800   C     0.74249   0.67774   0.81054   0.00000  Uiso   1.00
C801   C     0.75729   0.98893   0.85629   0.00000  Uiso   1.00
C802   C     0.66441   0.83131   0.83355   0.00000  Uiso   1.00
C803   C     0.83545   0.83424   0.83328   0.00000  Uiso   1.00
C804   C     0.91220   0.88141   0.85888   0.00000  Uiso   1.00
Cl805  Cl    0.71010   0.97639   0.74145   0.00000  Uiso   1.00
Cl806  Cl    0.78960   0.69019   0.92556   0.00000  Uiso   1.00
Cu807  Cu    0.75500   0.83913   0.89479   0.00000  Uiso   1.00
Cu808  Cu    0.74499   0.82754   0.77187   0.00000  Uiso   1.00
H809   H     0.87856   0.75167   0.79734   0.00000  Uiso   1.00
H810   H     0.62170   0.90644   0.89284   0.00000  Uiso   1.00
H811   H     0.94183   0.70127   0.78450   0.00000  Uiso   1.00
H812   H     0.55939   0.95054   0.93077   0.00000  Uiso   1.00
I813   I     0.88196   0.95277   0.85996   0.00000  Uiso   1.00
I814   I     0.61476   0.72280   0.74504   0.00000  Uiso   1.00
I815   I     0.52797   0.98876   0.79365   0.00000  Uiso   1.00
I816   I     0.97462   0.99034   0.96594   0.00000  Uiso   1.00
I817   I     0.68697   0.76216   0.96482   0.00000  Uiso   1.00
I818   I     0.81368   0.90438   0.69981   0.00000  Uiso   1.00
N819   N     0.73744   0.81881   0.67951   0.00000  Uiso   1.00
N820   N     0.76255   0.84786   0.98716   0.00000  Uiso   1.00
O821   O     0.75325   0.76204   0.87326   0.00000  Uiso   1.00
O822   O     0.74674   0.90462   0.79341   0.00000  Uiso   1.00
O823   O     0.74480   0.75226   0.76945   0.00000  Uiso   1.00
O824   O     0.75520   0.91441   0.89721   0.00000  Uiso   1.00
O825   O     0.68935   0.83821   0.88524   0.00000  Uiso   1.00
O826   O     0.81064   0.82845   0.78143   0.00000  Uiso   1.00
O827   O     0.68090   0.82843   0.78143   0.00000  Uiso   1.00
O828   O     0.81910   0.83824   0.88523   0.00000  Uiso   1.00
loop_
_geom_bond_atom_site_label_1
_geom_bond_atom_site_label_2
_geom_bond_distance
_geom_bond_site_symmetry_2
_ccdc_geom_bond_type
C1     C18     1.432   .     S
C1     O41     1.302   .     A
C1     O39     1.294   .     A
C2     C4      1.412   .     A
C2     I32     2.137   .     S
C2     C13     1.421   .     A
C3     C21     1.448   .     S
C3     C22     1.408   .     A
C3     C5      1.388   .     A
C4     C6      1.391   .     A
C4     C20     1.455   .     S
C5     C7      1.386   .     A
C5     H27     1.086   .     S
C6     C8      1.386   .     A
C6     H28     1.086   .     S
C7     C9      1.408   .     A
C7     C14     1.393   .     A
C8     C10     1.405   .     A
C8     C15     1.392   .     A
C9     C11     1.428   .     A
C9     C56     1.410   .     S
C10    C13     1.425   .     A
C10    C55     1.410   1_455 S
C11    C22     1.420   .     A
C11    C17     1.424   .     A
C12    O40     1.294   .     A
C12    C19     1.432   .     S
C12    O42     1.301   .     A
C13    C16     1.422   .     A
C14    H29     1.084   .     S
C14    C62     1.392   .     S
C15    H30     1.085   .     S
C15    C63     1.393   1_455 S
C16    C60     1.392   1_455 S
C16    I217    2.130   1_545 S
C17    I34     2.131   .     S
C17    C61     1.393   .     S
C18    C203    1.356   1_545 S
C18    Cl207   1.780   1_545 S
C19    C110    1.356   .     S
C19    Cl116   1.782   .     S
C20    O45     1.306   .     A
C20    O43     1.299   .     A
C21    O44     1.304   .     A
C21    O46     1.297   .     A
C22    I31     2.142   .     S
Cl23   C110    1.780   .     S
Cl24   C203    1.782   1_545 S
Cu25   O42     1.968   .     S
Cu25   N38     2.040   .     S
Cu25   O43     1.957   .     S
Cu25   O39     1.971   .     S
Cu25   Cu26    2.714   .     S
Cu25   O46     1.951   .     S
Cu26   N37     2.040   .     S
Cu26   O44     1.957   .     S
Cu26   O40     1.971   .     S
Cu26   O45     1.951   .     S
Cu26   O41     1.968   .     S
I33    C108    2.130   .     S
I35    N313    2.078   .     S
I36    N590    2.075   1_554 S
N37    I587    2.078   1_554 S
N37    N590    1.294   1_554 S
N38    I312    2.075   .     S
N38    N313    1.294   .     S
C47    C64     1.432   .     S
C47    O87     1.302   .     A
C47    O85     1.294   .     A
C48    C50     1.412   .     A
C48    I78     2.137   .     S
C48    C59     1.421   .     A
C49    C67     1.448   .     S
C49    C68     1.408   .     A
C49    C51     1.388   .     A
C50    C52     1.391   .     A
C50    C66     1.455   .     S
C51    C53     1.386   .     A
C51    H73     1.086   .     S
C52    C54     1.386   .     A
C52    H74     1.086   .     S
C53    C55     1.408   .     A
C53    C60     1.393   .     A
C54    C56     1.405   .     A
C54    C61     1.392   .     A
C55    C57     1.428   .     A
C55    C10     1.410   1_655 S
C56    C59     1.425   .     A
C57    C68     1.420   .     A
C57    C63     1.424   .     A
C58    O86     1.294   .     A
C58    C65     1.432   .     S
C58    O88     1.301   .     A
C59    C62     1.422   .     A
C60    H75     1.084   .     S
C60    C16     1.392   1_655 S
C61    H76     1.085   .     S
C62    I263    2.130   1_545 S
C63    I80     2.131   .     S
C63    C15     1.393   1_655 S
C64    C249    1.356   1_545 S
C64    Cl253   1.780   1_545 S
C65    C156    1.356   .     S
C65    Cl162   1.782   .     S
C66    O91     1.306   .     A
C66    O89     1.299   .     A
C67    O90     1.304   .     A
C67    O92     1.297   .     A
C68    I77     2.142   .     S
Cl69   C156    1.780   .     S
Cl70   C249    1.782   1_545 S
Cu71   O88     1.968   .     S
Cu71   N84     2.040   .     S
Cu71   O89     1.957   .     S
Cu71   O85     1.971   .     S
Cu71   Cu72    2.714   .     S
Cu71   O92     1.951   .     S
Cu72   N83     2.040   .     S
Cu72   O90     1.957   .     S
Cu72   O86     1.971   .     S
Cu72   O91     1.951   .     S
Cu72   O87     1.968   .     S
I79    C154    2.130   .     S
I81    N359    2.078   .     S
I82    N636    2.075   1_554 S
N83    I633    2.078   1_554 S
N83    N636    1.294   1_554 S
N84    I358    2.075   .     S
N84    N359    1.294   .     S
C93    C110    1.432   .     S
C93    O133    1.302   .     A
C93    O131    1.294   .     A
C94    C96     1.412   .     A
C94    I124    2.137   .     S
C94    C105    1.421   .     A
C95    C113    1.448   .     S
C95    C114    1.408   .     A
C95    C97     1.388   .     A
C96    C98     1.391   .     A
C96    C112    1.455   .     S
C97    C99     1.386   .     A
C97    H119    1.086   .     S
C98    C100    1.386   .     A
C98    H120    1.086   .     S
C99    C101    1.408   .     A
C99    C106    1.393   .     A
C100   C102    1.405   .     A
C100   C107    1.392   .     A
C101   C103    1.428   .     A
C101   C148    1.410   .     S
C102   C105    1.425   .     A
C102   C147    1.410   1_455 S
C103   C114    1.420   .     A
C103   C109    1.424   .     A
C104   O132    1.294   .     A
C104   C111    1.432   .     S
C104   O134    1.301   .     A
C105   C108    1.422   .     A
C106   H121    1.084   .     S
C106   C154    1.392   .     S
C107   H122    1.085   .     S
C107   C155    1.393   1_455 S
C108   C152    1.392   1_455 S
C109   I126    2.131   .     S
C109   C153    1.393   .     S
C111   C202    1.356   .     S
C111   Cl208   1.782   .     S
C112   O137    1.306   .     A
C112   O135    1.299   .     A
C113   O136    1.304   .     A
C113   O138    1.297   .     A
C114   I123    2.142   .     S
Cl115  C202    1.780   .     S
Cu117  O134    1.968   .     S
Cu117  N130    2.040   .     S
Cu117  O135    1.957   .     S
Cu117  O131    1.971   .     S
Cu117  Cu118   2.714   .     S
Cu117  O138    1.951   .     S
Cu118  N129    2.040   .     S
Cu118  O136    1.957   .     S
Cu118  O132    1.971   .     S
Cu118  O137    1.951   .     S
Cu118  O133    1.968   .     S
I125   C200    2.130   .     S
I127   N405    2.078   .     S
I128   N682    2.075   1_554 S
N129   I679    2.078   1_554 S
N129   N682    1.294   1_554 S
N130   I404    2.075   .     S
N130   N405    1.294   .     S
C139   C156    1.432   .     S
C139   O179    1.302   .     A
C139   O177    1.294   .     A
C140   C142    1.412   .     A
C140   I170    2.137   .     S
C140   C151    1.421   .     A
C141   C159    1.448   .     S
C141   C160    1.408   .     A
C141   C143    1.388   .     A
C142   C144    1.391   .     A
C142   C158    1.455   .     S
C143   C145    1.386   .     A
C143   H165    1.086   .     S
C144   C146    1.386   .     A
C144   H166    1.086   .     S
C145   C147    1.408   .     A
C145   C152    1.393   .     A
C146   C148    1.405   .     A
C146   C153    1.392   .     A
C147   C149    1.428   .     A
C147   C102    1.410   1_655 S
C148   C151    1.425   .     A
C149   C160    1.420   .     A
C149   C155    1.424   .     A
C150   O178    1.294   .     A
C150   C157    1.432   .     S
C150   O180    1.301   .     A
C151   C154    1.422   .     A
C152   H167    1.084   .     S
C152   C108    1.392   1_655 S
C153   H168    1.085   .     S
C155   I172    2.131   .     S
C155   C107    1.393   1_655 S
C157   C248    1.356   .     S
C157   Cl254   1.782   .     S
C158   O183    1.306   .     A
C158   O181    1.299   .     A
C159   O182    1.304   .     A
C159   O184    1.297   .     A
C160   I169    2.142   .     S
Cl161  C248    1.780   .     S
Cu163  O180    1.968   .     S
Cu163  N176    2.040   .     S
Cu163  O181    1.957   .     S
Cu163  O177    1.971   .     S
Cu163  Cu164   2.714   .     S
Cu163  O184    1.951   .     S
Cu164  N175    2.040   .     S
Cu164  O182    1.957   .     S
Cu164  O178    1.971   .     S
Cu164  O183    1.951   .     S
Cu164  O179    1.968   .     S
I171   C246    2.130   .     S
I173   N451    2.078   .     S
I174   N728    2.075   1_554 S
N175   I725    2.078   1_554 S
N175   N728    1.294   1_554 S
N176   I450    2.075   .     S
N176   N451    1.294   .     S
C185   C202    1.432   .     S
C185   O225    1.302   .     A
C185   O223    1.294   .     A
C186   C188    1.412   .     A
C186   I216    2.137   .     S
C186   C197    1.421   .     A
C187   C205    1.448   .     S
C187   C206    1.408   .     A
C187   C189    1.388   .     A
C188   C190    1.391   .     A
C188   C204    1.455   .     S
C189   C191    1.386   .     A
C189   H211    1.086   .     S
C190   C192    1.386   .     A
C190   H212    1.086   .     S
C191   C193    1.408   .     A
C191   C198    1.393   .     A
C192   C194    1.405   .     A
C192   C199    1.392   .     A
C193   C195    1.428   .     A
C193   C240    1.410   .     S
C194   C197    1.425   .     A
C194   C239    1.410   1_455 S
C195   C206    1.420   .     A
C195   C201    1.424   .     A
C196   O224    1.294   .     A
C196   C203    1.432   .     S
C196   O226    1.301   .     A
C197   C200    1.422   .     A
C198   H213    1.084   .     S
C198   C246    1.392   .     S
C199   H214    1.085   .     S
C199   C247    1.393   1_455 S
C200   C244    1.392   1_455 S
C201   I218    2.131   .     S
C201   C245    1.393   .     S
C203   C18     1.356   1_565 S
C203   Cl24    1.782   1_565 S
C204   O229    1.306   .     A
C204   O227    1.299   .     A
C205   O228    1.304   .     A
C205   O230    1.297   .     A
C206   I215    2.142   .     S
Cl207  C18     1.780   1_565 S
Cu209  O226    1.968   .     S
Cu209  N222    2.040   .     S
Cu209  O227    1.957   .     S
Cu209  O223    1.971   .     S
Cu209  Cu210   2.714   .     S
Cu209  O230    1.951   .     S
Cu210  N221    2.040   .     S
Cu210  O228    1.957   .     S
Cu210  O224    1.971   .     S
Cu210  O229    1.951   .     S
Cu210  O225    1.968   .     S
I217   C16     2.130   1_565 S
I219   N497    2.078   .     S
I220   N774    2.075   1_554 S
N221   I771    2.078   1_554 S
N221   N774    1.294   1_554 S
N222   I496    2.075   .     S
N222   N497    1.294   .     S
C231   C248    1.432   .     S
C231   O271    1.302   .     A
C231   O269    1.294   .     A
C232   C234    1.412   .     A
C232   I262    2.137   .     S
C232   C243    1.421   .     A
C233   C251    1.448   .     S
C233   C252    1.408   .     A
C233   C235    1.388   .     A
C234   C236    1.391   .     A
C234   C250    1.455   .     S
C235   C237    1.386   .     A
C235   H257    1.086   .     S
C236   C238    1.386   .     A
C236   H258    1.086   .     S
C237   C239    1.408   .     A
C237   C244    1.393   .     A
C238   C240    1.405   .     A
C238   C245    1.392   .     A
C239   C241    1.428   .     A
C239   C194    1.410   1_655 S
C240   C243    1.425   .     A
C241   C252    1.420   .     A
C241   C247    1.424   .     A
C242   O270    1.294   .     A
C242   C249    1.432   .     S
C242   O272    1.301   .     A
C243   C246    1.422   .     A
C244   H259    1.084   .     S
C244   C200    1.392   1_655 S
C245   H260    1.085   .     S
C247   I264    2.131   .     S
C247   C199    1.393   1_655 S
C249   C64     1.356   1_565 S
C249   Cl70    1.782   1_565 S
C250   O275    1.306   .     A
C250   O273    1.299   .     A
C251   O274    1.304   .     A
C251   O276    1.297   .     A
C252   I261    2.142   .     S
Cl253  C64     1.780   1_565 S
Cu255  O272    1.968   .     S
Cu255  N268    2.040   .     S
Cu255  O273    1.957   .     S
Cu255  O269    1.971   .     S
Cu255  Cu256   2.714   .     S
Cu255  O276    1.951   .     S
Cu256  N267    2.040   .     S
Cu256  O274    1.957   .     S
Cu256  O270    1.971   .     S
Cu256  O275    1.951   .     S
Cu256  O271    1.968   .     S
I263   C62     2.130   1_565 S
I265   N543    2.078   .     S
I266   N820    2.075   1_554 S
N267   I817    2.078   1_554 S
N267   N820    1.294   1_554 S
N268   I542    2.075   .     S
N268   N543    1.294   .     S
C277   C294    1.432   .     S
C277   O317    1.302   .     A
C277   O315    1.294   .     A
C278   C280    1.412   .     A
C278   I308    2.137   .     S
C278   C289    1.421   .     A
C279   C297    1.448   .     S
C279   C298    1.408   .     A
C279   C281    1.388   .     A
C280   C282    1.391   .     A
C280   C296    1.455   .     S
C281   C283    1.386   .     A
C281   H303    1.086   .     S
C282   C284    1.386   .     A
C282   H304    1.086   .     S
C283   C285    1.408   .     A
C283   C290    1.393   .     A
C284   C286    1.405   .     A
C284   C291    1.392   .     A
C285   C287    1.428   .     A
C285   C332    1.410   .     S
C286   C289    1.425   .     A
C286   C331    1.410   1_455 S
C287   C298    1.420   .     A
C287   C293    1.424   .     A
C288   O316    1.294   .     A
C288   C295    1.432   .     S
C288   O318    1.301   .     A
C289   C292    1.422   .     A
C290   H305    1.084   .     S
C290   C338    1.392   .     S
C291   H306    1.085   .     S
C291   C339    1.393   1_455 S
C292   C336    1.392   1_455 S
C292   I493    2.130   1_545 S
C293   I310    2.131   .     S
C293   C337    1.393   .     S
C294   C479    1.356   1_545 S
C294   Cl483   1.780   1_545 S
C295   C386    1.356   .     S
C295   Cl392   1.782   .     S
C296   O321    1.306   .     A
C296   O319    1.299   .     A
C297   O320    1.304   .     A
C297   O322    1.297   .     A
C298   I307    2.142   .     S
Cl299  C386    1.780   .     S
Cl300  C479    1.782   1_545 S
Cu301  O318    1.968   .     S
Cu301  N314    2.040   .     S
Cu301  O319    1.957   .     S
Cu301  O315    1.971   .     S
Cu301  Cu302   2.714   .     S
Cu301  O322    1.951   .     S
Cu302  N313    2.040   .     S
Cu302  O320    1.957   .     S
Cu302  O316    1.971   .     S
Cu302  O321    1.951   .     S
Cu302  O317    1.968   .     S
I309   C384    2.130   .     S
I311   N589    2.078   .     S
N314   I588    2.075   .     S
N314   N589    1.294   .     S
C323   C340    1.432   .     S
C323   O363    1.302   .     A
C323   O361    1.294   .     A
C324   C326    1.412   .     A
C324   I354    2.137   .     S
C324   C335    1.421   .     A
C325   C343    1.448   .     S
C325   C344    1.408   .     A
C325   C327    1.388   .     A
C326   C328    1.391   .     A
C326   C342    1.455   .     S
C327   C329    1.386   .     A
C327   H349    1.086   .     S
C328   C330    1.386   .     A
C328   H350    1.086   .     S
C329   C331    1.408   .     A
C329   C336    1.393   .     A
C330   C332    1.405   .     A
C330   C337    1.392   .     A
C331   C333    1.428   .     A
C331   C286    1.410   1_655 S
C332   C335    1.425   .     A
C333   C344    1.420   .     A
C333   C339    1.424   .     A
C334   O362    1.294   .     A
C334   C341    1.432   .     S
C334   O364    1.301   .     A
C335   C338    1.422   .     A
C336   H351    1.084   .     S
C336   C292    1.392   1_655 S
C337   H352    1.085   .     S
C338   I539    2.130   1_545 S
C339   I356    2.131   .     S
C339   C291    1.393   1_655 S
C340   C525    1.356   1_545 S
C340   Cl529   1.780   1_545 S
C341   C432    1.356   .     S
C341   Cl438   1.782   .     S
C342   O367    1.306   .     A
C342   O365    1.299   .     A
C343   O366    1.304   .     A
C343   O368    1.297   .     A
C344   I353    2.142   .     S
Cl345  C432    1.780   .     S
Cl346  C525    1.782   1_545 S
Cu347  O364    1.968   .     S
Cu347  N360    2.040   .     S
Cu347  O365    1.957   .     S
Cu347  O361    1.971   .     S
Cu347  Cu348   2.714   .     S
Cu347  O368    1.951   .     S
Cu348  N359    2.040   .     S
Cu348  O366    1.957   .     S
Cu348  O362    1.971   .     S
Cu348  O367    1.951   .     S
Cu348  O363    1.968   .     S
I355   C430    2.130   .     S
I357   N635    2.078   .     S
N360   I634    2.075   .     S
N360   N635    1.294   .     S
C369   C386    1.432   .     S
C369   O409    1.302   .     A
C369   O407    1.294   .     A
C370   C372    1.412   .     A
C370   I400    2.137   .     S
C370   C381    1.421   .     A
C371   C389    1.448   .     S
C371   C390    1.408   .     A
C371   C373    1.388   .     A
C372   C374    1.391   .     A
C372   C388    1.455   .     S
C373   C375    1.386   .     A
C373   H395    1.086   .     S
C374   C376    1.386   .     A
C374   H396    1.086   .     S
C375   C377    1.408   .     A
C375   C382    1.393   .     A
C376   C378    1.405   .     A
C376   C383    1.392   .     A
C377   C379    1.428   .     A
C377   C424    1.410   .     S
C378   C381    1.425   .     A
C378   C423    1.410   1_455 S
C379   C390    1.420   .     A
C379   C385    1.424   .     A
C380   O408    1.294   .     A
C380   C387    1.432   .     S
C380   O410    1.301   .     A
C381   C384    1.422   .     A
C382   H397    1.084   .     S
C382   C430    1.392   .     S
C383   H398    1.085   .     S
C383   C431    1.393   1_455 S
C384   C428    1.392   1_455 S
C385   I402    2.131   .     S
C385   C429    1.393   .     S
C387   C478    1.356   .     S
C387   Cl484   1.782   .     S
C388   O413    1.306   .     A
C388   O411    1.299   .     A
C389   O412    1.304   .     A
C389   O414    1.297   .     A
C390   I399    2.142   .     S
Cl391  C478    1.780   .     S
Cu393  O410    1.968   .     S
Cu393  N406    2.040   .     S
Cu393  O411    1.957   .     S
Cu393  O407    1.971   .     S
Cu393  Cu394   2.714   .     S
Cu393  O414    1.951   .     S
Cu394  N405    2.040   .     S
Cu394  O412    1.957   .     S
Cu394  O408    1.971   .     S
Cu394  O413    1.951   .     S
Cu394  O409    1.968   .     S
I401   C476    2.130   .     S
I403   N681    2.078   .     S
N406   I680    2.075   .     S
N406   N681    1.294   .     S
C415   C432    1.432   .     S
C415   O455    1.302   .     A
C415   O453    1.294   .     A
C416   C418    1.412   .     A
C416   I446    2.137   .     S
C416   C427    1.421   .     A
C417   C435    1.448   .     S
C417   C436    1.408   .     A
C417   C419    1.388   .     A
C418   C420    1.391   .     A
C418   C434    1.455   .     S
C419   C421    1.386   .     A
C419   H441    1.086   .     S
C420   C422    1.386   .     A
C420   H442    1.086   .     S
C421   C423    1.408   .     A
C421   C428    1.393   .     A
C422   C424    1.405   .     A
C422   C429    1.392   .     A
C423   C425    1.428   .     A
C423   C378    1.410   1_655 S
C424   C427    1.425   .     A
C425   C436    1.420   .     A
C425   C431    1.424   .     A
C426   O454    1.294   .     A
C426   C433    1.432   .     S
C426   O456    1.301   .     A
C427   C430    1.422   .     A
C428   H443    1.084   .     S
C428   C384    1.392   1_655 S
C429   H444    1.085   .     S
C431   I448    2.131   .     S
C431   C383    1.393   1_655 S
C433   C524    1.356   .     S
C433   Cl530   1.782   .     S
C434   O459    1.306   .     A
C434   O457    1.299   .     A
C435   O458    1.304   .     A
C435   O460    1.297   .     A
C436   I445    2.142   .     S
Cl437  C524    1.780   .     S
Cu439  O456    1.968   .     S
Cu439  N452    2.040   .     S
Cu439  O457    1.957   .     S
Cu439  O453    1.971   .     S
Cu439  Cu440   2.714   .     S
Cu439  O460    1.951   .     S
Cu440  N451    2.040   .     S
Cu440  O458    1.957   .     S
Cu440  O454    1.971   .     S
Cu440  O459    1.951   .     S
Cu440  O455    1.968   .     S
I447   C522    2.130   .     S
I449   N727    2.078   .     S
N452   I726    2.075   .     S
N452   N727    1.294   .     S
C461   C478    1.432   .     S
C461   O501    1.302   .     A
C461   O499    1.294   .     A
C462   C464    1.412   .     A
C462   I492    2.137   .     S
C462   C473    1.421   .     A
C463   C481    1.448   .     S
C463   C482    1.408   .     A
C463   C465    1.388   .     A
C464   C466    1.391   .     A
C464   C480    1.455   .     S
C465   C467    1.386   .     A
C465   H487    1.086   .     S
C466   C468    1.386   .     A
C466   H488    1.086   .     S
C467   C469    1.408   .     A
C467   C474    1.393   .     A
C468   C470    1.405   .     A
C468   C475    1.392   .     A
C469   C471    1.428   .     A
C469   C516    1.410   .     S
C470   C473    1.425   .     A
C470   C515    1.410   1_455 S
C471   C482    1.420   .     A
C471   C477    1.424   .     A
C472   O500    1.294   .     A
C472   C479    1.432   .     S
C472   O502    1.301   .     A
C473   C476    1.422   .     A
C474   H489    1.084   .     S
C474   C522    1.392   .     S
C475   H490    1.085   .     S
C475   C523    1.393   1_455 S
C476   C520    1.392   1_455 S
C477   I494    2.131   .     S
C477   C521    1.393   .     S
C479   C294    1.356   1_565 S
C479   Cl300   1.782   1_565 S
C480   O505    1.306   .     A
C480   O503    1.299   .     A
C481   O504    1.304   .     A
C481   O506    1.297   .     A
C482   I491    2.142   .     S
Cl483  C294    1.780   1_565 S
Cu485  O502    1.968   .     S
Cu485  N498    2.040   .     S
Cu485  O503    1.957   .     S
Cu485  O499    1.971   .     S
Cu485  Cu486   2.714   .     S
Cu485  O506    1.951   .     S
Cu486  N497    2.040   .     S
Cu486  O504    1.957   .     S
Cu486  O500    1.971   .     S
Cu486  O505    1.951   .     S
Cu486  O501    1.968   .     S
I493   C292    2.130   1_565 S
I495   N773    2.078   .     S
N498   I772    2.075   .     S
N498   N773    1.294   .     S
C507   C524    1.432   .     S
C507   O547    1.302   .     A
C507   O545    1.294   .     A
C508   C510    1.412   .     A
C508   I538    2.137   .     S
C508   C519    1.421   .     A
C509   C527    1.448   .     S
C509   C528    1.408   .     A
C509   C511    1.388   .     A
C510   C512    1.391   .     A
C510   C526    1.455   .     S
C511   C513    1.386   .     A
C511   H533    1.086   .     S
C512   C514    1.386   .     A
C512   H534    1.086   .     S
C513   C515    1.408   .     A
C513   C520    1.393   .     A
C514   C516    1.405   .     A
C514   C521    1.392   .     A
C515   C517    1.428   .     A
C515   C470    1.410   1_655 S
C516   C519    1.425   .     A
C517   C528    1.420   .     A
C517   C523    1.424   .     A
C518   O546    1.294   .     A
C518   C525    1.432   .     S
C518   O548    1.301   .     A
C519   C522    1.422   .     A
C520   H535    1.084   .     S
C520   C476    1.392   1_655 S
C521   H536    1.085   .     S
C523   I540    2.131   .     S
C523   C475    1.393   1_655 S
C525   C340    1.356   1_565 S
C525   Cl346   1.782   1_565 S
C526   O551    1.306   .     A
C526   O549    1.299   .     A
C527   O550    1.304   .     A
C527   O552    1.297   .     A
C528   I537    2.142   .     S
Cl529  C340    1.780   1_565 S
Cu531  O548    1.968   .     S
Cu531  N544    2.040   .     S
Cu531  O549    1.957   .     S
Cu531  O545    1.971   .     S
Cu531  Cu532   2.714   .     S
Cu531  O552    1.951   .     S
Cu532  N543    2.040   .     S
Cu532  O550    1.957   .     S
Cu532  O546    1.971   .     S
Cu532  O551    1.951   .     S
Cu532  O547    1.968   .     S
I539   C338    2.130   1_565 S
I541   N819    2.078   .     S
N544   I818    2.075   .     S
N544   N819    1.294   .     S
C553   C570    1.432   .     S
C553   O593    1.302   .     A
C553   O591    1.294   .     A
C554   C556    1.412   .     A
C554   I584    2.137   .     S
C554   C565    1.421   .     A
C555   C573    1.448   .     S
C555   C574    1.408   .     A
C555   C557    1.388   .     A
C556   C558    1.391   .     A
C556   C572    1.455   .     S
C557   C559    1.386   .     A
C557   H579    1.086   .     S
C558   C560    1.386   .     A
C558   H580    1.086   .     S
C559   C561    1.408   .     A
C559   C566    1.393   .     A
C560   C562    1.405   .     A
C560   C567    1.392   .     A
C561   C563    1.428   .     A
C561   C608    1.410   .     S
C562   C565    1.425   .     A
C562   C607    1.410   1_455 S
C563   C574    1.420   .     A
C563   C569    1.424   .     A
C564   O592    1.294   .     A
C564   C571    1.432   .     S
C564   O594    1.301   .     A
C565   C568    1.422   .     A
C566   H581    1.084   .     S
C566   C614    1.392   .     S
C567   H582    1.085   .     S
C567   C615    1.393   1_455 S
C568   C612    1.392   1_455 S
C568   I769    2.130   1_545 S
C569   I586    2.131   .     S
C569   C613    1.393   .     S
C570   C755    1.356   1_545 S
C570   Cl759   1.780   1_545 S
C571   C662    1.356   .     S
C571   Cl668   1.782   .     S
C572   O597    1.306   .     A
C572   O595    1.299   .     A
C573   O596    1.304   .     A
C573   O598    1.297   .     A
C574   I583    2.142   .     S
Cl575  C662    1.780   .     S
Cl576  C755    1.782   1_545 S
Cu577  O594    1.968   .     S
Cu577  N590    2.040   .     S
Cu577  O595    1.957   .     S
Cu577  O591    1.971   .     S
Cu577  Cu578   2.714   .     S
Cu577  O598    1.951   .     S
Cu578  N589    2.040   .     S
Cu578  O596    1.957   .     S
Cu578  O592    1.971   .     S
Cu578  O597    1.951   .     S
Cu578  O593    1.968   .     S
I585   C660    2.130   .     S
I587   N37     2.078   1_556 S
N590   I36     2.075   1_556 S
N590   N37     1.294   1_556 S
C599   C616    1.432   .     S
C599   O639    1.302   .     A
C599   O637    1.294   .     A
C600   C602    1.412   .     A
C600   I630    2.137   .     S
C600   C611    1.421   .     A
C601   C619    1.448   .     S
C601   C620    1.408   .     A
C601   C603    1.388   .     A
C602   C604    1.391   .     A
C602   C618    1.455   .     S
C603   C605    1.386   .     A
C603   H625    1.086   .     S
C604   C606    1.386   .     A
C604   H626    1.086   .     S
C605   C607    1.408   .     A
C605   C612    1.393   .     A
C606   C608    1.405   .     A
C606   C613    1.392   .     A
C607   C609    1.428   .     A
C607   C562    1.410   1_655 S
C608   C611    1.425   .     A
C609   C620    1.420   .     A
C609   C615    1.424   .     A
C610   O638    1.294   .     A
C610   C617    1.432   .     S
C610   O640    1.301   .     A
C611   C614    1.422   .     A
C612   H627    1.084   .     S
C612   C568    1.392   1_655 S
C613   H628    1.085   .     S
C614   I815    2.130   1_545 S
C615   I632    2.131   .     S
C615   C567    1.393   1_655 S
C616   C801    1.356   1_545 S
C616   Cl805   1.780   1_545 S
C617   C708    1.356   .     S
C617   Cl714   1.782   .     S
C618   O643    1.306   .     A
C618   O641    1.299   .     A
C619   O642    1.304   .     A
C619   O644    1.297   .     A
C620   I629    2.142   .     S
Cl621  C708    1.780   .     S
Cl622  C801    1.782   1_545 S
Cu623  O640    1.968   .     S
Cu623  N636    2.040   .     S
Cu623  O641    1.957   .     S
Cu623  O637    1.971   .     S
Cu623  Cu624   2.714   .     S
Cu623  O644    1.951   .     S
Cu624  N635    2.040   .     S
Cu624  O642    1.957   .     S
Cu624  O638    1.971   .     S
Cu624  O643    1.951   .     S
Cu624  O639    1.968   .     S
I631   C706    2.130   .     S
I633   N83     2.078   1_556 S
N636   I82     2.075   1_556 S
N636   N83     1.294   1_556 S
C645   C662    1.432   .     S
C645   O685    1.302   .     A
C645   O683    1.294   .     A
C646   C648    1.412   .     A
C646   I676    2.137   .     S
C646   C657    1.421   .     A
C647   C665    1.448   .     S
C647   C666    1.408   .     A
C647   C649    1.388   .     A
C648   C650    1.391   .     A
C648   C664    1.455   .     S
C649   C651    1.386   .     A
C649   H671    1.086   .     S
C650   C652    1.386   .     A
C650   H672    1.086   .     S
C651   C653    1.408   .     A
C651   C658    1.393   .     A
C652   C654    1.405   .     A
C652   C659    1.392   .     A
C653   C655    1.428   .     A
C653   C700    1.410   .     S
C654   C657    1.425   .     A
C654   C699    1.410   1_455 S
C655   C666    1.420   .     A
C655   C661    1.424   .     A
C656   O684    1.294   .     A
C656   C663    1.432   .     S
C656   O686    1.301   .     A
C657   C660    1.422   .     A
C658   H673    1.084   .     S
C658   C706    1.392   .     S
C659   H674    1.085   .     S
C659   C707    1.393   1_455 S
C660   C704    1.392   1_455 S
C661   I678    2.131   .     S
C661   C705    1.393   .     S
C663   C754    1.356   .     S
C663   Cl760   1.782   .     S
C664   O689    1.306   .     A
C664   O687    1.299   .     A
C665   O688    1.304   .     A
C665   O690    1.297   .     A
C666   I675    2.142   .     S
Cl667  C754    1.780   .     S
Cu669  O686    1.968   .     S
Cu669  N682    2.040   .     S
Cu669  O687    1.957   .     S
Cu669  O683    1.971   .     S
Cu669  Cu670   2.714   .     S
Cu669  O690    1.951   .     S
Cu670  N681    2.040   .     S
Cu670  O688    1.957   .     S
Cu670  O684    1.971   .     S
Cu670  O689    1.951   .     S
Cu670  O685    1.968   .     S
I677   C752    2.130   .     S
I679   N129    2.078   1_556 S
N682   I128    2.075   1_556 S
N682   N129    1.294   1_556 S
C691   C708    1.432   .     S
C691   O731    1.302   .     A
C691   O729    1.294   .     A
C692   C694    1.412   .     A
C692   I722    2.137   .     S
C692   C703    1.421   .     A
C693   C711    1.448   .     S
C693   C712    1.408   .     A
C693   C695    1.388   .     A
C694   C696    1.391   .     A
C694   C710    1.455   .     S
C695   C697    1.386   .     A
C695   H717    1.086   .     S
C696   C698    1.386   .     A
C696   H718    1.086   .     S
C697   C699    1.408   .     A
C697   C704    1.393   .     A
C698   C700    1.405   .     A
C698   C705    1.392   .     A
C699   C701    1.428   .     A
C699   C654    1.410   1_655 S
C700   C703    1.425   .     A
C701   C712    1.420   .     A
C701   C707    1.424   .     A
C702   O730    1.294   .     A
C702   C709    1.432   .     S
C702   O732    1.301   .     A
C703   C706    1.422   .     A
C704   H719    1.084   .     S
C704   C660    1.392   1_655 S
C705   H720    1.085   .     S
C707   I724    2.131   .     S
C707   C659    1.393   1_655 S
C709   C800    1.356   .     S
C709   Cl806   1.782   .     S
C710   O735    1.306   .     A
C710   O733    1.299   .     A
C711   O734    1.304   .     A
C711   O736    1.297   .     A
C712   I721    2.142   .     S
Cl713  C800    1.780   .     S
Cu715  O732    1.968   .     S
Cu715  N728    2.040   .     S
Cu715  O733    1.957   .     S
Cu715  O729    1.971   .     S
Cu715  Cu716   2.714   .     S
Cu715  O736    1.951   .     S
Cu716  N727    2.040   .     S
Cu716  O734    1.957   .     S
Cu716  O730    1.971   .     S
Cu716  O735    1.951   .     S
Cu716  O731    1.968   .     S
I723   C798    2.130   .     S
I725   N175    2.078   1_556 S
N728   I174    2.075   1_556 S
N728   N175    1.294   1_556 S
C737   C754    1.432   .     S
C737   O777    1.302   .     A
C737   O775    1.294   .     A
C738   C740    1.412   .     A
C738   I768    2.137   .     S
C738   C749    1.421   .     A
C739   C757    1.448   .     S
C739   C758    1.408   .     A
C739   C741    1.388   .     A
C740   C742    1.391   .     A
C740   C756    1.455   .     S
C741   C743    1.386   .     A
C741   H763    1.086   .     S
C742   C744    1.386   .     A
C742   H764    1.086   .     S
C743   C745    1.408   .     A
C743   C750    1.393   .     A
C744   C746    1.405   .     A
C744   C751    1.392   .     A
C745   C747    1.428   .     A
C745   C792    1.410   .     S
C746   C749    1.425   .     A
C746   C791    1.410   1_455 S
C747   C758    1.420   .     A
C747   C753    1.424   .     A
C748   O776    1.294   .     A
C748   C755    1.432   .     S
C748   O778    1.301   .     A
C749   C752    1.422   .     A
C750   H765    1.084   .     S
C750   C798    1.392   .     S
C751   H766    1.085   .     S
C751   C799    1.393   1_455 S
C752   C796    1.392   1_455 S
C753   I770    2.131   .     S
C753   C797    1.393   .     S
C755   C570    1.356   1_565 S
C755   Cl576   1.782   1_565 S
C756   O781    1.306   .     A
C756   O779    1.299   .     A
C757   O780    1.304   .     A
C757   O782    1.297   .     A
C758   I767    2.142   .     S
Cl759  C570    1.780   1_565 S
Cu761  O778    1.968   .     S
Cu761  N774    2.040   .     S
Cu761  O779    1.957   .     S
Cu761  O775    1.971   .     S
Cu761  Cu762   2.714   .     S
Cu761  O782    1.951   .     S
Cu762  N773    2.040   .     S
Cu762  O780    1.957   .     S
Cu762  O776    1.971   .     S
Cu762  O781    1.951   .     S
Cu762  O777    1.968   .     S
I769   C568    2.130   1_565 S
I771   N221    2.078   1_556 S
N774   I220    2.075   1_556 S
N774   N221    1.294   1_556 S
C783   C800    1.432   .     S
C783   O823    1.302   .     A
C783   O821    1.294   .     A
C784   C786    1.412   .     A
C784   I814    2.137   .     S
C784   C795    1.421   .     A
C785   C803    1.448   .     S
C785   C804    1.408   .     A
C785   C787    1.388   .     A
C786   C788    1.391   .     A
C786   C802    1.455   .     S
C787   C789    1.386   .     A
C787   H809    1.086   .     S
C788   C790    1.386   .     A
C788   H810    1.086   .     S
C789   C791    1.408   .     A
C789   C796    1.393   .     A
C790   C792    1.405   .     A
C790   C797    1.392   .     A
C791   C793    1.428   .     A
C791   C746    1.410   1_655 S
C792   C795    1.425   .     A
C793   C804    1.420   .     A
C793   C799    1.424   .     A
C794   O822    1.294   .     A
C794   C801    1.432   .     S
C794   O824    1.301   .     A
C795   C798    1.422   .     A
C796   H811    1.084   .     S
C796   C752    1.392   1_655 S
C797   H812    1.085   .     S
C799   I816    2.131   .     S
C799   C751    1.393   1_655 S
C801   C616    1.356   1_565 S
C801   Cl622   1.782   1_565 S
C802   O827    1.306   .     A
C802   O825    1.299   .     A
C803   O826    1.304   .     A
C803   O828    1.297   .     A
C804   I813    2.142   .     S
Cl805  C616    1.780   1_565 S
Cu807  O824    1.968   .     S
Cu807  N820    2.040   .     S
Cu807  O825    1.957   .     S
Cu807  O821    1.971   .     S
Cu807  Cu808   2.714   .     S
Cu807  O828    1.951   .     S
Cu808  N819    2.040   .     S
Cu808  O826    1.957   .     S
Cu808  O822    1.971   .     S
Cu808  O827    1.951   .     S
Cu808  O823    1.968   .     S
I815   C614    2.130   1_565 S
I817   N267    2.078   1_556 S
N820   I266    2.075   1_556 S
N820   N267    1.294   1_556 S
