data_str_m2_o1_o17_pcu_sym.42
_audit_creation_date              2020-01-03
_audit_creation_method            'Materials Studio'
_symmetry_space_group_name_H-M    'P1'
_symmetry_Int_Tables_number       1
_symmetry_cell_setting            triclinic
loop_
_symmetry_equiv_pos_as_xyz
  x,y,z
_cell_length_a                    32.4938
_cell_length_b                    28.8373
_cell_length_c                    30.0734
_cell_angle_alpha                 90.3627
_cell_angle_beta                  91.2777
_cell_angle_gamma                 90.1972
loop_
_atom_site_label
_atom_site_type_symbol
_atom_site_fract_x
_atom_site_fract_y
_atom_site_fract_z
_atom_site_U_iso_or_equiv
_atom_site_adp_type
_atom_site_occupancy
O1     O     0.10655   0.20625   0.24999   0.00000  Uiso   1.00
O2     O     0.22679   0.12709   0.25000   0.00000  Uiso   1.00
O3     O     0.22679   0.20625   0.25000   0.00000  Uiso   1.00
O4     O     0.10655   0.12709   0.24999   0.00000  Uiso   1.00
C5     C     0.08746   0.16663   0.25061   0.00000  Uiso   1.00
C6     C     0.24588   0.16672   0.24959   0.00000  Uiso   1.00
O7     O     0.16666   0.20627   0.18513   0.00000  Uiso   1.00
O8     O     0.16668   0.12707   0.31487   0.00000  Uiso   1.00
O9     O     0.16668   0.20627   0.31487   0.00000  Uiso   1.00
O10    O     0.16666   0.12707   0.18513   0.00000  Uiso   1.00
C11    C     0.16651   0.16652   0.16469   0.00000  Uiso   1.00
C12    C     0.16688   0.16671   0.33535   0.00000  Uiso   1.00
Cu13   Cu    0.16667   0.21355   0.25000   0.00000  Uiso   1.00
Cu14   Cu    0.16667   0.11978   0.25000   0.00000  Uiso   1.00
C15    C     0.20493   0.17210   0.40720   0.00000  Uiso   1.00
C16    C     0.12918   0.16224   0.09247   0.00000  Uiso   1.00
C17    C     0.16743   0.16615   0.38360   0.00000  Uiso   1.00
C18    C     0.16659   0.16570   0.11654   0.00000  Uiso   1.00
C19    C     0.13049   0.15847   0.40550   0.00000  Uiso   1.00
C20    C     0.20425   0.16856   0.09495   0.00000  Uiso   1.00
C21    C     0.13061   0.15709   0.45210   0.00000  Uiso   1.00
C22    C     0.20468   0.16853   0.04829   0.00000  Uiso   1.00
C23    C     0.16800   0.16313   0.47657   0.00000  Uiso   1.00
C24    C     0.16746   0.16295   0.02357   0.00000  Uiso   1.00
C25    C     0.20584   0.16888   0.45420   0.00000  Uiso   1.00
C26    C     0.12974   0.15678   0.04582   0.00000  Uiso   1.00
C27    C     0.09430   0.14700   0.47451   0.00000  Uiso   1.00
C28    C     0.24193   0.17159   0.02601   0.00000  Uiso   1.00
C29    C     0.09383   0.14485   0.02074   0.00000  Uiso   1.00
C30    C     0.24312   0.17066   0.47979   0.00000  Uiso   1.00
H31    H     0.06631   0.13812   0.45614   0.00000  Uiso   1.00
H32    H     0.27094   0.17299   0.04440   0.00000  Uiso   1.00
C33    C     0.02114   0.12458   0.25031   0.00000  Uiso   1.00
C34    C     0.31221   0.20881   0.25019   0.00000  Uiso   1.00
C35    C     0.31191   0.12464   0.24910   0.00000  Uiso   1.00
C36    C     0.02144   0.20875   0.25136   0.00000  Uiso   1.00
H37    H     0.03692   0.09163   0.25072   0.00000  Uiso   1.00
H38    H     0.29642   0.24176   0.24981   0.00000  Uiso   1.00
H39    H     0.29590   0.09170   0.24778   0.00000  Uiso   1.00
H40    H     0.03746   0.24169   0.25262   0.00000  Uiso   1.00
C41    C     0.29055   0.16675   0.24944   0.00000  Uiso   1.00
C42    C     0.04280   0.16663   0.25098   0.00000  Uiso   1.00
C43    C     0.14461   0.02439   0.21847   0.00000  Uiso   1.00
C44    C     0.18855   0.30897   0.28159   0.00000  Uiso   1.00
C45    C     0.18869   0.02499   0.28154   0.00000  Uiso   1.00
C46    C     0.14469   0.30834   0.21840   0.00000  Uiso   1.00
N47    N     0.16667   0.28402   0.25000   0.00000  Uiso   1.00
N48    N     0.16667   0.04931   0.25000   0.00000  Uiso   1.00
N49    N     0.24119   0.18364   0.38309   0.00000  Uiso   1.00
O50    O     0.25499   0.15541   0.35304   0.00000  Uiso   1.00
O51    O     0.25945   0.22337   0.38980   0.00000  Uiso   1.00
N52    N     0.09107   0.16986   0.11483   0.00000  Uiso   1.00
O53    O     0.08127   0.14501   0.14895   0.00000  Uiso   1.00
O54    O     0.06658   0.20296   0.10180   0.00000  Uiso   1.00
N55    N     0.09270   0.15337   0.38017   0.00000  Uiso   1.00
O56    O     0.08643   0.11690   0.35523   0.00000  Uiso   1.00
O57    O     0.06449   0.18517   0.38217   0.00000  Uiso   1.00
N58    N     0.24185   0.17254   0.12072   0.00000  Uiso   1.00
O59    O     0.25470   0.13790   0.14473   0.00000  Uiso   1.00
O60    O     0.26212   0.21152   0.12191   0.00000  Uiso   1.00
N61    N     0.05833   0.12505   0.04114   0.00000  Uiso   1.00
O62    O     0.02154   0.13570   0.02678   0.00000  Uiso   1.00
O63    O     0.06280   0.09016   0.06805   0.00000  Uiso   1.00
N64    N     0.28277   0.16785   0.46010   0.00000  Uiso   1.00
O65    O     0.31071   0.19894   0.46987   0.00000  Uiso   1.00
O66    O     0.29340   0.13001   0.43961   0.00000  Uiso   1.00
N67    N     0.12066   0.04778   0.18521   0.00000  Uiso   1.00
O68    O     0.08141   0.05277   0.19102   0.00000  Uiso   1.00
O69    O     0.13453   0.05016   0.14503   0.00000  Uiso   1.00
N70    N     0.21160   0.28559   0.31549   0.00000  Uiso   1.00
O71    O     0.25063   0.27853   0.30995   0.00000  Uiso   1.00
O72    O     0.19736   0.28480   0.35557   0.00000  Uiso   1.00
N73    N     0.21242   0.04901   0.31503   0.00000  Uiso   1.00
O74    O     0.19866   0.05118   0.35529   0.00000  Uiso   1.00
O75    O     0.25149   0.05559   0.30903   0.00000  Uiso   1.00
N76    N     0.12128   0.28429   0.18464   0.00000  Uiso   1.00
O77    O     0.13505   0.28292   0.14436   0.00000  Uiso   1.00
O78    O     0.08239   0.27650   0.19067   0.00000  Uiso   1.00
O79    O     0.43988   0.20625   0.24999   0.00000  Uiso   1.00
O80    O     0.56012   0.12709   0.25000   0.00000  Uiso   1.00
O81    O     0.56012   0.20625   0.25000   0.00000  Uiso   1.00
O82    O     0.43988   0.12709   0.24999   0.00000  Uiso   1.00
C83    C     0.42080   0.16663   0.25061   0.00000  Uiso   1.00
C84    C     0.57921   0.16672   0.24959   0.00000  Uiso   1.00
O85    O     0.49999   0.20627   0.18513   0.00000  Uiso   1.00
O86    O     0.50001   0.12707   0.31487   0.00000  Uiso   1.00
O87    O     0.50001   0.20627   0.31487   0.00000  Uiso   1.00
O88    O     0.49999   0.12707   0.18513   0.00000  Uiso   1.00
C89    C     0.49984   0.16652   0.16469   0.00000  Uiso   1.00
C90    C     0.50021   0.16671   0.33535   0.00000  Uiso   1.00
Cu91   Cu    0.50000   0.21355   0.25000   0.00000  Uiso   1.00
Cu92   Cu    0.50000   0.11978   0.25000   0.00000  Uiso   1.00
C93    C     0.53826   0.17210   0.40720   0.00000  Uiso   1.00
C94    C     0.46251   0.16224   0.09247   0.00000  Uiso   1.00
C95    C     0.50077   0.16615   0.38360   0.00000  Uiso   1.00
C96    C     0.49992   0.16570   0.11654   0.00000  Uiso   1.00
C97    C     0.46382   0.15847   0.40550   0.00000  Uiso   1.00
C98    C     0.53758   0.16856   0.09495   0.00000  Uiso   1.00
C99    C     0.46394   0.15709   0.45210   0.00000  Uiso   1.00
C100   C     0.53802   0.16853   0.04829   0.00000  Uiso   1.00
C101   C     0.50134   0.16313   0.47657   0.00000  Uiso   1.00
C102   C     0.50079   0.16295   0.02357   0.00000  Uiso   1.00
C103   C     0.53918   0.16888   0.45420   0.00000  Uiso   1.00
C104   C     0.46307   0.15678   0.04582   0.00000  Uiso   1.00
C105   C     0.42763   0.14700   0.47451   0.00000  Uiso   1.00
C106   C     0.57526   0.17159   0.02601   0.00000  Uiso   1.00
C107   C     0.42716   0.14485   0.02074   0.00000  Uiso   1.00
C108   C     0.57645   0.17066   0.47979   0.00000  Uiso   1.00
H109   H     0.39964   0.13812   0.45614   0.00000  Uiso   1.00
H110   H     0.60427   0.17299   0.04440   0.00000  Uiso   1.00
C111   C     0.35447   0.12458   0.25031   0.00000  Uiso   1.00
C112   C     0.64554   0.20881   0.25019   0.00000  Uiso   1.00
C113   C     0.64525   0.12464   0.24910   0.00000  Uiso   1.00
C114   C     0.35477   0.20875   0.25136   0.00000  Uiso   1.00
H115   H     0.37026   0.09163   0.25072   0.00000  Uiso   1.00
H116   H     0.62975   0.24176   0.24981   0.00000  Uiso   1.00
H117   H     0.62923   0.09170   0.24778   0.00000  Uiso   1.00
H118   H     0.37080   0.24169   0.25262   0.00000  Uiso   1.00
C119   C     0.62388   0.16675   0.24944   0.00000  Uiso   1.00
C120   C     0.37613   0.16663   0.25098   0.00000  Uiso   1.00
C121   C     0.47794   0.02439   0.21847   0.00000  Uiso   1.00
C122   C     0.52188   0.30897   0.28159   0.00000  Uiso   1.00
C123   C     0.52202   0.02499   0.28154   0.00000  Uiso   1.00
C124   C     0.47802   0.30834   0.21840   0.00000  Uiso   1.00
N125   N     0.50000   0.28402   0.25000   0.00000  Uiso   1.00
N126   N     0.50000   0.04931   0.25000   0.00000  Uiso   1.00
N127   N     0.57453   0.18364   0.38309   0.00000  Uiso   1.00
O128   O     0.58832   0.15541   0.35304   0.00000  Uiso   1.00
O129   O     0.59278   0.22337   0.38980   0.00000  Uiso   1.00
N130   N     0.42440   0.16986   0.11483   0.00000  Uiso   1.00
O131   O     0.41460   0.14501   0.14895   0.00000  Uiso   1.00
O132   O     0.39992   0.20296   0.10180   0.00000  Uiso   1.00
N133   N     0.42603   0.15337   0.38017   0.00000  Uiso   1.00
O134   O     0.41976   0.11690   0.35523   0.00000  Uiso   1.00
O135   O     0.39782   0.18517   0.38217   0.00000  Uiso   1.00
N136   N     0.57518   0.17254   0.12072   0.00000  Uiso   1.00
O137   O     0.58804   0.13790   0.14473   0.00000  Uiso   1.00
O138   O     0.59545   0.21152   0.12191   0.00000  Uiso   1.00
N139   N     0.39166   0.12505   0.04114   0.00000  Uiso   1.00
O140   O     0.35487   0.13570   0.02678   0.00000  Uiso   1.00
O141   O     0.39613   0.09016   0.06805   0.00000  Uiso   1.00
N142   N     0.61611   0.16785   0.46010   0.00000  Uiso   1.00
O143   O     0.64404   0.19894   0.46987   0.00000  Uiso   1.00
O144   O     0.62673   0.13001   0.43961   0.00000  Uiso   1.00
N145   N     0.45399   0.04778   0.18521   0.00000  Uiso   1.00
O146   O     0.41474   0.05277   0.19102   0.00000  Uiso   1.00
O147   O     0.46786   0.05016   0.14503   0.00000  Uiso   1.00
N148   N     0.54493   0.28559   0.31549   0.00000  Uiso   1.00
O149   O     0.58396   0.27853   0.30995   0.00000  Uiso   1.00
O150   O     0.53069   0.28480   0.35557   0.00000  Uiso   1.00
N151   N     0.54576   0.04901   0.31503   0.00000  Uiso   1.00
O152   O     0.53199   0.05118   0.35529   0.00000  Uiso   1.00
O153   O     0.58482   0.05559   0.30903   0.00000  Uiso   1.00
N154   N     0.45462   0.28429   0.18464   0.00000  Uiso   1.00
O155   O     0.46839   0.28292   0.14436   0.00000  Uiso   1.00
O156   O     0.41572   0.27650   0.19067   0.00000  Uiso   1.00
O157   O     0.77321   0.20625   0.24999   0.00000  Uiso   1.00
O158   O     0.89345   0.12709   0.25000   0.00000  Uiso   1.00
O159   O     0.89345   0.20625   0.25000   0.00000  Uiso   1.00
O160   O     0.77321   0.12709   0.24999   0.00000  Uiso   1.00
C161   C     0.75413   0.16663   0.25061   0.00000  Uiso   1.00
C162   C     0.91254   0.16672   0.24959   0.00000  Uiso   1.00
O163   O     0.83332   0.20627   0.18513   0.00000  Uiso   1.00
O164   O     0.83334   0.12707   0.31487   0.00000  Uiso   1.00
O165   O     0.83334   0.20627   0.31487   0.00000  Uiso   1.00
O166   O     0.83332   0.12707   0.18513   0.00000  Uiso   1.00
C167   C     0.83317   0.16652   0.16469   0.00000  Uiso   1.00
C168   C     0.83354   0.16671   0.33535   0.00000  Uiso   1.00
Cu169  Cu    0.83333   0.21355   0.25000   0.00000  Uiso   1.00
Cu170  Cu    0.83333   0.11978   0.25000   0.00000  Uiso   1.00
C171   C     0.87159   0.17210   0.40720   0.00000  Uiso   1.00
C172   C     0.79584   0.16224   0.09247   0.00000  Uiso   1.00
C173   C     0.83410   0.16615   0.38360   0.00000  Uiso   1.00
C174   C     0.83325   0.16570   0.11654   0.00000  Uiso   1.00
C175   C     0.79715   0.15847   0.40550   0.00000  Uiso   1.00
C176   C     0.87091   0.16856   0.09495   0.00000  Uiso   1.00
C177   C     0.79728   0.15709   0.45210   0.00000  Uiso   1.00
C178   C     0.87135   0.16853   0.04829   0.00000  Uiso   1.00
C179   C     0.83467   0.16313   0.47657   0.00000  Uiso   1.00
C180   C     0.83412   0.16295   0.02357   0.00000  Uiso   1.00
C181   C     0.87251   0.16888   0.45420   0.00000  Uiso   1.00
C182   C     0.79640   0.15678   0.04582   0.00000  Uiso   1.00
C183   C     0.76097   0.14700   0.47451   0.00000  Uiso   1.00
C184   C     0.90860   0.17159   0.02601   0.00000  Uiso   1.00
C185   C     0.76049   0.14485   0.02074   0.00000  Uiso   1.00
C186   C     0.90978   0.17066   0.47979   0.00000  Uiso   1.00
H187   H     0.73298   0.13812   0.45614   0.00000  Uiso   1.00
H188   H     0.93761   0.17299   0.04440   0.00000  Uiso   1.00
C189   C     0.68781   0.12458   0.25031   0.00000  Uiso   1.00
C190   C     0.97887   0.20881   0.25019   0.00000  Uiso   1.00
C191   C     0.97858   0.12464   0.24910   0.00000  Uiso   1.00
C192   C     0.68811   0.20875   0.25136   0.00000  Uiso   1.00
H193   H     0.70359   0.09163   0.25072   0.00000  Uiso   1.00
H194   H     0.96309   0.24176   0.24981   0.00000  Uiso   1.00
H195   H     0.96256   0.09170   0.24778   0.00000  Uiso   1.00
H196   H     0.70413   0.24169   0.25262   0.00000  Uiso   1.00
C197   C     0.95721   0.16675   0.24944   0.00000  Uiso   1.00
C198   C     0.70947   0.16663   0.25098   0.00000  Uiso   1.00
C199   C     0.81128   0.02439   0.21847   0.00000  Uiso   1.00
C200   C     0.85522   0.30897   0.28159   0.00000  Uiso   1.00
C201   C     0.85535   0.02499   0.28154   0.00000  Uiso   1.00
C202   C     0.81135   0.30834   0.21840   0.00000  Uiso   1.00
N203   N     0.83333   0.28402   0.25000   0.00000  Uiso   1.00
N204   N     0.83333   0.04931   0.25000   0.00000  Uiso   1.00
N205   N     0.90786   0.18364   0.38309   0.00000  Uiso   1.00
O206   O     0.92165   0.15541   0.35304   0.00000  Uiso   1.00
O207   O     0.92612   0.22337   0.38980   0.00000  Uiso   1.00
N208   N     0.75773   0.16986   0.11483   0.00000  Uiso   1.00
O209   O     0.74794   0.14501   0.14895   0.00000  Uiso   1.00
O210   O     0.73325   0.20296   0.10180   0.00000  Uiso   1.00
N211   N     0.75937   0.15337   0.38017   0.00000  Uiso   1.00
O212   O     0.75310   0.11690   0.35523   0.00000  Uiso   1.00
O213   O     0.73116   0.18517   0.38217   0.00000  Uiso   1.00
N214   N     0.90852   0.17254   0.12072   0.00000  Uiso   1.00
O215   O     0.92137   0.13790   0.14473   0.00000  Uiso   1.00
O216   O     0.92878   0.21152   0.12191   0.00000  Uiso   1.00
N217   N     0.72499   0.12505   0.04114   0.00000  Uiso   1.00
O218   O     0.68820   0.13570   0.02678   0.00000  Uiso   1.00
O219   O     0.72947   0.09016   0.06805   0.00000  Uiso   1.00
N220   N     0.94944   0.16785   0.46010   0.00000  Uiso   1.00
O221   O     0.97737   0.19894   0.46987   0.00000  Uiso   1.00
O222   O     0.96007   0.13001   0.43961   0.00000  Uiso   1.00
N223   N     0.78732   0.04778   0.18521   0.00000  Uiso   1.00
O224   O     0.74807   0.05277   0.19102   0.00000  Uiso   1.00
O225   O     0.80119   0.05016   0.14503   0.00000  Uiso   1.00
N226   N     0.87827   0.28559   0.31549   0.00000  Uiso   1.00
O227   O     0.91730   0.27853   0.30995   0.00000  Uiso   1.00
O228   O     0.86403   0.28480   0.35557   0.00000  Uiso   1.00
N229   N     0.87909   0.04901   0.31503   0.00000  Uiso   1.00
O230   O     0.86532   0.05118   0.35529   0.00000  Uiso   1.00
O231   O     0.91815   0.05559   0.30903   0.00000  Uiso   1.00
N232   N     0.78795   0.28429   0.18464   0.00000  Uiso   1.00
O233   O     0.80172   0.28292   0.14436   0.00000  Uiso   1.00
O234   O     0.74906   0.27650   0.19067   0.00000  Uiso   1.00
O235   O     0.10655   0.53958   0.24999   0.00000  Uiso   1.00
O236   O     0.22679   0.46042   0.25000   0.00000  Uiso   1.00
O237   O     0.22679   0.53958   0.25000   0.00000  Uiso   1.00
O238   O     0.10655   0.46042   0.24999   0.00000  Uiso   1.00
C239   C     0.08746   0.49997   0.25061   0.00000  Uiso   1.00
C240   C     0.24588   0.50005   0.24959   0.00000  Uiso   1.00
O241   O     0.16666   0.53960   0.18513   0.00000  Uiso   1.00
O242   O     0.16668   0.46040   0.31487   0.00000  Uiso   1.00
O243   O     0.16668   0.53960   0.31487   0.00000  Uiso   1.00
O244   O     0.16666   0.46040   0.18513   0.00000  Uiso   1.00
C245   C     0.16651   0.49985   0.16469   0.00000  Uiso   1.00
C246   C     0.16688   0.50004   0.33535   0.00000  Uiso   1.00
Cu247  Cu    0.16667   0.54689   0.25000   0.00000  Uiso   1.00
Cu248  Cu    0.16667   0.45311   0.25000   0.00000  Uiso   1.00
C249   C     0.20493   0.50543   0.40720   0.00000  Uiso   1.00
C250   C     0.12918   0.49557   0.09247   0.00000  Uiso   1.00
C251   C     0.16743   0.49949   0.38360   0.00000  Uiso   1.00
C252   C     0.16659   0.49904   0.11654   0.00000  Uiso   1.00
C253   C     0.13049   0.49181   0.40550   0.00000  Uiso   1.00
C254   C     0.20425   0.50190   0.09495   0.00000  Uiso   1.00
C255   C     0.13061   0.49042   0.45210   0.00000  Uiso   1.00
C256   C     0.20468   0.50186   0.04829   0.00000  Uiso   1.00
C257   C     0.16800   0.49646   0.47657   0.00000  Uiso   1.00
C258   C     0.16746   0.49629   0.02357   0.00000  Uiso   1.00
C259   C     0.20584   0.50222   0.45420   0.00000  Uiso   1.00
C260   C     0.12974   0.49012   0.04582   0.00000  Uiso   1.00
C261   C     0.09430   0.48033   0.47451   0.00000  Uiso   1.00
C262   C     0.24193   0.50492   0.02601   0.00000  Uiso   1.00
C263   C     0.09383   0.47818   0.02074   0.00000  Uiso   1.00
C264   C     0.24312   0.50399   0.47979   0.00000  Uiso   1.00
H265   H     0.06631   0.47145   0.45614   0.00000  Uiso   1.00
H266   H     0.27094   0.50632   0.04440   0.00000  Uiso   1.00
C267   C     0.02114   0.45791   0.25031   0.00000  Uiso   1.00
C268   C     0.31221   0.54214   0.25019   0.00000  Uiso   1.00
C269   C     0.31191   0.45797   0.24910   0.00000  Uiso   1.00
C270   C     0.02144   0.54208   0.25136   0.00000  Uiso   1.00
H271   H     0.03692   0.42496   0.25072   0.00000  Uiso   1.00
H272   H     0.29642   0.57510   0.24981   0.00000  Uiso   1.00
H273   H     0.29590   0.42503   0.24778   0.00000  Uiso   1.00
H274   H     0.03746   0.57502   0.25262   0.00000  Uiso   1.00
C275   C     0.29055   0.50008   0.24944   0.00000  Uiso   1.00
C276   C     0.04280   0.49997   0.25098   0.00000  Uiso   1.00
C277   C     0.14461   0.35772   0.21847   0.00000  Uiso   1.00
C278   C     0.18855   0.64230   0.28159   0.00000  Uiso   1.00
C279   C     0.18869   0.35833   0.28154   0.00000  Uiso   1.00
C280   C     0.14469   0.64167   0.21840   0.00000  Uiso   1.00
N281   N     0.16667   0.61736   0.25000   0.00000  Uiso   1.00
N282   N     0.16667   0.38264   0.25000   0.00000  Uiso   1.00
N283   N     0.24119   0.51697   0.38309   0.00000  Uiso   1.00
O284   O     0.25499   0.48874   0.35304   0.00000  Uiso   1.00
O285   O     0.25945   0.55670   0.38980   0.00000  Uiso   1.00
N286   N     0.09107   0.50319   0.11483   0.00000  Uiso   1.00
O287   O     0.08127   0.47834   0.14895   0.00000  Uiso   1.00
O288   O     0.06658   0.53629   0.10180   0.00000  Uiso   1.00
N289   N     0.09270   0.48670   0.38017   0.00000  Uiso   1.00
O290   O     0.08643   0.45023   0.35523   0.00000  Uiso   1.00
O291   O     0.06449   0.51850   0.38217   0.00000  Uiso   1.00
N292   N     0.24185   0.50587   0.12072   0.00000  Uiso   1.00
O293   O     0.25470   0.47124   0.14473   0.00000  Uiso   1.00
O294   O     0.26212   0.54486   0.12191   0.00000  Uiso   1.00
N295   N     0.05833   0.45838   0.04114   0.00000  Uiso   1.00
O296   O     0.02154   0.46904   0.02678   0.00000  Uiso   1.00
O297   O     0.06280   0.42349   0.06805   0.00000  Uiso   1.00
N298   N     0.28277   0.50118   0.46010   0.00000  Uiso   1.00
O299   O     0.31071   0.53227   0.46987   0.00000  Uiso   1.00
O300   O     0.29340   0.46334   0.43961   0.00000  Uiso   1.00
N301   N     0.12066   0.38112   0.18521   0.00000  Uiso   1.00
O302   O     0.08141   0.38611   0.19102   0.00000  Uiso   1.00
O303   O     0.13453   0.38349   0.14503   0.00000  Uiso   1.00
N304   N     0.21160   0.61892   0.31549   0.00000  Uiso   1.00
O305   O     0.25063   0.61186   0.30995   0.00000  Uiso   1.00
O306   O     0.19736   0.61813   0.35557   0.00000  Uiso   1.00
N307   N     0.21242   0.38235   0.31503   0.00000  Uiso   1.00
O308   O     0.19866   0.38451   0.35529   0.00000  Uiso   1.00
O309   O     0.25149   0.38892   0.30903   0.00000  Uiso   1.00
N310   N     0.12128   0.61763   0.18464   0.00000  Uiso   1.00
O311   O     0.13505   0.61625   0.14436   0.00000  Uiso   1.00
O312   O     0.08239   0.60983   0.19067   0.00000  Uiso   1.00
O313   O     0.43988   0.53958   0.24999   0.00000  Uiso   1.00
O314   O     0.56012   0.46042   0.25000   0.00000  Uiso   1.00
O315   O     0.56012   0.53958   0.25000   0.00000  Uiso   1.00
O316   O     0.43988   0.46042   0.24999   0.00000  Uiso   1.00
C317   C     0.42080   0.49997   0.25061   0.00000  Uiso   1.00
C318   C     0.57921   0.50005   0.24959   0.00000  Uiso   1.00
O319   O     0.49999   0.53960   0.18513   0.00000  Uiso   1.00
O320   O     0.50001   0.46040   0.31487   0.00000  Uiso   1.00
O321   O     0.50001   0.53960   0.31487   0.00000  Uiso   1.00
O322   O     0.49999   0.46040   0.18513   0.00000  Uiso   1.00
C323   C     0.49984   0.49985   0.16469   0.00000  Uiso   1.00
C324   C     0.50021   0.50004   0.33535   0.00000  Uiso   1.00
Cu325  Cu    0.50000   0.54689   0.25000   0.00000  Uiso   1.00
Cu326  Cu    0.50000   0.45311   0.25000   0.00000  Uiso   1.00
C327   C     0.53826   0.50543   0.40720   0.00000  Uiso   1.00
C328   C     0.46251   0.49557   0.09247   0.00000  Uiso   1.00
C329   C     0.50077   0.49949   0.38360   0.00000  Uiso   1.00
C330   C     0.49992   0.49904   0.11654   0.00000  Uiso   1.00
C331   C     0.46382   0.49181   0.40550   0.00000  Uiso   1.00
C332   C     0.53758   0.50190   0.09495   0.00000  Uiso   1.00
C333   C     0.46394   0.49042   0.45210   0.00000  Uiso   1.00
C334   C     0.53802   0.50186   0.04829   0.00000  Uiso   1.00
C335   C     0.50134   0.49646   0.47657   0.00000  Uiso   1.00
C336   C     0.50079   0.49629   0.02357   0.00000  Uiso   1.00
C337   C     0.53918   0.50222   0.45420   0.00000  Uiso   1.00
C338   C     0.46307   0.49012   0.04582   0.00000  Uiso   1.00
C339   C     0.42763   0.48033   0.47451   0.00000  Uiso   1.00
C340   C     0.57526   0.50492   0.02601   0.00000  Uiso   1.00
C341   C     0.42716   0.47818   0.02074   0.00000  Uiso   1.00
C342   C     0.57645   0.50399   0.47979   0.00000  Uiso   1.00
H343   H     0.39964   0.47145   0.45614   0.00000  Uiso   1.00
H344   H     0.60427   0.50632   0.04440   0.00000  Uiso   1.00
C345   C     0.35447   0.45791   0.25031   0.00000  Uiso   1.00
C346   C     0.64554   0.54214   0.25019   0.00000  Uiso   1.00
C347   C     0.64525   0.45797   0.24910   0.00000  Uiso   1.00
C348   C     0.35477   0.54208   0.25136   0.00000  Uiso   1.00
H349   H     0.37026   0.42496   0.25072   0.00000  Uiso   1.00
H350   H     0.62975   0.57510   0.24981   0.00000  Uiso   1.00
H351   H     0.62923   0.42503   0.24778   0.00000  Uiso   1.00
H352   H     0.37080   0.57502   0.25262   0.00000  Uiso   1.00
C353   C     0.62388   0.50008   0.24944   0.00000  Uiso   1.00
C354   C     0.37613   0.49997   0.25098   0.00000  Uiso   1.00
C355   C     0.47794   0.35772   0.21847   0.00000  Uiso   1.00
C356   C     0.52188   0.64230   0.28159   0.00000  Uiso   1.00
C357   C     0.52202   0.35833   0.28154   0.00000  Uiso   1.00
C358   C     0.47802   0.64167   0.21840   0.00000  Uiso   1.00
N359   N     0.50000   0.61736   0.25000   0.00000  Uiso   1.00
N360   N     0.50000   0.38264   0.25000   0.00000  Uiso   1.00
N361   N     0.57453   0.51697   0.38309   0.00000  Uiso   1.00
O362   O     0.58832   0.48874   0.35304   0.00000  Uiso   1.00
O363   O     0.59278   0.55670   0.38980   0.00000  Uiso   1.00
N364   N     0.42440   0.50319   0.11483   0.00000  Uiso   1.00
O365   O     0.41460   0.47834   0.14895   0.00000  Uiso   1.00
O366   O     0.39992   0.53629   0.10180   0.00000  Uiso   1.00
N367   N     0.42603   0.48670   0.38017   0.00000  Uiso   1.00
O368   O     0.41976   0.45023   0.35523   0.00000  Uiso   1.00
O369   O     0.39782   0.51850   0.38217   0.00000  Uiso   1.00
N370   N     0.57518   0.50587   0.12072   0.00000  Uiso   1.00
O371   O     0.58804   0.47124   0.14473   0.00000  Uiso   1.00
O372   O     0.59545   0.54486   0.12191   0.00000  Uiso   1.00
N373   N     0.39166   0.45838   0.04114   0.00000  Uiso   1.00
O374   O     0.35487   0.46904   0.02678   0.00000  Uiso   1.00
O375   O     0.39613   0.42349   0.06805   0.00000  Uiso   1.00
N376   N     0.61611   0.50118   0.46010   0.00000  Uiso   1.00
O377   O     0.64404   0.53227   0.46987   0.00000  Uiso   1.00
O378   O     0.62673   0.46334   0.43961   0.00000  Uiso   1.00
N379   N     0.45399   0.38112   0.18521   0.00000  Uiso   1.00
O380   O     0.41474   0.38611   0.19102   0.00000  Uiso   1.00
O381   O     0.46786   0.38349   0.14503   0.00000  Uiso   1.00
N382   N     0.54493   0.61892   0.31549   0.00000  Uiso   1.00
O383   O     0.58396   0.61186   0.30995   0.00000  Uiso   1.00
O384   O     0.53069   0.61813   0.35557   0.00000  Uiso   1.00
N385   N     0.54576   0.38235   0.31503   0.00000  Uiso   1.00
O386   O     0.53199   0.38451   0.35529   0.00000  Uiso   1.00
O387   O     0.58482   0.38892   0.30903   0.00000  Uiso   1.00
N388   N     0.45462   0.61763   0.18464   0.00000  Uiso   1.00
O389   O     0.46839   0.61625   0.14436   0.00000  Uiso   1.00
O390   O     0.41572   0.60983   0.19067   0.00000  Uiso   1.00
O391   O     0.77321   0.53958   0.24999   0.00000  Uiso   1.00
O392   O     0.89345   0.46042   0.25000   0.00000  Uiso   1.00
O393   O     0.89345   0.53958   0.25000   0.00000  Uiso   1.00
O394   O     0.77321   0.46042   0.24999   0.00000  Uiso   1.00
C395   C     0.75413   0.49997   0.25061   0.00000  Uiso   1.00
C396   C     0.91254   0.50005   0.24959   0.00000  Uiso   1.00
O397   O     0.83332   0.53960   0.18513   0.00000  Uiso   1.00
O398   O     0.83334   0.46040   0.31487   0.00000  Uiso   1.00
O399   O     0.83334   0.53960   0.31487   0.00000  Uiso   1.00
O400   O     0.83332   0.46040   0.18513   0.00000  Uiso   1.00
C401   C     0.83317   0.49985   0.16469   0.00000  Uiso   1.00
C402   C     0.83354   0.50004   0.33535   0.00000  Uiso   1.00
Cu403  Cu    0.83333   0.54689   0.25000   0.00000  Uiso   1.00
Cu404  Cu    0.83333   0.45311   0.25000   0.00000  Uiso   1.00
C405   C     0.87159   0.50543   0.40720   0.00000  Uiso   1.00
C406   C     0.79584   0.49557   0.09247   0.00000  Uiso   1.00
C407   C     0.83410   0.49949   0.38360   0.00000  Uiso   1.00
C408   C     0.83325   0.49904   0.11654   0.00000  Uiso   1.00
C409   C     0.79715   0.49181   0.40550   0.00000  Uiso   1.00
C410   C     0.87091   0.50190   0.09495   0.00000  Uiso   1.00
C411   C     0.79728   0.49042   0.45210   0.00000  Uiso   1.00
C412   C     0.87135   0.50186   0.04829   0.00000  Uiso   1.00
C413   C     0.83467   0.49646   0.47657   0.00000  Uiso   1.00
C414   C     0.83412   0.49629   0.02357   0.00000  Uiso   1.00
C415   C     0.87251   0.50222   0.45420   0.00000  Uiso   1.00
C416   C     0.79640   0.49012   0.04582   0.00000  Uiso   1.00
C417   C     0.76097   0.48033   0.47451   0.00000  Uiso   1.00
C418   C     0.90860   0.50492   0.02601   0.00000  Uiso   1.00
C419   C     0.76049   0.47818   0.02074   0.00000  Uiso   1.00
C420   C     0.90978   0.50399   0.47979   0.00000  Uiso   1.00
H421   H     0.73298   0.47145   0.45614   0.00000  Uiso   1.00
H422   H     0.93761   0.50632   0.04440   0.00000  Uiso   1.00
C423   C     0.68781   0.45791   0.25031   0.00000  Uiso   1.00
C424   C     0.97887   0.54214   0.25019   0.00000  Uiso   1.00
C425   C     0.97858   0.45797   0.24910   0.00000  Uiso   1.00
C426   C     0.68811   0.54208   0.25136   0.00000  Uiso   1.00
H427   H     0.70359   0.42496   0.25072   0.00000  Uiso   1.00
H428   H     0.96309   0.57510   0.24981   0.00000  Uiso   1.00
H429   H     0.96256   0.42503   0.24778   0.00000  Uiso   1.00
H430   H     0.70413   0.57502   0.25262   0.00000  Uiso   1.00
C431   C     0.95721   0.50008   0.24944   0.00000  Uiso   1.00
C432   C     0.70947   0.49997   0.25098   0.00000  Uiso   1.00
C433   C     0.81128   0.35772   0.21847   0.00000  Uiso   1.00
C434   C     0.85522   0.64230   0.28159   0.00000  Uiso   1.00
C435   C     0.85535   0.35833   0.28154   0.00000  Uiso   1.00
C436   C     0.81135   0.64167   0.21840   0.00000  Uiso   1.00
N437   N     0.83333   0.61736   0.25000   0.00000  Uiso   1.00
N438   N     0.83333   0.38264   0.25000   0.00000  Uiso   1.00
N439   N     0.90786   0.51697   0.38309   0.00000  Uiso   1.00
O440   O     0.92165   0.48874   0.35304   0.00000  Uiso   1.00
O441   O     0.92612   0.55670   0.38980   0.00000  Uiso   1.00
N442   N     0.75773   0.50319   0.11483   0.00000  Uiso   1.00
O443   O     0.74794   0.47834   0.14895   0.00000  Uiso   1.00
O444   O     0.73325   0.53629   0.10180   0.00000  Uiso   1.00
N445   N     0.75937   0.48670   0.38017   0.00000  Uiso   1.00
O446   O     0.75310   0.45023   0.35523   0.00000  Uiso   1.00
O447   O     0.73116   0.51850   0.38217   0.00000  Uiso   1.00
N448   N     0.90852   0.50587   0.12072   0.00000  Uiso   1.00
O449   O     0.92137   0.47124   0.14473   0.00000  Uiso   1.00
O450   O     0.92878   0.54486   0.12191   0.00000  Uiso   1.00
N451   N     0.72499   0.45838   0.04114   0.00000  Uiso   1.00
O452   O     0.68820   0.46904   0.02678   0.00000  Uiso   1.00
O453   O     0.72947   0.42349   0.06805   0.00000  Uiso   1.00
N454   N     0.94944   0.50118   0.46010   0.00000  Uiso   1.00
O455   O     0.97737   0.53227   0.46987   0.00000  Uiso   1.00
O456   O     0.96007   0.46334   0.43961   0.00000  Uiso   1.00
N457   N     0.78732   0.38112   0.18521   0.00000  Uiso   1.00
O458   O     0.74807   0.38611   0.19102   0.00000  Uiso   1.00
O459   O     0.80119   0.38349   0.14503   0.00000  Uiso   1.00
N460   N     0.87827   0.61892   0.31549   0.00000  Uiso   1.00
O461   O     0.91730   0.61186   0.30995   0.00000  Uiso   1.00
O462   O     0.86403   0.61813   0.35557   0.00000  Uiso   1.00
N463   N     0.87909   0.38235   0.31503   0.00000  Uiso   1.00
O464   O     0.86532   0.38451   0.35529   0.00000  Uiso   1.00
O465   O     0.91815   0.38892   0.30903   0.00000  Uiso   1.00
N466   N     0.78795   0.61763   0.18464   0.00000  Uiso   1.00
O467   O     0.80172   0.61625   0.14436   0.00000  Uiso   1.00
O468   O     0.74906   0.60983   0.19067   0.00000  Uiso   1.00
O469   O     0.10655   0.87291   0.24999   0.00000  Uiso   1.00
O470   O     0.22679   0.79375   0.25000   0.00000  Uiso   1.00
O471   O     0.22679   0.87291   0.25000   0.00000  Uiso   1.00
O472   O     0.10655   0.79375   0.24999   0.00000  Uiso   1.00
C473   C     0.08746   0.83330   0.25061   0.00000  Uiso   1.00
C474   C     0.24588   0.83339   0.24959   0.00000  Uiso   1.00
O475   O     0.16666   0.87293   0.18513   0.00000  Uiso   1.00
O476   O     0.16668   0.79373   0.31487   0.00000  Uiso   1.00
O477   O     0.16668   0.87293   0.31487   0.00000  Uiso   1.00
O478   O     0.16666   0.79373   0.18513   0.00000  Uiso   1.00
C479   C     0.16651   0.83318   0.16469   0.00000  Uiso   1.00
C480   C     0.16688   0.83338   0.33535   0.00000  Uiso   1.00
Cu481  Cu    0.16667   0.88022   0.25000   0.00000  Uiso   1.00
Cu482  Cu    0.16667   0.78645   0.25000   0.00000  Uiso   1.00
C483   C     0.20493   0.83877   0.40720   0.00000  Uiso   1.00
C484   C     0.12918   0.82890   0.09247   0.00000  Uiso   1.00
C485   C     0.16743   0.83282   0.38360   0.00000  Uiso   1.00
C486   C     0.16659   0.83237   0.11654   0.00000  Uiso   1.00
C487   C     0.13049   0.82514   0.40550   0.00000  Uiso   1.00
C488   C     0.20425   0.83523   0.09495   0.00000  Uiso   1.00
C489   C     0.13061   0.82375   0.45210   0.00000  Uiso   1.00
C490   C     0.20468   0.83520   0.04829   0.00000  Uiso   1.00
C491   C     0.16800   0.82979   0.47657   0.00000  Uiso   1.00
C492   C     0.16746   0.82962   0.02357   0.00000  Uiso   1.00
C493   C     0.20584   0.83555   0.45420   0.00000  Uiso   1.00
C494   C     0.12974   0.82345   0.04582   0.00000  Uiso   1.00
C495   C     0.09430   0.81366   0.47451   0.00000  Uiso   1.00
C496   C     0.24193   0.83826   0.02601   0.00000  Uiso   1.00
C497   C     0.09383   0.81151   0.02074   0.00000  Uiso   1.00
C498   C     0.24312   0.83733   0.47979   0.00000  Uiso   1.00
H499   H     0.06631   0.80479   0.45614   0.00000  Uiso   1.00
H500   H     0.27094   0.83965   0.04440   0.00000  Uiso   1.00
C501   C     0.02114   0.79125   0.25031   0.00000  Uiso   1.00
C502   C     0.31221   0.87547   0.25019   0.00000  Uiso   1.00
C503   C     0.31191   0.79130   0.24910   0.00000  Uiso   1.00
C504   C     0.02144   0.87542   0.25136   0.00000  Uiso   1.00
H505   H     0.03692   0.75829   0.25072   0.00000  Uiso   1.00
H506   H     0.29642   0.90843   0.24981   0.00000  Uiso   1.00
H507   H     0.29590   0.75837   0.24778   0.00000  Uiso   1.00
H508   H     0.03746   0.90835   0.25262   0.00000  Uiso   1.00
C509   C     0.29055   0.83341   0.24944   0.00000  Uiso   1.00
C510   C     0.04280   0.83330   0.25098   0.00000  Uiso   1.00
C511   C     0.14461   0.69106   0.21847   0.00000  Uiso   1.00
C512   C     0.18855   0.97563   0.28159   0.00000  Uiso   1.00
C513   C     0.18869   0.69166   0.28154   0.00000  Uiso   1.00
C514   C     0.14469   0.97501   0.21840   0.00000  Uiso   1.00
N515   N     0.16667   0.95069   0.25000   0.00000  Uiso   1.00
N516   N     0.16667   0.71598   0.25000   0.00000  Uiso   1.00
N517   N     0.24119   0.85031   0.38309   0.00000  Uiso   1.00
O518   O     0.25499   0.82207   0.35304   0.00000  Uiso   1.00
O519   O     0.25945   0.89003   0.38980   0.00000  Uiso   1.00
N520   N     0.09107   0.83653   0.11483   0.00000  Uiso   1.00
O521   O     0.08127   0.81167   0.14895   0.00000  Uiso   1.00
O522   O     0.06658   0.86962   0.10180   0.00000  Uiso   1.00
N523   N     0.09270   0.82003   0.38017   0.00000  Uiso   1.00
O524   O     0.08643   0.78356   0.35523   0.00000  Uiso   1.00
O525   O     0.06449   0.85184   0.38217   0.00000  Uiso   1.00
N526   N     0.24185   0.83920   0.12072   0.00000  Uiso   1.00
O527   O     0.25470   0.80457   0.14473   0.00000  Uiso   1.00
O528   O     0.26212   0.87819   0.12191   0.00000  Uiso   1.00
N529   N     0.05833   0.79171   0.04114   0.00000  Uiso   1.00
O530   O     0.02154   0.80237   0.02678   0.00000  Uiso   1.00
O531   O     0.06280   0.75683   0.06805   0.00000  Uiso   1.00
N532   N     0.28277   0.83452   0.46010   0.00000  Uiso   1.00
O533   O     0.31071   0.86560   0.46987   0.00000  Uiso   1.00
O534   O     0.29340   0.79668   0.43961   0.00000  Uiso   1.00
N535   N     0.12066   0.71445   0.18521   0.00000  Uiso   1.00
O536   O     0.08141   0.71944   0.19102   0.00000  Uiso   1.00
O537   O     0.13453   0.71683   0.14503   0.00000  Uiso   1.00
N538   N     0.21160   0.95226   0.31549   0.00000  Uiso   1.00
O539   O     0.25063   0.94519   0.30995   0.00000  Uiso   1.00
O540   O     0.19736   0.95147   0.35557   0.00000  Uiso   1.00
N541   N     0.21242   0.71568   0.31503   0.00000  Uiso   1.00
O542   O     0.19866   0.71785   0.35529   0.00000  Uiso   1.00
O543   O     0.25149   0.72225   0.30903   0.00000  Uiso   1.00
N544   N     0.12128   0.95096   0.18464   0.00000  Uiso   1.00
O545   O     0.13505   0.94958   0.14436   0.00000  Uiso   1.00
O546   O     0.08239   0.94316   0.19067   0.00000  Uiso   1.00
O547   O     0.43988   0.87291   0.24999   0.00000  Uiso   1.00
O548   O     0.56012   0.79375   0.25000   0.00000  Uiso   1.00
O549   O     0.56012   0.87291   0.25000   0.00000  Uiso   1.00
O550   O     0.43988   0.79375   0.24999   0.00000  Uiso   1.00
C551   C     0.42080   0.83330   0.25061   0.00000  Uiso   1.00
C552   C     0.57921   0.83339   0.24959   0.00000  Uiso   1.00
O553   O     0.49999   0.87293   0.18513   0.00000  Uiso   1.00
O554   O     0.50001   0.79373   0.31487   0.00000  Uiso   1.00
O555   O     0.50001   0.87293   0.31487   0.00000  Uiso   1.00
O556   O     0.49999   0.79373   0.18513   0.00000  Uiso   1.00
C557   C     0.49984   0.83318   0.16469   0.00000  Uiso   1.00
C558   C     0.50021   0.83338   0.33535   0.00000  Uiso   1.00
Cu559  Cu    0.50000   0.88022   0.25000   0.00000  Uiso   1.00
Cu560  Cu    0.50000   0.78645   0.25000   0.00000  Uiso   1.00
C561   C     0.53826   0.83877   0.40720   0.00000  Uiso   1.00
C562   C     0.46251   0.82890   0.09247   0.00000  Uiso   1.00
C563   C     0.50077   0.83282   0.38360   0.00000  Uiso   1.00
C564   C     0.49992   0.83237   0.11654   0.00000  Uiso   1.00
C565   C     0.46382   0.82514   0.40550   0.00000  Uiso   1.00
C566   C     0.53758   0.83523   0.09495   0.00000  Uiso   1.00
C567   C     0.46394   0.82375   0.45210   0.00000  Uiso   1.00
C568   C     0.53802   0.83520   0.04829   0.00000  Uiso   1.00
C569   C     0.50134   0.82979   0.47657   0.00000  Uiso   1.00
C570   C     0.50079   0.82962   0.02357   0.00000  Uiso   1.00
C571   C     0.53918   0.83555   0.45420   0.00000  Uiso   1.00
C572   C     0.46307   0.82345   0.04582   0.00000  Uiso   1.00
C573   C     0.42763   0.81366   0.47451   0.00000  Uiso   1.00
C574   C     0.57526   0.83826   0.02601   0.00000  Uiso   1.00
C575   C     0.42716   0.81151   0.02074   0.00000  Uiso   1.00
C576   C     0.57645   0.83733   0.47979   0.00000  Uiso   1.00
H577   H     0.39964   0.80479   0.45614   0.00000  Uiso   1.00
H578   H     0.60427   0.83965   0.04440   0.00000  Uiso   1.00
C579   C     0.35447   0.79125   0.25031   0.00000  Uiso   1.00
C580   C     0.64554   0.87547   0.25019   0.00000  Uiso   1.00
C581   C     0.64525   0.79130   0.24910   0.00000  Uiso   1.00
C582   C     0.35477   0.87542   0.25136   0.00000  Uiso   1.00
H583   H     0.37026   0.75829   0.25072   0.00000  Uiso   1.00
H584   H     0.62975   0.90843   0.24981   0.00000  Uiso   1.00
H585   H     0.62923   0.75837   0.24778   0.00000  Uiso   1.00
H586   H     0.37080   0.90835   0.25262   0.00000  Uiso   1.00
C587   C     0.62388   0.83341   0.24944   0.00000  Uiso   1.00
C588   C     0.37613   0.83330   0.25098   0.00000  Uiso   1.00
C589   C     0.47794   0.69106   0.21847   0.00000  Uiso   1.00
C590   C     0.52188   0.97563   0.28159   0.00000  Uiso   1.00
C591   C     0.52202   0.69166   0.28154   0.00000  Uiso   1.00
C592   C     0.47802   0.97501   0.21840   0.00000  Uiso   1.00
N593   N     0.50000   0.95069   0.25000   0.00000  Uiso   1.00
N594   N     0.50000   0.71598   0.25000   0.00000  Uiso   1.00
N595   N     0.57453   0.85031   0.38309   0.00000  Uiso   1.00
O596   O     0.58832   0.82207   0.35304   0.00000  Uiso   1.00
O597   O     0.59278   0.89003   0.38980   0.00000  Uiso   1.00
N598   N     0.42440   0.83653   0.11483   0.00000  Uiso   1.00
O599   O     0.41460   0.81167   0.14895   0.00000  Uiso   1.00
O600   O     0.39992   0.86962   0.10180   0.00000  Uiso   1.00
N601   N     0.42603   0.82003   0.38017   0.00000  Uiso   1.00
O602   O     0.41976   0.78356   0.35523   0.00000  Uiso   1.00
O603   O     0.39782   0.85184   0.38217   0.00000  Uiso   1.00
N604   N     0.57518   0.83920   0.12072   0.00000  Uiso   1.00
O605   O     0.58804   0.80457   0.14473   0.00000  Uiso   1.00
O606   O     0.59545   0.87819   0.12191   0.00000  Uiso   1.00
N607   N     0.39166   0.79171   0.04114   0.00000  Uiso   1.00
O608   O     0.35487   0.80237   0.02678   0.00000  Uiso   1.00
O609   O     0.39613   0.75683   0.06805   0.00000  Uiso   1.00
N610   N     0.61611   0.83452   0.46010   0.00000  Uiso   1.00
O611   O     0.64404   0.86560   0.46987   0.00000  Uiso   1.00
O612   O     0.62673   0.79668   0.43961   0.00000  Uiso   1.00
N613   N     0.45399   0.71445   0.18521   0.00000  Uiso   1.00
O614   O     0.41474   0.71944   0.19102   0.00000  Uiso   1.00
O615   O     0.46786   0.71683   0.14503   0.00000  Uiso   1.00
N616   N     0.54493   0.95226   0.31549   0.00000  Uiso   1.00
O617   O     0.58396   0.94519   0.30995   0.00000  Uiso   1.00
O618   O     0.53069   0.95147   0.35557   0.00000  Uiso   1.00
N619   N     0.54576   0.71568   0.31503   0.00000  Uiso   1.00
O620   O     0.53199   0.71785   0.35529   0.00000  Uiso   1.00
O621   O     0.58482   0.72225   0.30903   0.00000  Uiso   1.00
N622   N     0.45462   0.95096   0.18464   0.00000  Uiso   1.00
O623   O     0.46839   0.94958   0.14436   0.00000  Uiso   1.00
O624   O     0.41572   0.94316   0.19067   0.00000  Uiso   1.00
O625   O     0.77321   0.87291   0.24999   0.00000  Uiso   1.00
O626   O     0.89345   0.79375   0.25000   0.00000  Uiso   1.00
O627   O     0.89345   0.87291   0.25000   0.00000  Uiso   1.00
O628   O     0.77321   0.79375   0.24999   0.00000  Uiso   1.00
C629   C     0.75413   0.83330   0.25061   0.00000  Uiso   1.00
C630   C     0.91254   0.83339   0.24959   0.00000  Uiso   1.00
O631   O     0.83332   0.87293   0.18513   0.00000  Uiso   1.00
O632   O     0.83334   0.79373   0.31487   0.00000  Uiso   1.00
O633   O     0.83334   0.87293   0.31487   0.00000  Uiso   1.00
O634   O     0.83332   0.79373   0.18513   0.00000  Uiso   1.00
C635   C     0.83317   0.83318   0.16469   0.00000  Uiso   1.00
C636   C     0.83354   0.83338   0.33535   0.00000  Uiso   1.00
Cu637  Cu    0.83333   0.88022   0.25000   0.00000  Uiso   1.00
Cu638  Cu    0.83333   0.78645   0.25000   0.00000  Uiso   1.00
C639   C     0.87159   0.83877   0.40720   0.00000  Uiso   1.00
C640   C     0.79584   0.82890   0.09247   0.00000  Uiso   1.00
C641   C     0.83410   0.83282   0.38360   0.00000  Uiso   1.00
C642   C     0.83325   0.83237   0.11654   0.00000  Uiso   1.00
C643   C     0.79715   0.82514   0.40550   0.00000  Uiso   1.00
C644   C     0.87091   0.83523   0.09495   0.00000  Uiso   1.00
C645   C     0.79728   0.82375   0.45210   0.00000  Uiso   1.00
C646   C     0.87135   0.83520   0.04829   0.00000  Uiso   1.00
C647   C     0.83467   0.82979   0.47657   0.00000  Uiso   1.00
C648   C     0.83412   0.82962   0.02357   0.00000  Uiso   1.00
C649   C     0.87251   0.83555   0.45420   0.00000  Uiso   1.00
C650   C     0.79640   0.82345   0.04582   0.00000  Uiso   1.00
C651   C     0.76097   0.81366   0.47451   0.00000  Uiso   1.00
C652   C     0.90860   0.83826   0.02601   0.00000  Uiso   1.00
C653   C     0.76049   0.81151   0.02074   0.00000  Uiso   1.00
C654   C     0.90978   0.83733   0.47979   0.00000  Uiso   1.00
H655   H     0.73298   0.80479   0.45614   0.00000  Uiso   1.00
H656   H     0.93761   0.83965   0.04440   0.00000  Uiso   1.00
C657   C     0.68781   0.79125   0.25031   0.00000  Uiso   1.00
C658   C     0.97887   0.87547   0.25019   0.00000  Uiso   1.00
C659   C     0.97858   0.79130   0.24910   0.00000  Uiso   1.00
C660   C     0.68811   0.87542   0.25136   0.00000  Uiso   1.00
H661   H     0.70359   0.75829   0.25072   0.00000  Uiso   1.00
H662   H     0.96309   0.90843   0.24981   0.00000  Uiso   1.00
H663   H     0.96256   0.75837   0.24778   0.00000  Uiso   1.00
H664   H     0.70413   0.90835   0.25262   0.00000  Uiso   1.00
C665   C     0.95721   0.83341   0.24944   0.00000  Uiso   1.00
C666   C     0.70947   0.83330   0.25098   0.00000  Uiso   1.00
C667   C     0.81128   0.69106   0.21847   0.00000  Uiso   1.00
C668   C     0.85522   0.97563   0.28159   0.00000  Uiso   1.00
C669   C     0.85535   0.69166   0.28154   0.00000  Uiso   1.00
C670   C     0.81135   0.97501   0.21840   0.00000  Uiso   1.00
N671   N     0.83333   0.95069   0.25000   0.00000  Uiso   1.00
N672   N     0.83333   0.71598   0.25000   0.00000  Uiso   1.00
N673   N     0.90786   0.85031   0.38309   0.00000  Uiso   1.00
O674   O     0.92165   0.82207   0.35304   0.00000  Uiso   1.00
O675   O     0.92612   0.89003   0.38980   0.00000  Uiso   1.00
N676   N     0.75773   0.83653   0.11483   0.00000  Uiso   1.00
O677   O     0.74794   0.81167   0.14895   0.00000  Uiso   1.00
O678   O     0.73325   0.86962   0.10180   0.00000  Uiso   1.00
N679   N     0.75937   0.82003   0.38017   0.00000  Uiso   1.00
O680   O     0.75310   0.78356   0.35523   0.00000  Uiso   1.00
O681   O     0.73116   0.85184   0.38217   0.00000  Uiso   1.00
N682   N     0.90852   0.83920   0.12072   0.00000  Uiso   1.00
O683   O     0.92137   0.80457   0.14473   0.00000  Uiso   1.00
O684   O     0.92878   0.87819   0.12191   0.00000  Uiso   1.00
N685   N     0.72499   0.79171   0.04114   0.00000  Uiso   1.00
O686   O     0.68820   0.80237   0.02678   0.00000  Uiso   1.00
O687   O     0.72947   0.75683   0.06805   0.00000  Uiso   1.00
N688   N     0.94944   0.83452   0.46010   0.00000  Uiso   1.00
O689   O     0.97737   0.86560   0.46987   0.00000  Uiso   1.00
O690   O     0.96007   0.79668   0.43961   0.00000  Uiso   1.00
N691   N     0.78732   0.71445   0.18521   0.00000  Uiso   1.00
O692   O     0.74807   0.71944   0.19102   0.00000  Uiso   1.00
O693   O     0.80119   0.71683   0.14503   0.00000  Uiso   1.00
N694   N     0.87827   0.95226   0.31549   0.00000  Uiso   1.00
O695   O     0.91730   0.94519   0.30995   0.00000  Uiso   1.00
O696   O     0.86403   0.95147   0.35557   0.00000  Uiso   1.00
N697   N     0.87909   0.71568   0.31503   0.00000  Uiso   1.00
O698   O     0.86532   0.71785   0.35529   0.00000  Uiso   1.00
O699   O     0.91815   0.72225   0.30903   0.00000  Uiso   1.00
N700   N     0.78795   0.95096   0.18464   0.00000  Uiso   1.00
O701   O     0.80172   0.94958   0.14436   0.00000  Uiso   1.00
O702   O     0.74906   0.94316   0.19067   0.00000  Uiso   1.00
O703   O     0.10655   0.20625   0.74999   0.00000  Uiso   1.00
O704   O     0.22679   0.12709   0.75000   0.00000  Uiso   1.00
O705   O     0.22679   0.20625   0.75000   0.00000  Uiso   1.00
O706   O     0.10655   0.12709   0.74999   0.00000  Uiso   1.00
C707   C     0.08746   0.16663   0.75061   0.00000  Uiso   1.00
C708   C     0.24588   0.16672   0.74959   0.00000  Uiso   1.00
O709   O     0.16666   0.20627   0.68513   0.00000  Uiso   1.00
O710   O     0.16668   0.12707   0.81487   0.00000  Uiso   1.00
O711   O     0.16668   0.20627   0.81487   0.00000  Uiso   1.00
O712   O     0.16666   0.12707   0.68513   0.00000  Uiso   1.00
C713   C     0.16651   0.16652   0.66469   0.00000  Uiso   1.00
C714   C     0.16688   0.16671   0.83535   0.00000  Uiso   1.00
Cu715  Cu    0.16667   0.21355   0.75000   0.00000  Uiso   1.00
Cu716  Cu    0.16667   0.11978   0.75000   0.00000  Uiso   1.00
C717   C     0.20493   0.17210   0.90720   0.00000  Uiso   1.00
C718   C     0.12918   0.16224   0.59247   0.00000  Uiso   1.00
C719   C     0.16743   0.16615   0.88360   0.00000  Uiso   1.00
C720   C     0.16659   0.16570   0.61654   0.00000  Uiso   1.00
C721   C     0.13049   0.15847   0.90550   0.00000  Uiso   1.00
C722   C     0.20425   0.16856   0.59495   0.00000  Uiso   1.00
C723   C     0.13061   0.15709   0.95210   0.00000  Uiso   1.00
C724   C     0.20468   0.16853   0.54829   0.00000  Uiso   1.00
C725   C     0.16800   0.16313   0.97657   0.00000  Uiso   1.00
C726   C     0.16746   0.16295   0.52357   0.00000  Uiso   1.00
C727   C     0.20584   0.16888   0.95420   0.00000  Uiso   1.00
C728   C     0.12974   0.15678   0.54582   0.00000  Uiso   1.00
C729   C     0.09430   0.14700   0.97451   0.00000  Uiso   1.00
C730   C     0.24193   0.17159   0.52601   0.00000  Uiso   1.00
C731   C     0.09383   0.14485   0.52074   0.00000  Uiso   1.00
C732   C     0.24312   0.17066   0.97979   0.00000  Uiso   1.00
H733   H     0.06631   0.13812   0.95614   0.00000  Uiso   1.00
H734   H     0.27094   0.17299   0.54440   0.00000  Uiso   1.00
C735   C     0.02114   0.12458   0.75031   0.00000  Uiso   1.00
C736   C     0.31221   0.20881   0.75019   0.00000  Uiso   1.00
C737   C     0.31191   0.12464   0.74910   0.00000  Uiso   1.00
C738   C     0.02144   0.20875   0.75136   0.00000  Uiso   1.00
H739   H     0.03692   0.09163   0.75072   0.00000  Uiso   1.00
H740   H     0.29642   0.24176   0.74981   0.00000  Uiso   1.00
H741   H     0.29590   0.09170   0.74778   0.00000  Uiso   1.00
H742   H     0.03746   0.24169   0.75262   0.00000  Uiso   1.00
C743   C     0.29055   0.16675   0.74944   0.00000  Uiso   1.00
C744   C     0.04280   0.16663   0.75098   0.00000  Uiso   1.00
C745   C     0.14461   0.02439   0.71847   0.00000  Uiso   1.00
C746   C     0.18855   0.30897   0.78159   0.00000  Uiso   1.00
C747   C     0.18869   0.02499   0.78154   0.00000  Uiso   1.00
C748   C     0.14469   0.30834   0.71840   0.00000  Uiso   1.00
N749   N     0.16667   0.28402   0.75000   0.00000  Uiso   1.00
N750   N     0.16667   0.04931   0.75000   0.00000  Uiso   1.00
N751   N     0.24119   0.18364   0.88309   0.00000  Uiso   1.00
O752   O     0.25499   0.15541   0.85304   0.00000  Uiso   1.00
O753   O     0.25945   0.22337   0.88980   0.00000  Uiso   1.00
N754   N     0.09107   0.16986   0.61483   0.00000  Uiso   1.00
O755   O     0.08127   0.14501   0.64895   0.00000  Uiso   1.00
O756   O     0.06658   0.20296   0.60180   0.00000  Uiso   1.00
N757   N     0.09270   0.15337   0.88017   0.00000  Uiso   1.00
O758   O     0.08643   0.11690   0.85523   0.00000  Uiso   1.00
O759   O     0.06449   0.18517   0.88217   0.00000  Uiso   1.00
N760   N     0.24185   0.17254   0.62072   0.00000  Uiso   1.00
O761   O     0.25470   0.13790   0.64473   0.00000  Uiso   1.00
O762   O     0.26212   0.21152   0.62191   0.00000  Uiso   1.00
N763   N     0.05833   0.12505   0.54114   0.00000  Uiso   1.00
O764   O     0.02154   0.13570   0.52678   0.00000  Uiso   1.00
O765   O     0.06280   0.09016   0.56805   0.00000  Uiso   1.00
N766   N     0.28277   0.16785   0.96010   0.00000  Uiso   1.00
O767   O     0.31071   0.19894   0.96987   0.00000  Uiso   1.00
O768   O     0.29340   0.13001   0.93961   0.00000  Uiso   1.00
N769   N     0.12066   0.04778   0.68521   0.00000  Uiso   1.00
O770   O     0.08141   0.05277   0.69102   0.00000  Uiso   1.00
O771   O     0.13453   0.05016   0.64503   0.00000  Uiso   1.00
N772   N     0.21160   0.28559   0.81549   0.00000  Uiso   1.00
O773   O     0.25063   0.27853   0.80995   0.00000  Uiso   1.00
O774   O     0.19736   0.28480   0.85557   0.00000  Uiso   1.00
N775   N     0.21242   0.04901   0.81503   0.00000  Uiso   1.00
O776   O     0.19866   0.05118   0.85529   0.00000  Uiso   1.00
O777   O     0.25149   0.05559   0.80903   0.00000  Uiso   1.00
N778   N     0.12128   0.28429   0.68464   0.00000  Uiso   1.00
O779   O     0.13505   0.28292   0.64436   0.00000  Uiso   1.00
O780   O     0.08239   0.27650   0.69067   0.00000  Uiso   1.00
O781   O     0.43988   0.20625   0.74999   0.00000  Uiso   1.00
O782   O     0.56012   0.12709   0.75000   0.00000  Uiso   1.00
O783   O     0.56012   0.20625   0.75000   0.00000  Uiso   1.00
O784   O     0.43988   0.12709   0.74999   0.00000  Uiso   1.00
C785   C     0.42080   0.16663   0.75061   0.00000  Uiso   1.00
C786   C     0.57921   0.16672   0.74959   0.00000  Uiso   1.00
O787   O     0.49999   0.20627   0.68513   0.00000  Uiso   1.00
O788   O     0.50001   0.12707   0.81487   0.00000  Uiso   1.00
O789   O     0.50001   0.20627   0.81487   0.00000  Uiso   1.00
O790   O     0.49999   0.12707   0.68513   0.00000  Uiso   1.00
C791   C     0.49984   0.16652   0.66469   0.00000  Uiso   1.00
C792   C     0.50021   0.16671   0.83535   0.00000  Uiso   1.00
Cu793  Cu    0.50000   0.21355   0.75000   0.00000  Uiso   1.00
Cu794  Cu    0.50000   0.11978   0.75000   0.00000  Uiso   1.00
C795   C     0.53826   0.17210   0.90720   0.00000  Uiso   1.00
C796   C     0.46251   0.16224   0.59247   0.00000  Uiso   1.00
C797   C     0.50077   0.16615   0.88360   0.00000  Uiso   1.00
C798   C     0.49992   0.16570   0.61654   0.00000  Uiso   1.00
C799   C     0.46382   0.15847   0.90550   0.00000  Uiso   1.00
C800   C     0.53758   0.16856   0.59495   0.00000  Uiso   1.00
C801   C     0.46394   0.15709   0.95210   0.00000  Uiso   1.00
C802   C     0.53802   0.16853   0.54829   0.00000  Uiso   1.00
C803   C     0.50134   0.16313   0.97657   0.00000  Uiso   1.00
C804   C     0.50079   0.16295   0.52357   0.00000  Uiso   1.00
C805   C     0.53918   0.16888   0.95420   0.00000  Uiso   1.00
C806   C     0.46307   0.15678   0.54582   0.00000  Uiso   1.00
C807   C     0.42763   0.14700   0.97451   0.00000  Uiso   1.00
C808   C     0.57526   0.17159   0.52601   0.00000  Uiso   1.00
C809   C     0.42716   0.14485   0.52074   0.00000  Uiso   1.00
C810   C     0.57645   0.17066   0.97979   0.00000  Uiso   1.00
H811   H     0.39964   0.13812   0.95614   0.00000  Uiso   1.00
H812   H     0.60427   0.17299   0.54440   0.00000  Uiso   1.00
C813   C     0.35447   0.12458   0.75031   0.00000  Uiso   1.00
C814   C     0.64554   0.20881   0.75019   0.00000  Uiso   1.00
C815   C     0.64525   0.12464   0.74910   0.00000  Uiso   1.00
C816   C     0.35477   0.20875   0.75136   0.00000  Uiso   1.00
H817   H     0.37026   0.09163   0.75072   0.00000  Uiso   1.00
H818   H     0.62975   0.24176   0.74981   0.00000  Uiso   1.00
H819   H     0.62923   0.09170   0.74778   0.00000  Uiso   1.00
H820   H     0.37080   0.24169   0.75262   0.00000  Uiso   1.00
C821   C     0.62388   0.16675   0.74944   0.00000  Uiso   1.00
C822   C     0.37613   0.16663   0.75098   0.00000  Uiso   1.00
C823   C     0.47794   0.02439   0.71847   0.00000  Uiso   1.00
C824   C     0.52188   0.30897   0.78159   0.00000  Uiso   1.00
C825   C     0.52202   0.02499   0.78154   0.00000  Uiso   1.00
C826   C     0.47802   0.30834   0.71840   0.00000  Uiso   1.00
N827   N     0.50000   0.28402   0.75000   0.00000  Uiso   1.00
N828   N     0.50000   0.04931   0.75000   0.00000  Uiso   1.00
N829   N     0.57453   0.18364   0.88309   0.00000  Uiso   1.00
O830   O     0.58832   0.15541   0.85304   0.00000  Uiso   1.00
O831   O     0.59278   0.22337   0.88980   0.00000  Uiso   1.00
N832   N     0.42440   0.16986   0.61483   0.00000  Uiso   1.00
O833   O     0.41460   0.14501   0.64895   0.00000  Uiso   1.00
O834   O     0.39992   0.20296   0.60180   0.00000  Uiso   1.00
N835   N     0.42603   0.15337   0.88017   0.00000  Uiso   1.00
O836   O     0.41976   0.11690   0.85523   0.00000  Uiso   1.00
O837   O     0.39782   0.18517   0.88217   0.00000  Uiso   1.00
N838   N     0.57518   0.17254   0.62072   0.00000  Uiso   1.00
O839   O     0.58804   0.13790   0.64473   0.00000  Uiso   1.00
O840   O     0.59545   0.21152   0.62191   0.00000  Uiso   1.00
N841   N     0.39166   0.12505   0.54114   0.00000  Uiso   1.00
O842   O     0.35487   0.13570   0.52678   0.00000  Uiso   1.00
O843   O     0.39613   0.09016   0.56805   0.00000  Uiso   1.00
N844   N     0.61611   0.16785   0.96010   0.00000  Uiso   1.00
O845   O     0.64404   0.19894   0.96987   0.00000  Uiso   1.00
O846   O     0.62673   0.13001   0.93961   0.00000  Uiso   1.00
N847   N     0.45399   0.04778   0.68521   0.00000  Uiso   1.00
O848   O     0.41474   0.05277   0.69102   0.00000  Uiso   1.00
O849   O     0.46786   0.05016   0.64503   0.00000  Uiso   1.00
N850   N     0.54493   0.28559   0.81549   0.00000  Uiso   1.00
O851   O     0.58396   0.27853   0.80995   0.00000  Uiso   1.00
O852   O     0.53069   0.28480   0.85557   0.00000  Uiso   1.00
N853   N     0.54576   0.04901   0.81503   0.00000  Uiso   1.00
O854   O     0.53199   0.05118   0.85529   0.00000  Uiso   1.00
O855   O     0.58482   0.05559   0.80903   0.00000  Uiso   1.00
N856   N     0.45462   0.28429   0.68464   0.00000  Uiso   1.00
O857   O     0.46839   0.28292   0.64436   0.00000  Uiso   1.00
O858   O     0.41572   0.27650   0.69067   0.00000  Uiso   1.00
O859   O     0.77321   0.20625   0.74999   0.00000  Uiso   1.00
O860   O     0.89345   0.12709   0.75000   0.00000  Uiso   1.00
O861   O     0.89345   0.20625   0.75000   0.00000  Uiso   1.00
O862   O     0.77321   0.12709   0.74999   0.00000  Uiso   1.00
C863   C     0.75413   0.16663   0.75061   0.00000  Uiso   1.00
C864   C     0.91254   0.16672   0.74959   0.00000  Uiso   1.00
O865   O     0.83332   0.20627   0.68513   0.00000  Uiso   1.00
O866   O     0.83334   0.12707   0.81487   0.00000  Uiso   1.00
O867   O     0.83334   0.20627   0.81487   0.00000  Uiso   1.00
O868   O     0.83332   0.12707   0.68513   0.00000  Uiso   1.00
C869   C     0.83317   0.16652   0.66469   0.00000  Uiso   1.00
C870   C     0.83354   0.16671   0.83535   0.00000  Uiso   1.00
Cu871  Cu    0.83333   0.21355   0.75000   0.00000  Uiso   1.00
Cu872  Cu    0.83333   0.11978   0.75000   0.00000  Uiso   1.00
C873   C     0.87159   0.17210   0.90720   0.00000  Uiso   1.00
C874   C     0.79584   0.16224   0.59247   0.00000  Uiso   1.00
C875   C     0.83410   0.16615   0.88360   0.00000  Uiso   1.00
C876   C     0.83325   0.16570   0.61654   0.00000  Uiso   1.00
C877   C     0.79715   0.15847   0.90550   0.00000  Uiso   1.00
C878   C     0.87091   0.16856   0.59495   0.00000  Uiso   1.00
C879   C     0.79728   0.15709   0.95210   0.00000  Uiso   1.00
C880   C     0.87135   0.16853   0.54829   0.00000  Uiso   1.00
C881   C     0.83467   0.16313   0.97657   0.00000  Uiso   1.00
C882   C     0.83412   0.16295   0.52357   0.00000  Uiso   1.00
C883   C     0.87251   0.16888   0.95420   0.00000  Uiso   1.00
C884   C     0.79640   0.15678   0.54582   0.00000  Uiso   1.00
C885   C     0.76097   0.14700   0.97451   0.00000  Uiso   1.00
C886   C     0.90860   0.17159   0.52601   0.00000  Uiso   1.00
C887   C     0.76049   0.14485   0.52074   0.00000  Uiso   1.00
C888   C     0.90978   0.17066   0.97979   0.00000  Uiso   1.00
H889   H     0.73298   0.13812   0.95614   0.00000  Uiso   1.00
H890   H     0.93761   0.17299   0.54440   0.00000  Uiso   1.00
C891   C     0.68781   0.12458   0.75031   0.00000  Uiso   1.00
C892   C     0.97887   0.20881   0.75019   0.00000  Uiso   1.00
C893   C     0.97858   0.12464   0.74910   0.00000  Uiso   1.00
C894   C     0.68811   0.20875   0.75136   0.00000  Uiso   1.00
H895   H     0.70359   0.09163   0.75072   0.00000  Uiso   1.00
H896   H     0.96309   0.24176   0.74981   0.00000  Uiso   1.00
H897   H     0.96256   0.09170   0.74778   0.00000  Uiso   1.00
H898   H     0.70413   0.24169   0.75262   0.00000  Uiso   1.00
C899   C     0.95721   0.16675   0.74944   0.00000  Uiso   1.00
C900   C     0.70947   0.16663   0.75098   0.00000  Uiso   1.00
C901   C     0.81128   0.02439   0.71847   0.00000  Uiso   1.00
C902   C     0.85522   0.30897   0.78159   0.00000  Uiso   1.00
C903   C     0.85535   0.02499   0.78154   0.00000  Uiso   1.00
C904   C     0.81135   0.30834   0.71840   0.00000  Uiso   1.00
N905   N     0.83333   0.28402   0.75000   0.00000  Uiso   1.00
N906   N     0.83333   0.04931   0.75000   0.00000  Uiso   1.00
N907   N     0.90786   0.18364   0.88309   0.00000  Uiso   1.00
O908   O     0.92165   0.15541   0.85304   0.00000  Uiso   1.00
O909   O     0.92612   0.22337   0.88980   0.00000  Uiso   1.00
N910   N     0.75773   0.16986   0.61483   0.00000  Uiso   1.00
O911   O     0.74794   0.14501   0.64895   0.00000  Uiso   1.00
O912   O     0.73325   0.20296   0.60180   0.00000  Uiso   1.00
N913   N     0.75937   0.15337   0.88017   0.00000  Uiso   1.00
O914   O     0.75310   0.11690   0.85523   0.00000  Uiso   1.00
O915   O     0.73116   0.18517   0.88217   0.00000  Uiso   1.00
N916   N     0.90852   0.17254   0.62072   0.00000  Uiso   1.00
O917   O     0.92137   0.13790   0.64473   0.00000  Uiso   1.00
O918   O     0.92878   0.21152   0.62191   0.00000  Uiso   1.00
N919   N     0.72499   0.12505   0.54114   0.00000  Uiso   1.00
O920   O     0.68820   0.13570   0.52678   0.00000  Uiso   1.00
O921   O     0.72947   0.09016   0.56805   0.00000  Uiso   1.00
N922   N     0.94944   0.16785   0.96010   0.00000  Uiso   1.00
O923   O     0.97737   0.19894   0.96987   0.00000  Uiso   1.00
O924   O     0.96007   0.13001   0.93961   0.00000  Uiso   1.00
N925   N     0.78732   0.04778   0.68521   0.00000  Uiso   1.00
O926   O     0.74807   0.05277   0.69102   0.00000  Uiso   1.00
O927   O     0.80119   0.05016   0.64503   0.00000  Uiso   1.00
N928   N     0.87827   0.28559   0.81549   0.00000  Uiso   1.00
O929   O     0.91730   0.27853   0.80995   0.00000  Uiso   1.00
O930   O     0.86403   0.28480   0.85557   0.00000  Uiso   1.00
N931   N     0.87909   0.04901   0.81503   0.00000  Uiso   1.00
O932   O     0.86532   0.05118   0.85529   0.00000  Uiso   1.00
O933   O     0.91815   0.05559   0.80903   0.00000  Uiso   1.00
N934   N     0.78795   0.28429   0.68464   0.00000  Uiso   1.00
O935   O     0.80172   0.28292   0.64436   0.00000  Uiso   1.00
O936   O     0.74906   0.27650   0.69067   0.00000  Uiso   1.00
O937   O     0.10655   0.53958   0.74999   0.00000  Uiso   1.00
O938   O     0.22679   0.46042   0.75000   0.00000  Uiso   1.00
O939   O     0.22679   0.53958   0.75000   0.00000  Uiso   1.00
O940   O     0.10655   0.46042   0.74999   0.00000  Uiso   1.00
C941   C     0.08746   0.49997   0.75061   0.00000  Uiso   1.00
C942   C     0.24588   0.50005   0.74959   0.00000  Uiso   1.00
O943   O     0.16666   0.53960   0.68513   0.00000  Uiso   1.00
O944   O     0.16668   0.46040   0.81487   0.00000  Uiso   1.00
O945   O     0.16668   0.53960   0.81487   0.00000  Uiso   1.00
O946   O     0.16666   0.46040   0.68513   0.00000  Uiso   1.00
C947   C     0.16651   0.49985   0.66469   0.00000  Uiso   1.00
C948   C     0.16688   0.50004   0.83535   0.00000  Uiso   1.00
Cu949  Cu    0.16667   0.54689   0.75000   0.00000  Uiso   1.00
Cu950  Cu    0.16667   0.45311   0.75000   0.00000  Uiso   1.00
C951   C     0.20493   0.50543   0.90720   0.00000  Uiso   1.00
C952   C     0.12918   0.49557   0.59247   0.00000  Uiso   1.00
C953   C     0.16743   0.49949   0.88360   0.00000  Uiso   1.00
C954   C     0.16659   0.49904   0.61654   0.00000  Uiso   1.00
C955   C     0.13049   0.49181   0.90550   0.00000  Uiso   1.00
C956   C     0.20425   0.50190   0.59495   0.00000  Uiso   1.00
C957   C     0.13061   0.49042   0.95210   0.00000  Uiso   1.00
C958   C     0.20468   0.50186   0.54829   0.00000  Uiso   1.00
C959   C     0.16800   0.49646   0.97657   0.00000  Uiso   1.00
C960   C     0.16746   0.49629   0.52357   0.00000  Uiso   1.00
C961   C     0.20584   0.50222   0.95420   0.00000  Uiso   1.00
C962   C     0.12974   0.49012   0.54582   0.00000  Uiso   1.00
C963   C     0.09430   0.48033   0.97451   0.00000  Uiso   1.00
C964   C     0.24193   0.50492   0.52601   0.00000  Uiso   1.00
C965   C     0.09383   0.47818   0.52074   0.00000  Uiso   1.00
C966   C     0.24312   0.50399   0.97979   0.00000  Uiso   1.00
H967   H     0.06631   0.47145   0.95614   0.00000  Uiso   1.00
H968   H     0.27094   0.50632   0.54440   0.00000  Uiso   1.00
C969   C     0.02114   0.45791   0.75031   0.00000  Uiso   1.00
C970   C     0.31221   0.54214   0.75019   0.00000  Uiso   1.00
C971   C     0.31191   0.45797   0.74910   0.00000  Uiso   1.00
C972   C     0.02144   0.54208   0.75136   0.00000  Uiso   1.00
H973   H     0.03692   0.42496   0.75072   0.00000  Uiso   1.00
H974   H     0.29642   0.57510   0.74981   0.00000  Uiso   1.00
H975   H     0.29590   0.42503   0.74778   0.00000  Uiso   1.00
H976   H     0.03746   0.57502   0.75262   0.00000  Uiso   1.00
C977   C     0.29055   0.50008   0.74944   0.00000  Uiso   1.00
C978   C     0.04280   0.49997   0.75098   0.00000  Uiso   1.00
C979   C     0.14461   0.35772   0.71847   0.00000  Uiso   1.00
C980   C     0.18855   0.64230   0.78159   0.00000  Uiso   1.00
C981   C     0.18869   0.35833   0.78154   0.00000  Uiso   1.00
C982   C     0.14469   0.64167   0.71840   0.00000  Uiso   1.00
N983   N     0.16667   0.61736   0.75000   0.00000  Uiso   1.00
N984   N     0.16667   0.38264   0.75000   0.00000  Uiso   1.00
N985   N     0.24119   0.51697   0.88309   0.00000  Uiso   1.00
O986   O     0.25499   0.48874   0.85304   0.00000  Uiso   1.00
O987   O     0.25945   0.55670   0.88980   0.00000  Uiso   1.00
N988   N     0.09107   0.50319   0.61483   0.00000  Uiso   1.00
O989   O     0.08127   0.47834   0.64895   0.00000  Uiso   1.00
O990   O     0.06658   0.53629   0.60180   0.00000  Uiso   1.00
N991   N     0.09270   0.48670   0.88017   0.00000  Uiso   1.00
O992   O     0.08643   0.45023   0.85523   0.00000  Uiso   1.00
O993   O     0.06449   0.51850   0.88217   0.00000  Uiso   1.00
N994   N     0.24185   0.50587   0.62072   0.00000  Uiso   1.00
O995   O     0.25470   0.47124   0.64473   0.00000  Uiso   1.00
O996   O     0.26212   0.54486   0.62191   0.00000  Uiso   1.00
N997   N     0.05833   0.45838   0.54114   0.00000  Uiso   1.00
O998   O     0.02154   0.46904   0.52678   0.00000  Uiso   1.00
O999   O     0.06280   0.42349   0.56805   0.00000  Uiso   1.00
N1000  N     0.28277   0.50118   0.96010   0.00000  Uiso   1.00
O1001  O     0.31071   0.53227   0.96987   0.00000  Uiso   1.00
O1002  O     0.29340   0.46334   0.93961   0.00000  Uiso   1.00
N1003  N     0.12066   0.38112   0.68521   0.00000  Uiso   1.00
O1004  O     0.08141   0.38611   0.69102   0.00000  Uiso   1.00
O1005  O     0.13453   0.38349   0.64503   0.00000  Uiso   1.00
N1006  N     0.21160   0.61892   0.81549   0.00000  Uiso   1.00
O1007  O     0.25063   0.61186   0.80995   0.00000  Uiso   1.00
O1008  O     0.19736   0.61813   0.85557   0.00000  Uiso   1.00
N1009  N     0.21242   0.38235   0.81503   0.00000  Uiso   1.00
O1010  O     0.19866   0.38451   0.85529   0.00000  Uiso   1.00
O1011  O     0.25149   0.38892   0.80903   0.00000  Uiso   1.00
N1012  N     0.12128   0.61763   0.68464   0.00000  Uiso   1.00
O1013  O     0.13505   0.61625   0.64436   0.00000  Uiso   1.00
O1014  O     0.08239   0.60983   0.69067   0.00000  Uiso   1.00
O1015  O     0.43988   0.53958   0.74999   0.00000  Uiso   1.00
O1016  O     0.56012   0.46042   0.75000   0.00000  Uiso   1.00
O1017  O     0.56012   0.53958   0.75000   0.00000  Uiso   1.00
O1018  O     0.43988   0.46042   0.74999   0.00000  Uiso   1.00
C1019  C     0.42080   0.49997   0.75061   0.00000  Uiso   1.00
C1020  C     0.57921   0.50005   0.74959   0.00000  Uiso   1.00
O1021  O     0.49999   0.53960   0.68513   0.00000  Uiso   1.00
O1022  O     0.50001   0.46040   0.81487   0.00000  Uiso   1.00
O1023  O     0.50001   0.53960   0.81487   0.00000  Uiso   1.00
O1024  O     0.49999   0.46040   0.68513   0.00000  Uiso   1.00
C1025  C     0.49984   0.49985   0.66469   0.00000  Uiso   1.00
C1026  C     0.50021   0.50004   0.83535   0.00000  Uiso   1.00
Cu1027 Cu    0.50000   0.54689   0.75000   0.00000  Uiso   1.00
Cu1028 Cu    0.50000   0.45311   0.75000   0.00000  Uiso   1.00
C1029  C     0.53826   0.50543   0.90720   0.00000  Uiso   1.00
C1030  C     0.46251   0.49557   0.59247   0.00000  Uiso   1.00
C1031  C     0.50077   0.49949   0.88360   0.00000  Uiso   1.00
C1032  C     0.49992   0.49904   0.61654   0.00000  Uiso   1.00
C1033  C     0.46382   0.49181   0.90550   0.00000  Uiso   1.00
C1034  C     0.53758   0.50190   0.59495   0.00000  Uiso   1.00
C1035  C     0.46394   0.49042   0.95210   0.00000  Uiso   1.00
C1036  C     0.53802   0.50186   0.54829   0.00000  Uiso   1.00
C1037  C     0.50134   0.49646   0.97657   0.00000  Uiso   1.00
C1038  C     0.50079   0.49629   0.52357   0.00000  Uiso   1.00
C1039  C     0.53918   0.50222   0.95420   0.00000  Uiso   1.00
C1040  C     0.46307   0.49012   0.54582   0.00000  Uiso   1.00
C1041  C     0.42763   0.48033   0.97451   0.00000  Uiso   1.00
C1042  C     0.57526   0.50492   0.52601   0.00000  Uiso   1.00
C1043  C     0.42716   0.47818   0.52074   0.00000  Uiso   1.00
C1044  C     0.57645   0.50399   0.97979   0.00000  Uiso   1.00
H1045  H     0.39964   0.47145   0.95614   0.00000  Uiso   1.00
H1046  H     0.60427   0.50632   0.54440   0.00000  Uiso   1.00
C1047  C     0.35447   0.45791   0.75031   0.00000  Uiso   1.00
C1048  C     0.64554   0.54214   0.75019   0.00000  Uiso   1.00
C1049  C     0.64525   0.45797   0.74910   0.00000  Uiso   1.00
C1050  C     0.35477   0.54208   0.75136   0.00000  Uiso   1.00
H1051  H     0.37026   0.42496   0.75072   0.00000  Uiso   1.00
H1052  H     0.62975   0.57510   0.74981   0.00000  Uiso   1.00
H1053  H     0.62923   0.42503   0.74778   0.00000  Uiso   1.00
H1054  H     0.37080   0.57502   0.75262   0.00000  Uiso   1.00
C1055  C     0.62388   0.50008   0.74944   0.00000  Uiso   1.00
C1056  C     0.37613   0.49997   0.75098   0.00000  Uiso   1.00
C1057  C     0.47794   0.35772   0.71847   0.00000  Uiso   1.00
C1058  C     0.52188   0.64230   0.78159   0.00000  Uiso   1.00
C1059  C     0.52202   0.35833   0.78154   0.00000  Uiso   1.00
C1060  C     0.47802   0.64167   0.71840   0.00000  Uiso   1.00
N1061  N     0.50000   0.61736   0.75000   0.00000  Uiso   1.00
N1062  N     0.50000   0.38264   0.75000   0.00000  Uiso   1.00
N1063  N     0.57453   0.51697   0.88309   0.00000  Uiso   1.00
O1064  O     0.58832   0.48874   0.85304   0.00000  Uiso   1.00
O1065  O     0.59278   0.55670   0.88980   0.00000  Uiso   1.00
N1066  N     0.42440   0.50319   0.61483   0.00000  Uiso   1.00
O1067  O     0.41460   0.47834   0.64895   0.00000  Uiso   1.00
O1068  O     0.39992   0.53629   0.60180   0.00000  Uiso   1.00
N1069  N     0.42603   0.48670   0.88017   0.00000  Uiso   1.00
O1070  O     0.41976   0.45023   0.85523   0.00000  Uiso   1.00
O1071  O     0.39782   0.51850   0.88217   0.00000  Uiso   1.00
N1072  N     0.57518   0.50587   0.62072   0.00000  Uiso   1.00
O1073  O     0.58804   0.47124   0.64473   0.00000  Uiso   1.00
O1074  O     0.59545   0.54486   0.62191   0.00000  Uiso   1.00
N1075  N     0.39166   0.45838   0.54114   0.00000  Uiso   1.00
O1076  O     0.35487   0.46904   0.52678   0.00000  Uiso   1.00
O1077  O     0.39613   0.42349   0.56805   0.00000  Uiso   1.00
N1078  N     0.61611   0.50118   0.96010   0.00000  Uiso   1.00
O1079  O     0.64404   0.53227   0.96987   0.00000  Uiso   1.00
O1080  O     0.62673   0.46334   0.93961   0.00000  Uiso   1.00
N1081  N     0.45399   0.38112   0.68521   0.00000  Uiso   1.00
O1082  O     0.41474   0.38611   0.69102   0.00000  Uiso   1.00
O1083  O     0.46786   0.38349   0.64503   0.00000  Uiso   1.00
N1084  N     0.54493   0.61892   0.81549   0.00000  Uiso   1.00
O1085  O     0.58396   0.61186   0.80995   0.00000  Uiso   1.00
O1086  O     0.53069   0.61813   0.85557   0.00000  Uiso   1.00
N1087  N     0.54576   0.38235   0.81503   0.00000  Uiso   1.00
O1088  O     0.53199   0.38451   0.85529   0.00000  Uiso   1.00
O1089  O     0.58482   0.38892   0.80903   0.00000  Uiso   1.00
N1090  N     0.45462   0.61763   0.68464   0.00000  Uiso   1.00
O1091  O     0.46839   0.61625   0.64436   0.00000  Uiso   1.00
O1092  O     0.41572   0.60983   0.69067   0.00000  Uiso   1.00
O1093  O     0.77321   0.53958   0.74999   0.00000  Uiso   1.00
O1094  O     0.89345   0.46042   0.75000   0.00000  Uiso   1.00
O1095  O     0.89345   0.53958   0.75000   0.00000  Uiso   1.00
O1096  O     0.77321   0.46042   0.74999   0.00000  Uiso   1.00
C1097  C     0.75413   0.49997   0.75061   0.00000  Uiso   1.00
C1098  C     0.91254   0.50005   0.74959   0.00000  Uiso   1.00
O1099  O     0.83332   0.53960   0.68513   0.00000  Uiso   1.00
O1100  O     0.83334   0.46040   0.81487   0.00000  Uiso   1.00
O1101  O     0.83334   0.53960   0.81487   0.00000  Uiso   1.00
O1102  O     0.83332   0.46040   0.68513   0.00000  Uiso   1.00
C1103  C     0.83317   0.49985   0.66469   0.00000  Uiso   1.00
C1104  C     0.83354   0.50004   0.83535   0.00000  Uiso   1.00
Cu1105 Cu    0.83333   0.54689   0.75000   0.00000  Uiso   1.00
Cu1106 Cu    0.83333   0.45311   0.75000   0.00000  Uiso   1.00
C1107  C     0.87159   0.50543   0.90720   0.00000  Uiso   1.00
C1108  C     0.79584   0.49557   0.59247   0.00000  Uiso   1.00
C1109  C     0.83410   0.49949   0.88360   0.00000  Uiso   1.00
C1110  C     0.83325   0.49904   0.61654   0.00000  Uiso   1.00
C1111  C     0.79715   0.49181   0.90550   0.00000  Uiso   1.00
C1112  C     0.87091   0.50190   0.59495   0.00000  Uiso   1.00
C1113  C     0.79728   0.49042   0.95210   0.00000  Uiso   1.00
C1114  C     0.87135   0.50186   0.54829   0.00000  Uiso   1.00
C1115  C     0.83467   0.49646   0.97657   0.00000  Uiso   1.00
C1116  C     0.83412   0.49629   0.52357   0.00000  Uiso   1.00
C1117  C     0.87251   0.50222   0.95420   0.00000  Uiso   1.00
C1118  C     0.79640   0.49012   0.54582   0.00000  Uiso   1.00
C1119  C     0.76097   0.48033   0.97451   0.00000  Uiso   1.00
C1120  C     0.90860   0.50492   0.52601   0.00000  Uiso   1.00
C1121  C     0.76049   0.47818   0.52074   0.00000  Uiso   1.00
C1122  C     0.90978   0.50399   0.97979   0.00000  Uiso   1.00
H1123  H     0.73298   0.47145   0.95614   0.00000  Uiso   1.00
H1124  H     0.93761   0.50632   0.54440   0.00000  Uiso   1.00
C1125  C     0.68781   0.45791   0.75031   0.00000  Uiso   1.00
C1126  C     0.97887   0.54214   0.75019   0.00000  Uiso   1.00
C1127  C     0.97858   0.45797   0.74910   0.00000  Uiso   1.00
C1128  C     0.68811   0.54208   0.75136   0.00000  Uiso   1.00
H1129  H     0.70359   0.42496   0.75072   0.00000  Uiso   1.00
H1130  H     0.96309   0.57510   0.74981   0.00000  Uiso   1.00
H1131  H     0.96256   0.42503   0.74778   0.00000  Uiso   1.00
H1132  H     0.70413   0.57502   0.75262   0.00000  Uiso   1.00
C1133  C     0.95721   0.50008   0.74944   0.00000  Uiso   1.00
C1134  C     0.70947   0.49997   0.75098   0.00000  Uiso   1.00
C1135  C     0.81128   0.35772   0.71847   0.00000  Uiso   1.00
C1136  C     0.85522   0.64230   0.78159   0.00000  Uiso   1.00
C1137  C     0.85535   0.35833   0.78154   0.00000  Uiso   1.00
C1138  C     0.81135   0.64167   0.71840   0.00000  Uiso   1.00
N1139  N     0.83333   0.61736   0.75000   0.00000  Uiso   1.00
N1140  N     0.83333   0.38264   0.75000   0.00000  Uiso   1.00
N1141  N     0.90786   0.51697   0.88309   0.00000  Uiso   1.00
O1142  O     0.92165   0.48874   0.85304   0.00000  Uiso   1.00
O1143  O     0.92612   0.55670   0.88980   0.00000  Uiso   1.00
N1144  N     0.75773   0.50319   0.61483   0.00000  Uiso   1.00
O1145  O     0.74794   0.47834   0.64895   0.00000  Uiso   1.00
O1146  O     0.73325   0.53629   0.60180   0.00000  Uiso   1.00
N1147  N     0.75937   0.48670   0.88017   0.00000  Uiso   1.00
O1148  O     0.75310   0.45023   0.85523   0.00000  Uiso   1.00
O1149  O     0.73116   0.51850   0.88217   0.00000  Uiso   1.00
N1150  N     0.90852   0.50587   0.62072   0.00000  Uiso   1.00
O1151  O     0.92137   0.47124   0.64473   0.00000  Uiso   1.00
O1152  O     0.92878   0.54486   0.62191   0.00000  Uiso   1.00
N1153  N     0.72499   0.45838   0.54114   0.00000  Uiso   1.00
O1154  O     0.68820   0.46904   0.52678   0.00000  Uiso   1.00
O1155  O     0.72947   0.42349   0.56805   0.00000  Uiso   1.00
N1156  N     0.94944   0.50118   0.96010   0.00000  Uiso   1.00
O1157  O     0.97737   0.53227   0.96987   0.00000  Uiso   1.00
O1158  O     0.96007   0.46334   0.93961   0.00000  Uiso   1.00
N1159  N     0.78732   0.38112   0.68521   0.00000  Uiso   1.00
O1160  O     0.74807   0.38611   0.69102   0.00000  Uiso   1.00
O1161  O     0.80119   0.38349   0.64503   0.00000  Uiso   1.00
N1162  N     0.87827   0.61892   0.81549   0.00000  Uiso   1.00
O1163  O     0.91730   0.61186   0.80995   0.00000  Uiso   1.00
O1164  O     0.86403   0.61813   0.85557   0.00000  Uiso   1.00
N1165  N     0.87909   0.38235   0.81503   0.00000  Uiso   1.00
O1166  O     0.86532   0.38451   0.85529   0.00000  Uiso   1.00
O1167  O     0.91815   0.38892   0.80903   0.00000  Uiso   1.00
N1168  N     0.78795   0.61763   0.68464   0.00000  Uiso   1.00
O1169  O     0.80172   0.61625   0.64436   0.00000  Uiso   1.00
O1170  O     0.74906   0.60983   0.69067   0.00000  Uiso   1.00
O1171  O     0.10655   0.87291   0.74999   0.00000  Uiso   1.00
O1172  O     0.22679   0.79375   0.75000   0.00000  Uiso   1.00
O1173  O     0.22679   0.87291   0.75000   0.00000  Uiso   1.00
O1174  O     0.10655   0.79375   0.74999   0.00000  Uiso   1.00
C1175  C     0.08746   0.83330   0.75061   0.00000  Uiso   1.00
C1176  C     0.24588   0.83339   0.74959   0.00000  Uiso   1.00
O1177  O     0.16666   0.87293   0.68513   0.00000  Uiso   1.00
O1178  O     0.16668   0.79373   0.81487   0.00000  Uiso   1.00
O1179  O     0.16668   0.87293   0.81487   0.00000  Uiso   1.00
O1180  O     0.16666   0.79373   0.68513   0.00000  Uiso   1.00
C1181  C     0.16651   0.83318   0.66469   0.00000  Uiso   1.00
C1182  C     0.16688   0.83338   0.83535   0.00000  Uiso   1.00
Cu1183 Cu    0.16667   0.88022   0.75000   0.00000  Uiso   1.00
Cu1184 Cu    0.16667   0.78645   0.75000   0.00000  Uiso   1.00
C1185  C     0.20493   0.83877   0.90720   0.00000  Uiso   1.00
C1186  C     0.12918   0.82890   0.59247   0.00000  Uiso   1.00
C1187  C     0.16743   0.83282   0.88360   0.00000  Uiso   1.00
C1188  C     0.16659   0.83237   0.61654   0.00000  Uiso   1.00
C1189  C     0.13049   0.82514   0.90550   0.00000  Uiso   1.00
C1190  C     0.20425   0.83523   0.59495   0.00000  Uiso   1.00
C1191  C     0.13061   0.82375   0.95210   0.00000  Uiso   1.00
C1192  C     0.20468   0.83520   0.54829   0.00000  Uiso   1.00
C1193  C     0.16800   0.82979   0.97657   0.00000  Uiso   1.00
C1194  C     0.16746   0.82962   0.52357   0.00000  Uiso   1.00
C1195  C     0.20584   0.83555   0.95420   0.00000  Uiso   1.00
C1196  C     0.12974   0.82345   0.54582   0.00000  Uiso   1.00
C1197  C     0.09430   0.81366   0.97451   0.00000  Uiso   1.00
C1198  C     0.24193   0.83826   0.52601   0.00000  Uiso   1.00
C1199  C     0.09383   0.81151   0.52074   0.00000  Uiso   1.00
C1200  C     0.24312   0.83733   0.97979   0.00000  Uiso   1.00
H1201  H     0.06631   0.80479   0.95614   0.00000  Uiso   1.00
H1202  H     0.27094   0.83965   0.54440   0.00000  Uiso   1.00
C1203  C     0.02114   0.79125   0.75031   0.00000  Uiso   1.00
C1204  C     0.31221   0.87547   0.75019   0.00000  Uiso   1.00
C1205  C     0.31191   0.79130   0.74910   0.00000  Uiso   1.00
C1206  C     0.02144   0.87542   0.75136   0.00000  Uiso   1.00
H1207  H     0.03692   0.75829   0.75072   0.00000  Uiso   1.00
H1208  H     0.29642   0.90843   0.74981   0.00000  Uiso   1.00
H1209  H     0.29590   0.75837   0.74778   0.00000  Uiso   1.00
H1210  H     0.03746   0.90835   0.75262   0.00000  Uiso   1.00
C1211  C     0.29055   0.83341   0.74944   0.00000  Uiso   1.00
C1212  C     0.04280   0.83330   0.75098   0.00000  Uiso   1.00
C1213  C     0.14461   0.69106   0.71847   0.00000  Uiso   1.00
C1214  C     0.18855   0.97563   0.78159   0.00000  Uiso   1.00
C1215  C     0.18869   0.69166   0.78154   0.00000  Uiso   1.00
C1216  C     0.14469   0.97501   0.71840   0.00000  Uiso   1.00
N1217  N     0.16667   0.95069   0.75000   0.00000  Uiso   1.00
N1218  N     0.16667   0.71598   0.75000   0.00000  Uiso   1.00
N1219  N     0.24119   0.85031   0.88309   0.00000  Uiso   1.00
O1220  O     0.25499   0.82207   0.85304   0.00000  Uiso   1.00
O1221  O     0.25945   0.89003   0.88980   0.00000  Uiso   1.00
N1222  N     0.09107   0.83653   0.61483   0.00000  Uiso   1.00
O1223  O     0.08127   0.81167   0.64895   0.00000  Uiso   1.00
O1224  O     0.06658   0.86962   0.60180   0.00000  Uiso   1.00
N1225  N     0.09270   0.82003   0.88017   0.00000  Uiso   1.00
O1226  O     0.08643   0.78356   0.85523   0.00000  Uiso   1.00
O1227  O     0.06449   0.85184   0.88217   0.00000  Uiso   1.00
N1228  N     0.24185   0.83920   0.62072   0.00000  Uiso   1.00
O1229  O     0.25470   0.80457   0.64473   0.00000  Uiso   1.00
O1230  O     0.26212   0.87819   0.62191   0.00000  Uiso   1.00
N1231  N     0.05833   0.79171   0.54114   0.00000  Uiso   1.00
O1232  O     0.02154   0.80237   0.52678   0.00000  Uiso   1.00
O1233  O     0.06280   0.75683   0.56805   0.00000  Uiso   1.00
N1234  N     0.28277   0.83452   0.96010   0.00000  Uiso   1.00
O1235  O     0.31071   0.86560   0.96987   0.00000  Uiso   1.00
O1236  O     0.29340   0.79668   0.93961   0.00000  Uiso   1.00
N1237  N     0.12066   0.71445   0.68521   0.00000  Uiso   1.00
O1238  O     0.08141   0.71944   0.69102   0.00000  Uiso   1.00
O1239  O     0.13453   0.71683   0.64503   0.00000  Uiso   1.00
N1240  N     0.21160   0.95226   0.81549   0.00000  Uiso   1.00
O1241  O     0.25063   0.94519   0.80995   0.00000  Uiso   1.00
O1242  O     0.19736   0.95147   0.85557   0.00000  Uiso   1.00
N1243  N     0.21242   0.71568   0.81503   0.00000  Uiso   1.00
O1244  O     0.19866   0.71785   0.85529   0.00000  Uiso   1.00
O1245  O     0.25149   0.72225   0.80903   0.00000  Uiso   1.00
N1246  N     0.12128   0.95096   0.68464   0.00000  Uiso   1.00
O1247  O     0.13505   0.94958   0.64436   0.00000  Uiso   1.00
O1248  O     0.08239   0.94316   0.69067   0.00000  Uiso   1.00
O1249  O     0.43988   0.87291   0.74999   0.00000  Uiso   1.00
O1250  O     0.56012   0.79375   0.75000   0.00000  Uiso   1.00
O1251  O     0.56012   0.87291   0.75000   0.00000  Uiso   1.00
O1252  O     0.43988   0.79375   0.74999   0.00000  Uiso   1.00
C1253  C     0.42080   0.83330   0.75061   0.00000  Uiso   1.00
C1254  C     0.57921   0.83339   0.74959   0.00000  Uiso   1.00
O1255  O     0.49999   0.87293   0.68513   0.00000  Uiso   1.00
O1256  O     0.50001   0.79373   0.81487   0.00000  Uiso   1.00
O1257  O     0.50001   0.87293   0.81487   0.00000  Uiso   1.00
O1258  O     0.49999   0.79373   0.68513   0.00000  Uiso   1.00
C1259  C     0.49984   0.83318   0.66469   0.00000  Uiso   1.00
C1260  C     0.50021   0.83338   0.83535   0.00000  Uiso   1.00
Cu1261 Cu    0.50000   0.88022   0.75000   0.00000  Uiso   1.00
Cu1262 Cu    0.50000   0.78645   0.75000   0.00000  Uiso   1.00
C1263  C     0.53826   0.83877   0.90720   0.00000  Uiso   1.00
C1264  C     0.46251   0.82890   0.59247   0.00000  Uiso   1.00
C1265  C     0.50077   0.83282   0.88360   0.00000  Uiso   1.00
C1266  C     0.49992   0.83237   0.61654   0.00000  Uiso   1.00
C1267  C     0.46382   0.82514   0.90550   0.00000  Uiso   1.00
C1268  C     0.53758   0.83523   0.59495   0.00000  Uiso   1.00
C1269  C     0.46394   0.82375   0.95210   0.00000  Uiso   1.00
C1270  C     0.53802   0.83520   0.54829   0.00000  Uiso   1.00
C1271  C     0.50134   0.82979   0.97657   0.00000  Uiso   1.00
C1272  C     0.50079   0.82962   0.52357   0.00000  Uiso   1.00
C1273  C     0.53918   0.83555   0.95420   0.00000  Uiso   1.00
C1274  C     0.46307   0.82345   0.54582   0.00000  Uiso   1.00
C1275  C     0.42763   0.81366   0.97451   0.00000  Uiso   1.00
C1276  C     0.57526   0.83826   0.52601   0.00000  Uiso   1.00
C1277  C     0.42716   0.81151   0.52074   0.00000  Uiso   1.00
C1278  C     0.57645   0.83733   0.97979   0.00000  Uiso   1.00
H1279  H     0.39964   0.80479   0.95614   0.00000  Uiso   1.00
H1280  H     0.60427   0.83965   0.54440   0.00000  Uiso   1.00
C1281  C     0.35447   0.79125   0.75031   0.00000  Uiso   1.00
C1282  C     0.64554   0.87547   0.75019   0.00000  Uiso   1.00
C1283  C     0.64525   0.79130   0.74910   0.00000  Uiso   1.00
C1284  C     0.35477   0.87542   0.75136   0.00000  Uiso   1.00
H1285  H     0.37026   0.75829   0.75072   0.00000  Uiso   1.00
H1286  H     0.62975   0.90843   0.74981   0.00000  Uiso   1.00
H1287  H     0.62923   0.75837   0.74778   0.00000  Uiso   1.00
H1288  H     0.37080   0.90835   0.75262   0.00000  Uiso   1.00
C1289  C     0.62388   0.83341   0.74944   0.00000  Uiso   1.00
C1290  C     0.37613   0.83330   0.75098   0.00000  Uiso   1.00
C1291  C     0.47794   0.69106   0.71847   0.00000  Uiso   1.00
C1292  C     0.52188   0.97563   0.78159   0.00000  Uiso   1.00
C1293  C     0.52202   0.69166   0.78154   0.00000  Uiso   1.00
C1294  C     0.47802   0.97501   0.71840   0.00000  Uiso   1.00
N1295  N     0.50000   0.95069   0.75000   0.00000  Uiso   1.00
N1296  N     0.50000   0.71598   0.75000   0.00000  Uiso   1.00
N1297  N     0.57453   0.85031   0.88309   0.00000  Uiso   1.00
O1298  O     0.58832   0.82207   0.85304   0.00000  Uiso   1.00
O1299  O     0.59278   0.89003   0.88980   0.00000  Uiso   1.00
N1300  N     0.42440   0.83653   0.61483   0.00000  Uiso   1.00
O1301  O     0.41460   0.81167   0.64895   0.00000  Uiso   1.00
O1302  O     0.39992   0.86962   0.60180   0.00000  Uiso   1.00
N1303  N     0.42603   0.82003   0.88017   0.00000  Uiso   1.00
O1304  O     0.41976   0.78356   0.85523   0.00000  Uiso   1.00
O1305  O     0.39782   0.85184   0.88217   0.00000  Uiso   1.00
N1306  N     0.57518   0.83920   0.62072   0.00000  Uiso   1.00
O1307  O     0.58804   0.80457   0.64473   0.00000  Uiso   1.00
O1308  O     0.59545   0.87819   0.62191   0.00000  Uiso   1.00
N1309  N     0.39166   0.79171   0.54114   0.00000  Uiso   1.00
O1310  O     0.35487   0.80237   0.52678   0.00000  Uiso   1.00
O1311  O     0.39613   0.75683   0.56805   0.00000  Uiso   1.00
N1312  N     0.61611   0.83452   0.96010   0.00000  Uiso   1.00
O1313  O     0.64404   0.86560   0.96987   0.00000  Uiso   1.00
O1314  O     0.62673   0.79668   0.93961   0.00000  Uiso   1.00
N1315  N     0.45399   0.71445   0.68521   0.00000  Uiso   1.00
O1316  O     0.41474   0.71944   0.69102   0.00000  Uiso   1.00
O1317  O     0.46786   0.71683   0.64503   0.00000  Uiso   1.00
N1318  N     0.54493   0.95226   0.81549   0.00000  Uiso   1.00
O1319  O     0.58396   0.94519   0.80995   0.00000  Uiso   1.00
O1320  O     0.53069   0.95147   0.85557   0.00000  Uiso   1.00
N1321  N     0.54576   0.71568   0.81503   0.00000  Uiso   1.00
O1322  O     0.53199   0.71785   0.85529   0.00000  Uiso   1.00
O1323  O     0.58482   0.72225   0.80903   0.00000  Uiso   1.00
N1324  N     0.45462   0.95096   0.68464   0.00000  Uiso   1.00
O1325  O     0.46839   0.94958   0.64436   0.00000  Uiso   1.00
O1326  O     0.41572   0.94316   0.69067   0.00000  Uiso   1.00
O1327  O     0.77321   0.87291   0.74999   0.00000  Uiso   1.00
O1328  O     0.89345   0.79375   0.75000   0.00000  Uiso   1.00
O1329  O     0.89345   0.87291   0.75000   0.00000  Uiso   1.00
O1330  O     0.77321   0.79375   0.74999   0.00000  Uiso   1.00
C1331  C     0.75413   0.83330   0.75061   0.00000  Uiso   1.00
C1332  C     0.91254   0.83339   0.74959   0.00000  Uiso   1.00
O1333  O     0.83332   0.87293   0.68513   0.00000  Uiso   1.00
O1334  O     0.83334   0.79373   0.81487   0.00000  Uiso   1.00
O1335  O     0.83334   0.87293   0.81487   0.00000  Uiso   1.00
O1336  O     0.83332   0.79373   0.68513   0.00000  Uiso   1.00
C1337  C     0.83317   0.83318   0.66469   0.00000  Uiso   1.00
C1338  C     0.83354   0.83338   0.83535   0.00000  Uiso   1.00
Cu1339 Cu    0.83333   0.88022   0.75000   0.00000  Uiso   1.00
Cu1340 Cu    0.83333   0.78645   0.75000   0.00000  Uiso   1.00
C1341  C     0.87159   0.83877   0.90720   0.00000  Uiso   1.00
C1342  C     0.79584   0.82890   0.59247   0.00000  Uiso   1.00
C1343  C     0.83410   0.83282   0.88360   0.00000  Uiso   1.00
C1344  C     0.83325   0.83237   0.61654   0.00000  Uiso   1.00
C1345  C     0.79715   0.82514   0.90550   0.00000  Uiso   1.00
C1346  C     0.87091   0.83523   0.59495   0.00000  Uiso   1.00
C1347  C     0.79728   0.82375   0.95210   0.00000  Uiso   1.00
C1348  C     0.87135   0.83520   0.54829   0.00000  Uiso   1.00
C1349  C     0.83467   0.82979   0.97657   0.00000  Uiso   1.00
C1350  C     0.83412   0.82962   0.52357   0.00000  Uiso   1.00
C1351  C     0.87251   0.83555   0.95420   0.00000  Uiso   1.00
C1352  C     0.79640   0.82345   0.54582   0.00000  Uiso   1.00
C1353  C     0.76097   0.81366   0.97451   0.00000  Uiso   1.00
C1354  C     0.90860   0.83826   0.52601   0.00000  Uiso   1.00
C1355  C     0.76049   0.81151   0.52074   0.00000  Uiso   1.00
C1356  C     0.90978   0.83733   0.97979   0.00000  Uiso   1.00
H1357  H     0.73298   0.80479   0.95614   0.00000  Uiso   1.00
H1358  H     0.93761   0.83965   0.54440   0.00000  Uiso   1.00
C1359  C     0.68781   0.79125   0.75031   0.00000  Uiso   1.00
C1360  C     0.97887   0.87547   0.75019   0.00000  Uiso   1.00
C1361  C     0.97858   0.79130   0.74910   0.00000  Uiso   1.00
C1362  C     0.68811   0.87542   0.75136   0.00000  Uiso   1.00
H1363  H     0.70359   0.75829   0.75072   0.00000  Uiso   1.00
H1364  H     0.96309   0.90843   0.74981   0.00000  Uiso   1.00
H1365  H     0.96256   0.75837   0.74778   0.00000  Uiso   1.00
H1366  H     0.70413   0.90835   0.75262   0.00000  Uiso   1.00
C1367  C     0.95721   0.83341   0.74944   0.00000  Uiso   1.00
C1368  C     0.70947   0.83330   0.75098   0.00000  Uiso   1.00
C1369  C     0.81128   0.69106   0.71847   0.00000  Uiso   1.00
C1370  C     0.85522   0.97563   0.78159   0.00000  Uiso   1.00
C1371  C     0.85535   0.69166   0.78154   0.00000  Uiso   1.00
C1372  C     0.81135   0.97501   0.71840   0.00000  Uiso   1.00
N1373  N     0.83333   0.95069   0.75000   0.00000  Uiso   1.00
N1374  N     0.83333   0.71598   0.75000   0.00000  Uiso   1.00
N1375  N     0.90786   0.85031   0.88309   0.00000  Uiso   1.00
O1376  O     0.92165   0.82207   0.85304   0.00000  Uiso   1.00
O1377  O     0.92612   0.89003   0.88980   0.00000  Uiso   1.00
N1378  N     0.75773   0.83653   0.61483   0.00000  Uiso   1.00
O1379  O     0.74794   0.81167   0.64895   0.00000  Uiso   1.00
O1380  O     0.73325   0.86962   0.60180   0.00000  Uiso   1.00
N1381  N     0.75937   0.82003   0.88017   0.00000  Uiso   1.00
O1382  O     0.75310   0.78356   0.85523   0.00000  Uiso   1.00
O1383  O     0.73116   0.85184   0.88217   0.00000  Uiso   1.00
N1384  N     0.90852   0.83920   0.62072   0.00000  Uiso   1.00
O1385  O     0.92137   0.80457   0.64473   0.00000  Uiso   1.00
O1386  O     0.92878   0.87819   0.62191   0.00000  Uiso   1.00
N1387  N     0.72499   0.79171   0.54114   0.00000  Uiso   1.00
O1388  O     0.68820   0.80237   0.52678   0.00000  Uiso   1.00
O1389  O     0.72947   0.75683   0.56805   0.00000  Uiso   1.00
N1390  N     0.94944   0.83452   0.96010   0.00000  Uiso   1.00
O1391  O     0.97737   0.86560   0.96987   0.00000  Uiso   1.00
O1392  O     0.96007   0.79668   0.93961   0.00000  Uiso   1.00
N1393  N     0.78732   0.71445   0.68521   0.00000  Uiso   1.00
O1394  O     0.74807   0.71944   0.69102   0.00000  Uiso   1.00
O1395  O     0.80119   0.71683   0.64503   0.00000  Uiso   1.00
N1396  N     0.87827   0.95226   0.81549   0.00000  Uiso   1.00
O1397  O     0.91730   0.94519   0.80995   0.00000  Uiso   1.00
O1398  O     0.86403   0.95147   0.85557   0.00000  Uiso   1.00
N1399  N     0.87909   0.71568   0.81503   0.00000  Uiso   1.00
O1400  O     0.86532   0.71785   0.85529   0.00000  Uiso   1.00
O1401  O     0.91815   0.72225   0.80903   0.00000  Uiso   1.00
N1402  N     0.78795   0.95096   0.68464   0.00000  Uiso   1.00
O1403  O     0.80172   0.94958   0.64436   0.00000  Uiso   1.00
O1404  O     0.74906   0.94316   0.69067   0.00000  Uiso   1.00
loop_
_geom_bond_atom_site_label_1
_geom_bond_atom_site_label_2
_geom_bond_distance
_geom_bond_site_symmetry_2
_ccdc_geom_bond_type
O1     C5      1.298   .     A
O1     Cu13    1.964   .     S
O2     C6      1.299   .     A
O2     Cu14    1.964   .     S
O3     C6      1.300   .     A
O3     Cu13    1.966   .     S
O4     C5      1.300   .     A
O4     Cu14    1.966   .     S
C5     C42     1.452   .     S
C6     C41     1.452   .     S
O7     C11     1.297   .     A
O7     Cu13    1.961   .     S
O8     C12     1.295   .     A
O8     Cu14    1.961   .     S
O9     Cu13    1.963   .     S
O9     C12     1.300   .     A
O10    Cu14    1.963   .     S
O10    C11     1.296   .     A
C11    C18     1.448   .     S
C12    C17     1.451   .     S
Cu13   Cu14    2.704   .     S
Cu13   N47     2.032   .     S
Cu14   N48     2.032   .     S
C15    C25     1.417   .     A
C15    C17     1.406   .     A
C15    N49     1.437   .     S
C16    C26     1.411   .     A
C16    N52     1.439   .     S
C16    C18     1.404   .     A
C17    C19     1.400   .     A
C18    C20     1.400   .     A
C19    C21     1.402   .     A
C19    N55     1.437   .     S
C20    C22     1.404   .     A
C20    N58     1.436   .     S
C21    C27     1.402   .     A
C21    C23     1.416   .     A
C22    C28     1.399   .     A
C22    C24     1.414   .     A
C23    C25     1.424   .     A
C23    C726    1.414   .     S
C24    C26     1.421   .     A
C24    C725    1.414   1_554 S
C25    C30     1.421   .     A
C26    C29     1.416   .     A
C27    H31     1.083   .     S
C27    C731    1.392   .     S
C28    H32     1.083   .     S
C28    C732    1.391   1_554 S
C29    N61     1.437   .     S
C29    C729    1.392   1_554 S
C30    N64     1.432   .     S
C30    C730    1.391   .     S
C33    C42     1.400   .     A
C33    H37     1.081   .     S
C33    C191    1.383   1_455 S
C34    C41     1.400   .     A
C34    H38     1.082   .     S
C34    C114    1.383   .     S
C35    C41     1.401   .     A
C35    H39     1.082   .     S
C35    C111    1.383   .     S
C36    C42     1.401   .     A
C36    H40     1.082   .     S
C36    C190    1.383   1_455 S
C43    N48     1.374   .     A
C43    N67     1.428   .     S
C43    C514    1.424   1_545 S
C44    N70     1.426   .     S
C44    N47     1.372   .     A
C44    C279    1.423   .     S
C45    N73     1.429   .     S
C45    N48     1.373   .     A
C45    C512    1.423   1_545 S
C46    N76     1.429   .     S
C46    N47     1.374   .     A
C46    C277    1.424   .     S
N49    O51     1.301   .     A
N49    O50     1.301   .     A
N52    O54     1.301   .     A
N52    O53     1.300   .     A
N55    O56     1.301   .     A
N55    O57     1.301   .     A
N58    O60     1.301   .     A
N58    O59     1.301   .     A
N61    O63     1.302   .     A
N61    O62     1.300   .     A
N64    O66     1.301   .     A
N64    O65     1.301   .     A
N67    O68     1.300   .     A
N67    O69     1.301   .     A
N70    O71     1.299   .     A
N70    O72     1.301   .     A
N73    O74     1.301   .     A
N73    O75     1.300   .     A
N76    O78     1.300   .     A
N76    O77     1.301   .     A
O79    C83     1.298   .     A
O79    Cu91    1.964   .     S
O80    C84     1.299   .     A
O80    Cu92    1.964   .     S
O81    C84     1.300   .     A
O81    Cu91    1.966   .     S
O82    C83     1.300   .     A
O82    Cu92    1.966   .     S
C83    C120    1.452   .     S
C84    C119    1.452   .     S
O85    C89     1.297   .     A
O85    Cu91    1.961   .     S
O86    C90     1.295   .     A
O86    Cu92    1.961   .     S
O87    Cu91    1.963   .     S
O87    C90     1.300   .     A
O88    Cu92    1.963   .     S
O88    C89     1.296   .     A
C89    C96     1.448   .     S
C90    C95     1.451   .     S
Cu91   Cu92    2.704   .     S
Cu91   N125    2.032   .     S
Cu92   N126    2.032   .     S
C93    C103    1.417   .     A
C93    C95     1.406   .     A
C93    N127    1.437   .     S
C94    C104    1.411   .     A
C94    N130    1.439   .     S
C94    C96     1.404   .     A
C95    C97     1.400   .     A
C96    C98     1.400   .     A
C97    C99     1.402   .     A
C97    N133    1.437   .     S
C98    C100    1.404   .     A
C98    N136    1.436   .     S
C99    C105    1.402   .     A
C99    C101    1.416   .     A
C100   C106    1.399   .     A
C100   C102    1.414   .     A
C101   C103    1.424   .     A
C101   C804    1.414   .     S
C102   C104    1.421   .     A
C102   C803    1.414   1_554 S
C103   C108    1.421   .     A
C104   C107    1.416   .     A
C105   H109    1.083   .     S
C105   C809    1.392   .     S
C106   H110    1.083   .     S
C106   C810    1.391   1_554 S
C107   N139    1.437   .     S
C107   C807    1.392   1_554 S
C108   N142    1.432   .     S
C108   C808    1.391   .     S
C111   C120    1.400   .     A
C111   H115    1.081   .     S
C112   C119    1.400   .     A
C112   H116    1.082   .     S
C112   C192    1.383   .     S
C113   C119    1.401   .     A
C113   H117    1.082   .     S
C113   C189    1.383   .     S
C114   C120    1.401   .     A
C114   H118    1.082   .     S
C121   N126    1.374   .     A
C121   N145    1.428   .     S
C121   C592    1.424   1_545 S
C122   N148    1.426   .     S
C122   N125    1.372   .     A
C122   C357    1.423   .     S
C123   N151    1.429   .     S
C123   N126    1.373   .     A
C123   C590    1.423   1_545 S
C124   N154    1.429   .     S
C124   N125    1.374   .     A
C124   C355    1.424   .     S
N127   O129    1.301   .     A
N127   O128    1.301   .     A
N130   O132    1.301   .     A
N130   O131    1.300   .     A
N133   O134    1.301   .     A
N133   O135    1.301   .     A
N136   O138    1.301   .     A
N136   O137    1.301   .     A
N139   O141    1.302   .     A
N139   O140    1.300   .     A
N142   O144    1.301   .     A
N142   O143    1.301   .     A
N145   O146    1.300   .     A
N145   O147    1.301   .     A
N148   O149    1.299   .     A
N148   O150    1.301   .     A
N151   O152    1.301   .     A
N151   O153    1.300   .     A
N154   O156    1.300   .     A
N154   O155    1.301   .     A
O157   C161    1.298   .     A
O157   Cu169   1.964   .     S
O158   C162    1.299   .     A
O158   Cu170   1.964   .     S
O159   C162    1.300   .     A
O159   Cu169   1.966   .     S
O160   C161    1.300   .     A
O160   Cu170   1.966   .     S
C161   C198    1.452   .     S
C162   C197    1.452   .     S
O163   C167    1.297   .     A
O163   Cu169   1.961   .     S
O164   C168    1.295   .     A
O164   Cu170   1.961   .     S
O165   Cu169   1.963   .     S
O165   C168    1.300   .     A
O166   Cu170   1.963   .     S
O166   C167    1.296   .     A
C167   C174    1.448   .     S
C168   C173    1.451   .     S
Cu169  Cu170   2.704   .     S
Cu169  N203    2.032   .     S
Cu170  N204    2.032   .     S
C171   C181    1.417   .     A
C171   C173    1.406   .     A
C171   N205    1.437   .     S
C172   C182    1.411   .     A
C172   N208    1.439   .     S
C172   C174    1.404   .     A
C173   C175    1.400   .     A
C174   C176    1.400   .     A
C175   C177    1.402   .     A
C175   N211    1.437   .     S
C176   C178    1.404   .     A
C176   N214    1.436   .     S
C177   C183    1.402   .     A
C177   C179    1.416   .     A
C178   C184    1.399   .     A
C178   C180    1.414   .     A
C179   C181    1.424   .     A
C179   C882    1.414   .     S
C180   C182    1.421   .     A
C180   C881    1.414   1_554 S
C181   C186    1.421   .     A
C182   C185    1.416   .     A
C183   H187    1.083   .     S
C183   C887    1.392   .     S
C184   H188    1.083   .     S
C184   C888    1.391   1_554 S
C185   N217    1.437   .     S
C185   C885    1.392   1_554 S
C186   N220    1.432   .     S
C186   C886    1.391   .     S
C189   C198    1.400   .     A
C189   H193    1.081   .     S
C190   C197    1.400   .     A
C190   H194    1.082   .     S
C190   C36     1.383   1_655 S
C191   C197    1.401   .     A
C191   H195    1.082   .     S
C191   C33     1.383   1_655 S
C192   C198    1.401   .     A
C192   H196    1.082   .     S
C199   N204    1.374   .     A
C199   N223    1.428   .     S
C199   C670    1.424   1_545 S
C200   N226    1.426   .     S
C200   N203    1.372   .     A
C200   C435    1.423   .     S
C201   N229    1.429   .     S
C201   N204    1.373   .     A
C201   C668    1.423   1_545 S
C202   N232    1.429   .     S
C202   N203    1.374   .     A
C202   C433    1.424   .     S
N205   O207    1.301   .     A
N205   O206    1.301   .     A
N208   O210    1.301   .     A
N208   O209    1.300   .     A
N211   O212    1.301   .     A
N211   O213    1.301   .     A
N214   O216    1.301   .     A
N214   O215    1.301   .     A
N217   O219    1.302   .     A
N217   O218    1.300   .     A
N220   O222    1.301   .     A
N220   O221    1.301   .     A
N223   O224    1.300   .     A
N223   O225    1.301   .     A
N226   O227    1.299   .     A
N226   O228    1.301   .     A
N229   O230    1.301   .     A
N229   O231    1.300   .     A
N232   O234    1.300   .     A
N232   O233    1.301   .     A
O235   C239    1.298   .     A
O235   Cu247   1.964   .     S
O236   C240    1.299   .     A
O236   Cu248   1.964   .     S
O237   C240    1.300   .     A
O237   Cu247   1.966   .     S
O238   C239    1.300   .     A
O238   Cu248   1.966   .     S
C239   C276    1.452   .     S
C240   C275    1.452   .     S
O241   C245    1.297   .     A
O241   Cu247   1.961   .     S
O242   C246    1.295   .     A
O242   Cu248   1.961   .     S
O243   Cu247   1.963   .     S
O243   C246    1.300   .     A
O244   Cu248   1.963   .     S
O244   C245    1.296   .     A
C245   C252    1.448   .     S
C246   C251    1.451   .     S
Cu247  Cu248   2.704   .     S
Cu247  N281    2.032   .     S
Cu248  N282    2.032   .     S
C249   C259    1.417   .     A
C249   C251    1.406   .     A
C249   N283    1.437   .     S
C250   C260    1.411   .     A
C250   N286    1.439   .     S
C250   C252    1.404   .     A
C251   C253    1.400   .     A
C252   C254    1.400   .     A
C253   C255    1.402   .     A
C253   N289    1.437   .     S
C254   C256    1.404   .     A
C254   N292    1.436   .     S
C255   C261    1.402   .     A
C255   C257    1.416   .     A
C256   C262    1.399   .     A
C256   C258    1.414   .     A
C257   C259    1.424   .     A
C257   C960    1.414   .     S
C258   C260    1.421   .     A
C258   C959    1.414   1_554 S
C259   C264    1.421   .     A
C260   C263    1.416   .     A
C261   H265    1.083   .     S
C261   C965    1.392   .     S
C262   H266    1.083   .     S
C262   C966    1.391   1_554 S
C263   N295    1.437   .     S
C263   C963    1.392   1_554 S
C264   N298    1.432   .     S
C264   C964    1.391   .     S
C267   C276    1.400   .     A
C267   H271    1.081   .     S
C267   C425    1.383   1_455 S
C268   C275    1.400   .     A
C268   H272    1.082   .     S
C268   C348    1.383   .     S
C269   C275    1.401   .     A
C269   H273    1.082   .     S
C269   C345    1.383   .     S
C270   C276    1.401   .     A
C270   H274    1.082   .     S
C270   C424    1.383   1_455 S
C277   N282    1.374   .     A
C277   N301    1.428   .     S
C278   N304    1.426   .     S
C278   N281    1.372   .     A
C278   C513    1.423   .     S
C279   N307    1.429   .     S
C279   N282    1.373   .     A
C280   N310    1.429   .     S
C280   N281    1.374   .     A
C280   C511    1.424   .     S
N283   O285    1.301   .     A
N283   O284    1.301   .     A
N286   O288    1.301   .     A
N286   O287    1.300   .     A
N289   O290    1.301   .     A
N289   O291    1.301   .     A
N292   O294    1.301   .     A
N292   O293    1.301   .     A
N295   O297    1.302   .     A
N295   O296    1.300   .     A
N298   O300    1.301   .     A
N298   O299    1.301   .     A
N301   O302    1.300   .     A
N301   O303    1.301   .     A
N304   O305    1.299   .     A
N304   O306    1.301   .     A
N307   O308    1.301   .     A
N307   O309    1.300   .     A
N310   O312    1.300   .     A
N310   O311    1.301   .     A
O313   C317    1.298   .     A
O313   Cu325   1.964   .     S
O314   C318    1.299   .     A
O314   Cu326   1.964   .     S
O315   C318    1.300   .     A
O315   Cu325   1.966   .     S
O316   C317    1.300   .     A
O316   Cu326   1.966   .     S
C317   C354    1.452   .     S
C318   C353    1.452   .     S
O319   C323    1.297   .     A
O319   Cu325   1.961   .     S
O320   C324    1.295   .     A
O320   Cu326   1.961   .     S
O321   Cu325   1.963   .     S
O321   C324    1.300   .     A
O322   Cu326   1.963   .     S
O322   C323    1.296   .     A
C323   C330    1.448   .     S
C324   C329    1.451   .     S
Cu325  Cu326   2.704   .     S
Cu325  N359    2.032   .     S
Cu326  N360    2.032   .     S
C327   C337    1.417   .     A
C327   C329    1.406   .     A
C327   N361    1.437   .     S
C328   C338    1.411   .     A
C328   N364    1.439   .     S
C328   C330    1.404   .     A
C329   C331    1.400   .     A
C330   C332    1.400   .     A
C331   C333    1.402   .     A
C331   N367    1.437   .     S
C332   C334    1.404   .     A
C332   N370    1.436   .     S
C333   C339    1.402   .     A
C333   C335    1.416   .     A
C334   C340    1.399   .     A
C334   C336    1.414   .     A
C335   C337    1.424   .     A
C335   C1038   1.414   .     S
C336   C338    1.421   .     A
C336   C1037   1.414   1_554 S
C337   C342    1.421   .     A
C338   C341    1.416   .     A
C339   H343    1.083   .     S
C339   C1043   1.392   .     S
C340   H344    1.083   .     S
C340   C1044   1.391   1_554 S
C341   N373    1.437   .     S
C341   C1041   1.392   1_554 S
C342   N376    1.432   .     S
C342   C1042   1.391   .     S
C345   C354    1.400   .     A
C345   H349    1.081   .     S
C346   C353    1.400   .     A
C346   H350    1.082   .     S
C346   C426    1.383   .     S
C347   C353    1.401   .     A
C347   H351    1.082   .     S
C347   C423    1.383   .     S
C348   C354    1.401   .     A
C348   H352    1.082   .     S
C355   N360    1.374   .     A
C355   N379    1.428   .     S
C356   N382    1.426   .     S
C356   N359    1.372   .     A
C356   C591    1.423   .     S
C357   N385    1.429   .     S
C357   N360    1.373   .     A
C358   N388    1.429   .     S
C358   N359    1.374   .     A
C358   C589    1.424   .     S
N361   O363    1.301   .     A
N361   O362    1.301   .     A
N364   O366    1.301   .     A
N364   O365    1.300   .     A
N367   O368    1.301   .     A
N367   O369    1.301   .     A
N370   O372    1.301   .     A
N370   O371    1.301   .     A
N373   O375    1.302   .     A
N373   O374    1.300   .     A
N376   O378    1.301   .     A
N376   O377    1.301   .     A
N379   O380    1.300   .     A
N379   O381    1.301   .     A
N382   O383    1.299   .     A
N382   O384    1.301   .     A
N385   O386    1.301   .     A
N385   O387    1.300   .     A
N388   O390    1.300   .     A
N388   O389    1.301   .     A
O391   C395    1.298   .     A
O391   Cu403   1.964   .     S
O392   C396    1.299   .     A
O392   Cu404   1.964   .     S
O393   C396    1.300   .     A
O393   Cu403   1.966   .     S
O394   C395    1.300   .     A
O394   Cu404   1.966   .     S
C395   C432    1.452   .     S
C396   C431    1.452   .     S
O397   C401    1.297   .     A
O397   Cu403   1.961   .     S
O398   C402    1.295   .     A
O398   Cu404   1.961   .     S
O399   Cu403   1.963   .     S
O399   C402    1.300   .     A
O400   Cu404   1.963   .     S
O400   C401    1.296   .     A
C401   C408    1.448   .     S
C402   C407    1.451   .     S
Cu403  Cu404   2.704   .     S
Cu403  N437    2.032   .     S
Cu404  N438    2.032   .     S
C405   C415    1.417   .     A
C405   C407    1.406   .     A
C405   N439    1.437   .     S
C406   C416    1.411   .     A
C406   N442    1.439   .     S
C406   C408    1.404   .     A
C407   C409    1.400   .     A
C408   C410    1.400   .     A
C409   C411    1.402   .     A
C409   N445    1.437   .     S
C410   C412    1.404   .     A
C410   N448    1.436   .     S
C411   C417    1.402   .     A
C411   C413    1.416   .     A
C412   C418    1.399   .     A
C412   C414    1.414   .     A
C413   C415    1.424   .     A
C413   C1116   1.414   .     S
C414   C416    1.421   .     A
C414   C1115   1.414   1_554 S
C415   C420    1.421   .     A
C416   C419    1.416   .     A
C417   H421    1.083   .     S
C417   C1121   1.392   .     S
C418   H422    1.083   .     S
C418   C1122   1.391   1_554 S
C419   N451    1.437   .     S
C419   C1119   1.392   1_554 S
C420   N454    1.432   .     S
C420   C1120   1.391   .     S
C423   C432    1.400   .     A
C423   H427    1.081   .     S
C424   C431    1.400   .     A
C424   H428    1.082   .     S
C424   C270    1.383   1_655 S
C425   C431    1.401   .     A
C425   H429    1.082   .     S
C425   C267    1.383   1_655 S
C426   C432    1.401   .     A
C426   H430    1.082   .     S
C433   N438    1.374   .     A
C433   N457    1.428   .     S
C434   N460    1.426   .     S
C434   N437    1.372   .     A
C434   C669    1.423   .     S
C435   N463    1.429   .     S
C435   N438    1.373   .     A
C436   N466    1.429   .     S
C436   N437    1.374   .     A
C436   C667    1.424   .     S
N439   O441    1.301   .     A
N439   O440    1.301   .     A
N442   O444    1.301   .     A
N442   O443    1.300   .     A
N445   O446    1.301   .     A
N445   O447    1.301   .     A
N448   O450    1.301   .     A
N448   O449    1.301   .     A
N451   O453    1.302   .     A
N451   O452    1.300   .     A
N454   O456    1.301   .     A
N454   O455    1.301   .     A
N457   O458    1.300   .     A
N457   O459    1.301   .     A
N460   O461    1.299   .     A
N460   O462    1.301   .     A
N463   O464    1.301   .     A
N463   O465    1.300   .     A
N466   O468    1.300   .     A
N466   O467    1.301   .     A
O469   C473    1.298   .     A
O469   Cu481   1.964   .     S
O470   C474    1.299   .     A
O470   Cu482   1.964   .     S
O471   C474    1.300   .     A
O471   Cu481   1.966   .     S
O472   C473    1.300   .     A
O472   Cu482   1.966   .     S
C473   C510    1.452   .     S
C474   C509    1.452   .     S
O475   C479    1.297   .     A
O475   Cu481   1.961   .     S
O476   C480    1.295   .     A
O476   Cu482   1.961   .     S
O477   Cu481   1.963   .     S
O477   C480    1.300   .     A
O478   Cu482   1.963   .     S
O478   C479    1.296   .     A
C479   C486    1.448   .     S
C480   C485    1.451   .     S
Cu481  Cu482   2.704   .     S
Cu481  N515    2.032   .     S
Cu482  N516    2.032   .     S
C483   C493    1.417   .     A
C483   C485    1.406   .     A
C483   N517    1.437   .     S
C484   C494    1.411   .     A
C484   N520    1.439   .     S
C484   C486    1.404   .     A
C485   C487    1.400   .     A
C486   C488    1.400   .     A
C487   C489    1.402   .     A
C487   N523    1.437   .     S
C488   C490    1.404   .     A
C488   N526    1.436   .     S
C489   C495    1.402   .     A
C489   C491    1.416   .     A
C490   C496    1.399   .     A
C490   C492    1.414   .     A
C491   C493    1.424   .     A
C491   C1194   1.414   .     S
C492   C494    1.421   .     A
C492   C1193   1.414   1_554 S
C493   C498    1.421   .     A
C494   C497    1.416   .     A
C495   H499    1.083   .     S
C495   C1199   1.392   .     S
C496   H500    1.083   .     S
C496   C1200   1.391   1_554 S
C497   N529    1.437   .     S
C497   C1197   1.392   1_554 S
C498   N532    1.432   .     S
C498   C1198   1.391   .     S
C501   C510    1.400   .     A
C501   H505    1.081   .     S
C501   C659    1.383   1_455 S
C502   C509    1.400   .     A
C502   H506    1.082   .     S
C502   C582    1.383   .     S
C503   C509    1.401   .     A
C503   H507    1.082   .     S
C503   C579    1.383   .     S
C504   C510    1.401   .     A
C504   H508    1.082   .     S
C504   C658    1.383   1_455 S
C511   N516    1.374   .     A
C511   N535    1.428   .     S
C512   N538    1.426   .     S
C512   N515    1.372   .     A
C512   C45     1.423   1_565 S
C513   N541    1.429   .     S
C513   N516    1.373   .     A
C514   N544    1.429   .     S
C514   N515    1.374   .     A
C514   C43     1.424   1_565 S
N517   O519    1.301   .     A
N517   O518    1.301   .     A
N520   O522    1.301   .     A
N520   O521    1.300   .     A
N523   O524    1.301   .     A
N523   O525    1.301   .     A
N526   O528    1.301   .     A
N526   O527    1.301   .     A
N529   O531    1.302   .     A
N529   O530    1.300   .     A
N532   O534    1.301   .     A
N532   O533    1.301   .     A
N535   O536    1.300   .     A
N535   O537    1.301   .     A
N538   O539    1.299   .     A
N538   O540    1.301   .     A
N541   O542    1.301   .     A
N541   O543    1.300   .     A
N544   O546    1.300   .     A
N544   O545    1.301   .     A
O547   C551    1.298   .     A
O547   Cu559   1.964   .     S
O548   C552    1.299   .     A
O548   Cu560   1.964   .     S
O549   C552    1.300   .     A
O549   Cu559   1.966   .     S
O550   C551    1.300   .     A
O550   Cu560   1.966   .     S
C551   C588    1.452   .     S
C552   C587    1.452   .     S
O553   C557    1.297   .     A
O553   Cu559   1.961   .     S
O554   C558    1.295   .     A
O554   Cu560   1.961   .     S
O555   Cu559   1.963   .     S
O555   C558    1.300   .     A
O556   Cu560   1.963   .     S
O556   C557    1.296   .     A
C557   C564    1.448   .     S
C558   C563    1.451   .     S
Cu559  Cu560   2.704   .     S
Cu559  N593    2.032   .     S
Cu560  N594    2.032   .     S
C561   C571    1.417   .     A
C561   C563    1.406   .     A
C561   N595    1.437   .     S
C562   C572    1.411   .     A
C562   N598    1.439   .     S
C562   C564    1.404   .     A
C563   C565    1.400   .     A
C564   C566    1.400   .     A
C565   C567    1.402   .     A
C565   N601    1.437   .     S
C566   C568    1.404   .     A
C566   N604    1.436   .     S
C567   C573    1.402   .     A
C567   C569    1.416   .     A
C568   C574    1.399   .     A
C568   C570    1.414   .     A
C569   C571    1.424   .     A
C569   C1272   1.414   .     S
C570   C572    1.421   .     A
C570   C1271   1.414   1_554 S
C571   C576    1.421   .     A
C572   C575    1.416   .     A
C573   H577    1.083   .     S
C573   C1277   1.392   .     S
C574   H578    1.083   .     S
C574   C1278   1.391   1_554 S
C575   N607    1.437   .     S
C575   C1275   1.392   1_554 S
C576   N610    1.432   .     S
C576   C1276   1.391   .     S
C579   C588    1.400   .     A
C579   H583    1.081   .     S
C580   C587    1.400   .     A
C580   H584    1.082   .     S
C580   C660    1.383   .     S
C581   C587    1.401   .     A
C581   H585    1.082   .     S
C581   C657    1.383   .     S
C582   C588    1.401   .     A
C582   H586    1.082   .     S
C589   N594    1.374   .     A
C589   N613    1.428   .     S
C590   N616    1.426   .     S
C590   N593    1.372   .     A
C590   C123    1.423   1_565 S
C591   N619    1.429   .     S
C591   N594    1.373   .     A
C592   N622    1.429   .     S
C592   N593    1.374   .     A
C592   C121    1.424   1_565 S
N595   O597    1.301   .     A
N595   O596    1.301   .     A
N598   O600    1.301   .     A
N598   O599    1.300   .     A
N601   O602    1.301   .     A
N601   O603    1.301   .     A
N604   O606    1.301   .     A
N604   O605    1.301   .     A
N607   O609    1.302   .     A
N607   O608    1.300   .     A
N610   O612    1.301   .     A
N610   O611    1.301   .     A
N613   O614    1.300   .     A
N613   O615    1.301   .     A
N616   O617    1.299   .     A
N616   O618    1.301   .     A
N619   O620    1.301   .     A
N619   O621    1.300   .     A
N622   O624    1.300   .     A
N622   O623    1.301   .     A
O625   C629    1.298   .     A
O625   Cu637   1.964   .     S
O626   C630    1.299   .     A
O626   Cu638   1.964   .     S
O627   C630    1.300   .     A
O627   Cu637   1.966   .     S
O628   C629    1.300   .     A
O628   Cu638   1.966   .     S
C629   C666    1.452   .     S
C630   C665    1.452   .     S
O631   C635    1.297   .     A
O631   Cu637   1.961   .     S
O632   C636    1.295   .     A
O632   Cu638   1.961   .     S
O633   Cu637   1.963   .     S
O633   C636    1.300   .     A
O634   Cu638   1.963   .     S
O634   C635    1.296   .     A
C635   C642    1.448   .     S
C636   C641    1.451   .     S
Cu637  Cu638   2.704   .     S
Cu637  N671    2.032   .     S
Cu638  N672    2.032   .     S
C639   C649    1.417   .     A
C639   C641    1.406   .     A
C639   N673    1.437   .     S
C640   C650    1.411   .     A
C640   N676    1.439   .     S
C640   C642    1.404   .     A
C641   C643    1.400   .     A
C642   C644    1.400   .     A
C643   C645    1.402   .     A
C643   N679    1.437   .     S
C644   C646    1.404   .     A
C644   N682    1.436   .     S
C645   C651    1.402   .     A
C645   C647    1.416   .     A
C646   C652    1.399   .     A
C646   C648    1.414   .     A
C647   C649    1.424   .     A
C647   C1350   1.414   .     S
C648   C650    1.421   .     A
C648   C1349   1.414   1_554 S
C649   C654    1.421   .     A
C650   C653    1.416   .     A
C651   H655    1.083   .     S
C651   C1355   1.392   .     S
C652   H656    1.083   .     S
C652   C1356   1.391   1_554 S
C653   N685    1.437   .     S
C653   C1353   1.392   1_554 S
C654   N688    1.432   .     S
C654   C1354   1.391   .     S
C657   C666    1.400   .     A
C657   H661    1.081   .     S
C658   C665    1.400   .     A
C658   H662    1.082   .     S
C658   C504    1.383   1_655 S
C659   C665    1.401   .     A
C659   H663    1.082   .     S
C659   C501    1.383   1_655 S
C660   C666    1.401   .     A
C660   H664    1.082   .     S
C667   N672    1.374   .     A
C667   N691    1.428   .     S
C668   N694    1.426   .     S
C668   N671    1.372   .     A
C668   C201    1.423   1_565 S
C669   N697    1.429   .     S
C669   N672    1.373   .     A
C670   N700    1.429   .     S
C670   N671    1.374   .     A
C670   C199    1.424   1_565 S
N673   O675    1.301   .     A
N673   O674    1.301   .     A
N676   O678    1.301   .     A
N676   O677    1.300   .     A
N679   O680    1.301   .     A
N679   O681    1.301   .     A
N682   O684    1.301   .     A
N682   O683    1.301   .     A
N685   O687    1.302   .     A
N685   O686    1.300   .     A
N688   O690    1.301   .     A
N688   O689    1.301   .     A
N691   O692    1.300   .     A
N691   O693    1.301   .     A
N694   O695    1.299   .     A
N694   O696    1.301   .     A
N697   O698    1.301   .     A
N697   O699    1.300   .     A
N700   O702    1.300   .     A
N700   O701    1.301   .     A
O703   C707    1.298   .     A
O703   Cu715   1.964   .     S
O704   C708    1.299   .     A
O704   Cu716   1.964   .     S
O705   C708    1.300   .     A
O705   Cu715   1.966   .     S
O706   C707    1.300   .     A
O706   Cu716   1.966   .     S
C707   C744    1.452   .     S
C708   C743    1.452   .     S
O709   C713    1.297   .     A
O709   Cu715   1.961   .     S
O710   C714    1.295   .     A
O710   Cu716   1.961   .     S
O711   Cu715   1.963   .     S
O711   C714    1.300   .     A
O712   Cu716   1.963   .     S
O712   C713    1.296   .     A
C713   C720    1.448   .     S
C714   C719    1.451   .     S
Cu715  Cu716   2.704   .     S
Cu715  N749    2.032   .     S
Cu716  N750    2.032   .     S
C717   C727    1.417   .     A
C717   C719    1.406   .     A
C717   N751    1.437   .     S
C718   C728    1.411   .     A
C718   N754    1.439   .     S
C718   C720    1.404   .     A
C719   C721    1.400   .     A
C720   C722    1.400   .     A
C721   C723    1.402   .     A
C721   N757    1.437   .     S
C722   C724    1.404   .     A
C722   N760    1.436   .     S
C723   C729    1.402   .     A
C723   C725    1.416   .     A
C724   C730    1.399   .     A
C724   C726    1.414   .     A
C725   C727    1.424   .     A
C725   C24     1.414   1_556 S
C726   C728    1.421   .     A
C727   C732    1.421   .     A
C728   C731    1.416   .     A
C729   H733    1.083   .     S
C729   C29     1.392   1_556 S
C730   H734    1.083   .     S
C731   N763    1.437   .     S
C732   N766    1.432   .     S
C732   C28     1.391   1_556 S
C735   C744    1.400   .     A
C735   H739    1.081   .     S
C735   C893    1.383   1_455 S
C736   C743    1.400   .     A
C736   H740    1.082   .     S
C736   C816    1.383   .     S
C737   C743    1.401   .     A
C737   H741    1.082   .     S
C737   C813    1.383   .     S
C738   C744    1.401   .     A
C738   H742    1.082   .     S
C738   C892    1.383   1_455 S
C745   N750    1.374   .     A
C745   N769    1.428   .     S
C745   C1216   1.424   1_545 S
C746   N772    1.426   .     S
C746   N749    1.372   .     A
C746   C981    1.423   .     S
C747   N775    1.429   .     S
C747   N750    1.373   .     A
C747   C1214   1.423   1_545 S
C748   N778    1.429   .     S
C748   N749    1.374   .     A
C748   C979    1.424   .     S
N751   O753    1.301   .     A
N751   O752    1.301   .     A
N754   O756    1.301   .     A
N754   O755    1.300   .     A
N757   O758    1.301   .     A
N757   O759    1.301   .     A
N760   O762    1.301   .     A
N760   O761    1.301   .     A
N763   O765    1.302   .     A
N763   O764    1.300   .     A
N766   O768    1.301   .     A
N766   O767    1.301   .     A
N769   O770    1.300   .     A
N769   O771    1.301   .     A
N772   O773    1.299   .     A
N772   O774    1.301   .     A
N775   O776    1.301   .     A
N775   O777    1.300   .     A
N778   O780    1.300   .     A
N778   O779    1.301   .     A
O781   C785    1.298   .     A
O781   Cu793   1.964   .     S
O782   C786    1.299   .     A
O782   Cu794   1.964   .     S
O783   C786    1.300   .     A
O783   Cu793   1.966   .     S
O784   C785    1.300   .     A
O784   Cu794   1.966   .     S
C785   C822    1.452   .     S
C786   C821    1.452   .     S
O787   C791    1.297   .     A
O787   Cu793   1.961   .     S
O788   C792    1.295   .     A
O788   Cu794   1.961   .     S
O789   Cu793   1.963   .     S
O789   C792    1.300   .     A
O790   Cu794   1.963   .     S
O790   C791    1.296   .     A
C791   C798    1.448   .     S
C792   C797    1.451   .     S
Cu793  Cu794   2.704   .     S
Cu793  N827    2.032   .     S
Cu794  N828    2.032   .     S
C795   C805    1.417   .     A
C795   C797    1.406   .     A
C795   N829    1.437   .     S
C796   C806    1.411   .     A
C796   N832    1.439   .     S
C796   C798    1.404   .     A
C797   C799    1.400   .     A
C798   C800    1.400   .     A
C799   C801    1.402   .     A
C799   N835    1.437   .     S
C800   C802    1.404   .     A
C800   N838    1.436   .     S
C801   C807    1.402   .     A
C801   C803    1.416   .     A
C802   C808    1.399   .     A
C802   C804    1.414   .     A
C803   C805    1.424   .     A
C803   C102    1.414   1_556 S
C804   C806    1.421   .     A
C805   C810    1.421   .     A
C806   C809    1.416   .     A
C807   H811    1.083   .     S
C807   C107    1.392   1_556 S
C808   H812    1.083   .     S
C809   N841    1.437   .     S
C810   N844    1.432   .     S
C810   C106    1.391   1_556 S
C813   C822    1.400   .     A
C813   H817    1.081   .     S
C814   C821    1.400   .     A
C814   H818    1.082   .     S
C814   C894    1.383   .     S
C815   C821    1.401   .     A
C815   H819    1.082   .     S
C815   C891    1.383   .     S
C816   C822    1.401   .     A
C816   H820    1.082   .     S
C823   N828    1.374   .     A
C823   N847    1.428   .     S
C823   C1294   1.424   1_545 S
C824   N850    1.426   .     S
C824   N827    1.372   .     A
C824   C1059   1.423   .     S
C825   N853    1.429   .     S
C825   N828    1.373   .     A
C825   C1292   1.423   1_545 S
C826   N856    1.429   .     S
C826   N827    1.374   .     A
C826   C1057   1.424   .     S
N829   O831    1.301   .     A
N829   O830    1.301   .     A
N832   O834    1.301   .     A
N832   O833    1.300   .     A
N835   O836    1.301   .     A
N835   O837    1.301   .     A
N838   O840    1.301   .     A
N838   O839    1.301   .     A
N841   O843    1.302   .     A
N841   O842    1.300   .     A
N844   O846    1.301   .     A
N844   O845    1.301   .     A
N847   O848    1.300   .     A
N847   O849    1.301   .     A
N850   O851    1.299   .     A
N850   O852    1.301   .     A
N853   O854    1.301   .     A
N853   O855    1.300   .     A
N856   O858    1.300   .     A
N856   O857    1.301   .     A
O859   C863    1.298   .     A
O859   Cu871   1.964   .     S
O860   C864    1.299   .     A
O860   Cu872   1.964   .     S
O861   C864    1.300   .     A
O861   Cu871   1.966   .     S
O862   C863    1.300   .     A
O862   Cu872   1.966   .     S
C863   C900    1.452   .     S
C864   C899    1.452   .     S
O865   C869    1.297   .     A
O865   Cu871   1.961   .     S
O866   C870    1.295   .     A
O866   Cu872   1.961   .     S
O867   Cu871   1.963   .     S
O867   C870    1.300   .     A
O868   Cu872   1.963   .     S
O868   C869    1.296   .     A
C869   C876    1.448   .     S
C870   C875    1.451   .     S
Cu871  Cu872   2.704   .     S
Cu871  N905    2.032   .     S
Cu872  N906    2.032   .     S
C873   C883    1.417   .     A
C873   C875    1.406   .     A
C873   N907    1.437   .     S
C874   C884    1.411   .     A
C874   N910    1.439   .     S
C874   C876    1.404   .     A
C875   C877    1.400   .     A
C876   C878    1.400   .     A
C877   C879    1.402   .     A
C877   N913    1.437   .     S
C878   C880    1.404   .     A
C878   N916    1.436   .     S
C879   C885    1.402   .     A
C879   C881    1.416   .     A
C880   C886    1.399   .     A
C880   C882    1.414   .     A
C881   C883    1.424   .     A
C881   C180    1.414   1_556 S
C882   C884    1.421   .     A
C883   C888    1.421   .     A
C884   C887    1.416   .     A
C885   H889    1.083   .     S
C885   C185    1.392   1_556 S
C886   H890    1.083   .     S
C887   N919    1.437   .     S
C888   N922    1.432   .     S
C888   C184    1.391   1_556 S
C891   C900    1.400   .     A
C891   H895    1.081   .     S
C892   C899    1.400   .     A
C892   H896    1.082   .     S
C892   C738    1.383   1_655 S
C893   C899    1.401   .     A
C893   H897    1.082   .     S
C893   C735    1.383   1_655 S
C894   C900    1.401   .     A
C894   H898    1.082   .     S
C901   N906    1.374   .     A
C901   N925    1.428   .     S
C901   C1372   1.424   1_545 S
C902   N928    1.426   .     S
C902   N905    1.372   .     A
C902   C1137   1.423   .     S
C903   N931    1.429   .     S
C903   N906    1.373   .     A
C903   C1370   1.423   1_545 S
C904   N934    1.429   .     S
C904   N905    1.374   .     A
C904   C1135   1.424   .     S
N907   O909    1.301   .     A
N907   O908    1.301   .     A
N910   O912    1.301   .     A
N910   O911    1.300   .     A
N913   O914    1.301   .     A
N913   O915    1.301   .     A
N916   O918    1.301   .     A
N916   O917    1.301   .     A
N919   O921    1.302   .     A
N919   O920    1.300   .     A
N922   O924    1.301   .     A
N922   O923    1.301   .     A
N925   O926    1.300   .     A
N925   O927    1.301   .     A
N928   O929    1.299   .     A
N928   O930    1.301   .     A
N931   O932    1.301   .     A
N931   O933    1.300   .     A
N934   O936    1.300   .     A
N934   O935    1.301   .     A
O937   C941    1.298   .     A
O937   Cu949   1.964   .     S
O938   C942    1.299   .     A
O938   Cu950   1.964   .     S
O939   C942    1.300   .     A
O939   Cu949   1.966   .     S
O940   C941    1.300   .     A
O940   Cu950   1.966   .     S
C941   C978    1.452   .     S
C942   C977    1.452   .     S
O943   C947    1.297   .     A
O943   Cu949   1.961   .     S
O944   C948    1.295   .     A
O944   Cu950   1.961   .     S
O945   Cu949   1.963   .     S
O945   C948    1.300   .     A
O946   Cu950   1.963   .     S
O946   C947    1.296   .     A
C947   C954    1.448   .     S
C948   C953    1.451   .     S
Cu949  Cu950   2.704   .     S
Cu949  N983    2.032   .     S
Cu950  N984    2.032   .     S
C951   C961    1.417   .     A
C951   C953    1.406   .     A
C951   N985    1.437   .     S
C952   C962    1.411   .     A
C952   N988    1.439   .     S
C952   C954    1.404   .     A
C953   C955    1.400   .     A
C954   C956    1.400   .     A
C955   C957    1.402   .     A
C955   N991    1.437   .     S
C956   C958    1.404   .     A
C956   N994    1.436   .     S
C957   C963    1.402   .     A
C957   C959    1.416   .     A
C958   C964    1.399   .     A
C958   C960    1.414   .     A
C959   C961    1.424   .     A
C959   C258    1.414   1_556 S
C960   C962    1.421   .     A
C961   C966    1.421   .     A
C962   C965    1.416   .     A
C963   H967    1.083   .     S
C963   C263    1.392   1_556 S
C964   H968    1.083   .     S
C965   N997    1.437   .     S
C966   N1000   1.432   .     S
C966   C262    1.391   1_556 S
C969   C978    1.400   .     A
C969   H973    1.081   .     S
C969   C1127   1.383   1_455 S
C970   C977    1.400   .     A
C970   H974    1.082   .     S
C970   C1050   1.383   .     S
C971   C977    1.401   .     A
C971   H975    1.082   .     S
C971   C1047   1.383   .     S
C972   C978    1.401   .     A
C972   H976    1.082   .     S
C972   C1126   1.383   1_455 S
C979   N984    1.374   .     A
C979   N1003   1.428   .     S
C980   N1006   1.426   .     S
C980   N983    1.372   .     A
C980   C1215   1.423   .     S
C981   N1009   1.429   .     S
C981   N984    1.373   .     A
C982   N1012   1.429   .     S
C982   N983    1.374   .     A
C982   C1213   1.424   .     S
N985   O987    1.301   .     A
N985   O986    1.301   .     A
N988   O990    1.301   .     A
N988   O989    1.300   .     A
N991   O992    1.301   .     A
N991   O993    1.301   .     A
N994   O996    1.301   .     A
N994   O995    1.301   .     A
N997   O999    1.302   .     A
N997   O998    1.300   .     A
N1000  O1002   1.301   .     A
N1000  O1001   1.301   .     A
N1003  O1004   1.300   .     A
N1003  O1005   1.301   .     A
N1006  O1007   1.299   .     A
N1006  O1008   1.301   .     A
N1009  O1010   1.301   .     A
N1009  O1011   1.300   .     A
N1012  O1014   1.300   .     A
N1012  O1013   1.301   .     A
O1015  C1019   1.298   .     A
O1015  Cu1027  1.964   .     S
O1016  C1020   1.299   .     A
O1016  Cu1028  1.964   .     S
O1017  C1020   1.300   .     A
O1017  Cu1027  1.966   .     S
O1018  C1019   1.300   .     A
O1018  Cu1028  1.966   .     S
C1019  C1056   1.452   .     S
C1020  C1055   1.452   .     S
O1021  C1025   1.297   .     A
O1021  Cu1027  1.961   .     S
O1022  C1026   1.295   .     A
O1022  Cu1028  1.961   .     S
O1023  Cu1027  1.963   .     S
O1023  C1026   1.300   .     A
O1024  Cu1028  1.963   .     S
O1024  C1025   1.296   .     A
C1025  C1032   1.448   .     S
C1026  C1031   1.451   .     S
Cu1027 Cu1028  2.704   .     S
Cu1027 N1061   2.032   .     S
Cu1028 N1062   2.032   .     S
C1029  C1039   1.417   .     A
C1029  C1031   1.406   .     A
C1029  N1063   1.437   .     S
C1030  C1040   1.411   .     A
C1030  N1066   1.439   .     S
C1030  C1032   1.404   .     A
C1031  C1033   1.400   .     A
C1032  C1034   1.400   .     A
C1033  C1035   1.402   .     A
C1033  N1069   1.437   .     S
C1034  C1036   1.404   .     A
C1034  N1072   1.436   .     S
C1035  C1041   1.402   .     A
C1035  C1037   1.416   .     A
C1036  C1042   1.399   .     A
C1036  C1038   1.414   .     A
C1037  C1039   1.424   .     A
C1037  C336    1.414   1_556 S
C1038  C1040   1.421   .     A
C1039  C1044   1.421   .     A
C1040  C1043   1.416   .     A
C1041  H1045   1.083   .     S
C1041  C341    1.392   1_556 S
C1042  H1046   1.083   .     S
C1043  N1075   1.437   .     S
C1044  N1078   1.432   .     S
C1044  C340    1.391   1_556 S
C1047  C1056   1.400   .     A
C1047  H1051   1.081   .     S
C1048  C1055   1.400   .     A
C1048  H1052   1.082   .     S
C1048  C1128   1.383   .     S
C1049  C1055   1.401   .     A
C1049  H1053   1.082   .     S
C1049  C1125   1.383   .     S
C1050  C1056   1.401   .     A
C1050  H1054   1.082   .     S
C1057  N1062   1.374   .     A
C1057  N1081   1.428   .     S
C1058  N1084   1.426   .     S
C1058  N1061   1.372   .     A
C1058  C1293   1.423   .     S
C1059  N1087   1.429   .     S
C1059  N1062   1.373   .     A
C1060  N1090   1.429   .     S
C1060  N1061   1.374   .     A
C1060  C1291   1.424   .     S
N1063  O1065   1.301   .     A
N1063  O1064   1.301   .     A
N1066  O1068   1.301   .     A
N1066  O1067   1.300   .     A
N1069  O1070   1.301   .     A
N1069  O1071   1.301   .     A
N1072  O1074   1.301   .     A
N1072  O1073   1.301   .     A
N1075  O1077   1.302   .     A
N1075  O1076   1.300   .     A
N1078  O1080   1.301   .     A
N1078  O1079   1.301   .     A
N1081  O1082   1.300   .     A
N1081  O1083   1.301   .     A
N1084  O1085   1.299   .     A
N1084  O1086   1.301   .     A
N1087  O1088   1.301   .     A
N1087  O1089   1.300   .     A
N1090  O1092   1.300   .     A
N1090  O1091   1.301   .     A
O1093  C1097   1.298   .     A
O1093  Cu1105  1.964   .     S
O1094  C1098   1.299   .     A
O1094  Cu1106  1.964   .     S
O1095  C1098   1.300   .     A
O1095  Cu1105  1.966   .     S
O1096  C1097   1.300   .     A
O1096  Cu1106  1.966   .     S
C1097  C1134   1.452   .     S
C1098  C1133   1.452   .     S
O1099  C1103   1.297   .     A
O1099  Cu1105  1.961   .     S
O1100  C1104   1.295   .     A
O1100  Cu1106  1.961   .     S
O1101  Cu1105  1.963   .     S
O1101  C1104   1.300   .     A
O1102  Cu1106  1.963   .     S
O1102  C1103   1.296   .     A
C1103  C1110   1.448   .     S
C1104  C1109   1.451   .     S
Cu1105 Cu1106  2.704   .     S
Cu1105 N1139   2.032   .     S
Cu1106 N1140   2.032   .     S
C1107  C1117   1.417   .     A
C1107  C1109   1.406   .     A
C1107  N1141   1.437   .     S
C1108  C1118   1.411   .     A
C1108  N1144   1.439   .     S
C1108  C1110   1.404   .     A
C1109  C1111   1.400   .     A
C1110  C1112   1.400   .     A
C1111  C1113   1.402   .     A
C1111  N1147   1.437   .     S
C1112  C1114   1.404   .     A
C1112  N1150   1.436   .     S
C1113  C1119   1.402   .     A
C1113  C1115   1.416   .     A
C1114  C1120   1.399   .     A
C1114  C1116   1.414   .     A
C1115  C1117   1.424   .     A
C1115  C414    1.414   1_556 S
C1116  C1118   1.421   .     A
C1117  C1122   1.421   .     A
C1118  C1121   1.416   .     A
C1119  H1123   1.083   .     S
C1119  C419    1.392   1_556 S
C1120  H1124   1.083   .     S
C1121  N1153   1.437   .     S
C1122  N1156   1.432   .     S
C1122  C418    1.391   1_556 S
C1125  C1134   1.400   .     A
C1125  H1129   1.081   .     S
C1126  C1133   1.400   .     A
C1126  H1130   1.082   .     S
C1126  C972    1.383   1_655 S
C1127  C1133   1.401   .     A
C1127  H1131   1.082   .     S
C1127  C969    1.383   1_655 S
C1128  C1134   1.401   .     A
C1128  H1132   1.082   .     S
C1135  N1140   1.374   .     A
C1135  N1159   1.428   .     S
C1136  N1162   1.426   .     S
C1136  N1139   1.372   .     A
C1136  C1371   1.423   .     S
C1137  N1165   1.429   .     S
C1137  N1140   1.373   .     A
C1138  N1168   1.429   .     S
C1138  N1139   1.374   .     A
C1138  C1369   1.424   .     S
N1141  O1143   1.301   .     A
N1141  O1142   1.301   .     A
N1144  O1146   1.301   .     A
N1144  O1145   1.300   .     A
N1147  O1148   1.301   .     A
N1147  O1149   1.301   .     A
N1150  O1152   1.301   .     A
N1150  O1151   1.301   .     A
N1153  O1155   1.302   .     A
N1153  O1154   1.300   .     A
N1156  O1158   1.301   .     A
N1156  O1157   1.301   .     A
N1159  O1160   1.300   .     A
N1159  O1161   1.301   .     A
N1162  O1163   1.299   .     A
N1162  O1164   1.301   .     A
N1165  O1166   1.301   .     A
N1165  O1167   1.300   .     A
N1168  O1170   1.300   .     A
N1168  O1169   1.301   .     A
O1171  C1175   1.298   .     A
O1171  Cu1183  1.964   .     S
O1172  C1176   1.299   .     A
O1172  Cu1184  1.964   .     S
O1173  C1176   1.300   .     A
O1173  Cu1183  1.966   .     S
O1174  C1175   1.300   .     A
O1174  Cu1184  1.966   .     S
C1175  C1212   1.452   .     S
C1176  C1211   1.452   .     S
O1177  C1181   1.297   .     A
O1177  Cu1183  1.961   .     S
O1178  C1182   1.295   .     A
O1178  Cu1184  1.961   .     S
O1179  Cu1183  1.963   .     S
O1179  C1182   1.300   .     A
O1180  Cu1184  1.963   .     S
O1180  C1181   1.296   .     A
C1181  C1188   1.448   .     S
C1182  C1187   1.451   .     S
Cu1183 Cu1184  2.704   .     S
Cu1183 N1217   2.032   .     S
Cu1184 N1218   2.032   .     S
C1185  C1195   1.417   .     A
C1185  C1187   1.406   .     A
C1185  N1219   1.437   .     S
C1186  C1196   1.411   .     A
C1186  N1222   1.439   .     S
C1186  C1188   1.404   .     A
C1187  C1189   1.400   .     A
C1188  C1190   1.400   .     A
C1189  C1191   1.402   .     A
C1189  N1225   1.437   .     S
C1190  C1192   1.404   .     A
C1190  N1228   1.436   .     S
C1191  C1197   1.402   .     A
C1191  C1193   1.416   .     A
C1192  C1198   1.399   .     A
C1192  C1194   1.414   .     A
C1193  C1195   1.424   .     A
C1193  C492    1.414   1_556 S
C1194  C1196   1.421   .     A
C1195  C1200   1.421   .     A
C1196  C1199   1.416   .     A
C1197  H1201   1.083   .     S
C1197  C497    1.392   1_556 S
C1198  H1202   1.083   .     S
C1199  N1231   1.437   .     S
C1200  N1234   1.432   .     S
C1200  C496    1.391   1_556 S
C1203  C1212   1.400   .     A
C1203  H1207   1.081   .     S
C1203  C1361   1.383   1_455 S
C1204  C1211   1.400   .     A
C1204  H1208   1.082   .     S
C1204  C1284   1.383   .     S
C1205  C1211   1.401   .     A
C1205  H1209   1.082   .     S
C1205  C1281   1.383   .     S
C1206  C1212   1.401   .     A
C1206  H1210   1.082   .     S
C1206  C1360   1.383   1_455 S
C1213  N1218   1.374   .     A
C1213  N1237   1.428   .     S
C1214  N1240   1.426   .     S
C1214  N1217   1.372   .     A
C1214  C747    1.423   1_565 S
C1215  N1243   1.429   .     S
C1215  N1218   1.373   .     A
C1216  N1246   1.429   .     S
C1216  N1217   1.374   .     A
C1216  C745    1.424   1_565 S
N1219  O1221   1.301   .     A
N1219  O1220   1.301   .     A
N1222  O1224   1.301   .     A
N1222  O1223   1.300   .     A
N1225  O1226   1.301   .     A
N1225  O1227   1.301   .     A
N1228  O1230   1.301   .     A
N1228  O1229   1.301   .     A
N1231  O1233   1.302   .     A
N1231  O1232   1.300   .     A
N1234  O1236   1.301   .     A
N1234  O1235   1.301   .     A
N1237  O1238   1.300   .     A
N1237  O1239   1.301   .     A
N1240  O1241   1.299   .     A
N1240  O1242   1.301   .     A
N1243  O1244   1.301   .     A
N1243  O1245   1.300   .     A
N1246  O1248   1.300   .     A
N1246  O1247   1.301   .     A
O1249  C1253   1.298   .     A
O1249  Cu1261  1.964   .     S
O1250  C1254   1.299   .     A
O1250  Cu1262  1.964   .     S
O1251  C1254   1.300   .     A
O1251  Cu1261  1.966   .     S
O1252  C1253   1.300   .     A
O1252  Cu1262  1.966   .     S
C1253  C1290   1.452   .     S
C1254  C1289   1.452   .     S
O1255  C1259   1.297   .     A
O1255  Cu1261  1.961   .     S
O1256  C1260   1.295   .     A
O1256  Cu1262  1.961   .     S
O1257  Cu1261  1.963   .     S
O1257  C1260   1.300   .     A
O1258  Cu1262  1.963   .     S
O1258  C1259   1.296   .     A
C1259  C1266   1.448   .     S
C1260  C1265   1.451   .     S
Cu1261 Cu1262  2.704   .     S
Cu1261 N1295   2.032   .     S
Cu1262 N1296   2.032   .     S
C1263  C1273   1.417   .     A
C1263  C1265   1.406   .     A
C1263  N1297   1.437   .     S
C1264  C1274   1.411   .     A
C1264  N1300   1.439   .     S
C1264  C1266   1.404   .     A
C1265  C1267   1.400   .     A
C1266  C1268   1.400   .     A
C1267  C1269   1.402   .     A
C1267  N1303   1.437   .     S
C1268  C1270   1.404   .     A
C1268  N1306   1.436   .     S
C1269  C1275   1.402   .     A
C1269  C1271   1.416   .     A
C1270  C1276   1.399   .     A
C1270  C1272   1.414   .     A
C1271  C1273   1.424   .     A
C1271  C570    1.414   1_556 S
C1272  C1274   1.421   .     A
C1273  C1278   1.421   .     A
C1274  C1277   1.416   .     A
C1275  H1279   1.083   .     S
C1275  C575    1.392   1_556 S
C1276  H1280   1.083   .     S
C1277  N1309   1.437   .     S
C1278  N1312   1.432   .     S
C1278  C574    1.391   1_556 S
C1281  C1290   1.400   .     A
C1281  H1285   1.081   .     S
C1282  C1289   1.400   .     A
C1282  H1286   1.082   .     S
C1282  C1362   1.383   .     S
C1283  C1289   1.401   .     A
C1283  H1287   1.082   .     S
C1283  C1359   1.383   .     S
C1284  C1290   1.401   .     A
C1284  H1288   1.082   .     S
C1291  N1296   1.374   .     A
C1291  N1315   1.428   .     S
C1292  N1318   1.426   .     S
C1292  N1295   1.372   .     A
C1292  C825    1.423   1_565 S
C1293  N1321   1.429   .     S
C1293  N1296   1.373   .     A
C1294  N1324   1.429   .     S
C1294  N1295   1.374   .     A
C1294  C823    1.424   1_565 S
N1297  O1299   1.301   .     A
N1297  O1298   1.301   .     A
N1300  O1302   1.301   .     A
N1300  O1301   1.300   .     A
N1303  O1304   1.301   .     A
N1303  O1305   1.301   .     A
N1306  O1308   1.301   .     A
N1306  O1307   1.301   .     A
N1309  O1311   1.302   .     A
N1309  O1310   1.300   .     A
N1312  O1314   1.301   .     A
N1312  O1313   1.301   .     A
N1315  O1316   1.300   .     A
N1315  O1317   1.301   .     A
N1318  O1319   1.299   .     A
N1318  O1320   1.301   .     A
N1321  O1322   1.301   .     A
N1321  O1323   1.300   .     A
N1324  O1326   1.300   .     A
N1324  O1325   1.301   .     A
O1327  C1331   1.298   .     A
O1327  Cu1339  1.964   .     S
O1328  C1332   1.299   .     A
O1328  Cu1340  1.964   .     S
O1329  C1332   1.300   .     A
O1329  Cu1339  1.966   .     S
O1330  C1331   1.300   .     A
O1330  Cu1340  1.966   .     S
C1331  C1368   1.452   .     S
C1332  C1367   1.452   .     S
O1333  C1337   1.297   .     A
O1333  Cu1339  1.961   .     S
O1334  C1338   1.295   .     A
O1334  Cu1340  1.961   .     S
O1335  Cu1339  1.963   .     S
O1335  C1338   1.300   .     A
O1336  Cu1340  1.963   .     S
O1336  C1337   1.296   .     A
C1337  C1344   1.448   .     S
C1338  C1343   1.451   .     S
Cu1339 Cu1340  2.704   .     S
Cu1339 N1373   2.032   .     S
Cu1340 N1374   2.032   .     S
C1341  C1351   1.417   .     A
C1341  C1343   1.406   .     A
C1341  N1375   1.437   .     S
C1342  C1352   1.411   .     A
C1342  N1378   1.439   .     S
C1342  C1344   1.404   .     A
C1343  C1345   1.400   .     A
C1344  C1346   1.400   .     A
C1345  C1347   1.402   .     A
C1345  N1381   1.437   .     S
C1346  C1348   1.404   .     A
C1346  N1384   1.436   .     S
C1347  C1353   1.402   .     A
C1347  C1349   1.416   .     A
C1348  C1354   1.399   .     A
C1348  C1350   1.414   .     A
C1349  C1351   1.424   .     A
C1349  C648    1.414   1_556 S
C1350  C1352   1.421   .     A
C1351  C1356   1.421   .     A
C1352  C1355   1.416   .     A
C1353  H1357   1.083   .     S
C1353  C653    1.392   1_556 S
C1354  H1358   1.083   .     S
C1355  N1387   1.437   .     S
C1356  N1390   1.432   .     S
C1356  C652    1.391   1_556 S
C1359  C1368   1.400   .     A
C1359  H1363   1.081   .     S
C1360  C1367   1.400   .     A
C1360  H1364   1.082   .     S
C1360  C1206   1.383   1_655 S
C1361  C1367   1.401   .     A
C1361  H1365   1.082   .     S
C1361  C1203   1.383   1_655 S
C1362  C1368   1.401   .     A
C1362  H1366   1.082   .     S
C1369  N1374   1.374   .     A
C1369  N1393   1.428   .     S
C1370  N1396   1.426   .     S
C1370  N1373   1.372   .     A
C1370  C903    1.423   1_565 S
C1371  N1399   1.429   .     S
C1371  N1374   1.373   .     A
C1372  N1402   1.429   .     S
C1372  N1373   1.374   .     A
C1372  C901    1.424   1_565 S
N1375  O1377   1.301   .     A
N1375  O1376   1.301   .     A
N1378  O1380   1.301   .     A
N1378  O1379   1.300   .     A
N1381  O1382   1.301   .     A
N1381  O1383   1.301   .     A
N1384  O1386   1.301   .     A
N1384  O1385   1.301   .     A
N1387  O1389   1.302   .     A
N1387  O1388   1.300   .     A
N1390  O1392   1.301   .     A
N1390  O1391   1.301   .     A
N1393  O1394   1.300   .     A
N1393  O1395   1.301   .     A
N1396  O1397   1.299   .     A
N1396  O1398   1.301   .     A
N1399  O1400   1.301   .     A
N1399  O1401   1.300   .     A
N1402  O1404   1.300   .     A
N1402  O1403   1.301   .     A
