data_str_m2_o1_o2_pcu_sym.119
_audit_creation_date              2020-01-03
_audit_creation_method            'Materials Studio'
_symmetry_space_group_name_H-M    'P1'
_symmetry_Int_Tables_number       1
_symmetry_cell_setting            triclinic
loop_
_symmetry_equiv_pos_as_xyz
  x,y,z
_cell_length_a                    33.0878
_cell_length_b                    28.9122
_cell_length_c                    30.5466
_cell_angle_alpha                 89.9375
_cell_angle_beta                  93.7114
_cell_angle_gamma                 89.7943
loop_
_atom_site_label
_atom_site_type_symbol
_atom_site_fract_x
_atom_site_fract_y
_atom_site_fract_z
_atom_site_U_iso_or_equiv
_atom_site_adp_type
_atom_site_occupancy
O1     O     0.10655   0.20625   0.25000   0.00000  Uiso   1.00
O2     O     0.22679   0.12709   0.25001   0.00000  Uiso   1.00
O3     O     0.22679   0.20625   0.25001   0.00000  Uiso   1.00
O4     O     0.10655   0.12709   0.25000   0.00000  Uiso   1.00
N5     N     0.16667   0.28402   0.25000   0.00000  Uiso   1.00
N6     N     0.16667   0.04931   0.25000   0.00000  Uiso   1.00
C7     C     0.08737   0.16657   0.24902   0.00000  Uiso   1.00
C8     C     0.24598   0.16649   0.25101   0.00000  Uiso   1.00
O9     O     0.16666   0.20626   0.18573   0.00000  Uiso   1.00
O10    O     0.16667   0.12707   0.31427   0.00000  Uiso   1.00
O11    O     0.16667   0.20626   0.31427   0.00000  Uiso   1.00
O12    O     0.16666   0.12707   0.18573   0.00000  Uiso   1.00
C13    C     0.16905   0.16673   0.16519   0.00000  Uiso   1.00
C14    C     0.16357   0.16675   0.33473   0.00000  Uiso   1.00
Cu15   Cu    0.16667   0.21355   0.25000   0.00000  Uiso   1.00
Cu16   Cu    0.16667   0.11978   0.25000   0.00000  Uiso   1.00
C17    C     0.14280   0.02421   0.21967   0.00000  Uiso   1.00
C18    C     0.19454   0.30869   0.27570   0.00000  Uiso   1.00
C19    C     0.19047   0.02401   0.28029   0.00000  Uiso   1.00
C20    C     0.13882   0.30889   0.22430   0.00000  Uiso   1.00
C21    C     0.02001   0.12497   0.24396   0.00000  Uiso   1.00
C22    C     0.31242   0.20741   0.24549   0.00000  Uiso   1.00
C23    C     0.31367   0.12497   0.25728   0.00000  Uiso   1.00
C24    C     0.02079   0.20746   0.25481   0.00000  Uiso   1.00
C25    C     0.18129   0.20570   0.04747   0.00000  Uiso   1.00
C26    C     0.16622   0.12615   0.45175   0.00000  Uiso   1.00
C27    C     0.14626   0.20727   0.45129   0.00000  Uiso   1.00
C28    C     0.15319   0.12841   0.04901   0.00000  Uiso   1.00
C29    C     0.17748   0.20811   0.09274   0.00000  Uiso   1.00
C30    C     0.15630   0.12478   0.40642   0.00000  Uiso   1.00
C31    C     0.15301   0.20870   0.40650   0.00000  Uiso   1.00
C32    C     0.16823   0.12507   0.09279   0.00000  Uiso   1.00
C33    C     0.17277   0.16671   0.11691   0.00000  Uiso   1.00
C34    C     0.15701   0.16688   0.38267   0.00000  Uiso   1.00
C35    C     0.16417   0.16728   0.02424   0.00000  Uiso   1.00
C36    C     0.15810   0.16695   0.47539   0.00000  Uiso   1.00
C37    C     0.29073   0.16613   0.25140   0.00000  Uiso   1.00
C38    C     0.04268   0.16620   0.24916   0.00000  Uiso   1.00
N39    N     0.12355   0.04480   0.18066   0.00000  Uiso   1.00
O40    O     0.10390   0.08337   0.18178   0.00000  Uiso   1.00
O41    O     0.11966   0.02087   0.14465   0.00000  Uiso   1.00
N42    N     0.23035   0.28719   0.29565   0.00000  Uiso   1.00
O43    O     0.22793   0.25723   0.32702   0.00000  Uiso   1.00
O44    O     0.26507   0.30705   0.29125   0.00000  Uiso   1.00
N45    N     0.20921   0.04443   0.31941   0.00000  Uiso   1.00
O46    O     0.22939   0.08250   0.31835   0.00000  Uiso   1.00
O47    O     0.21187   0.02072   0.35564   0.00000  Uiso   1.00
N48    N     0.10305   0.28758   0.20449   0.00000  Uiso   1.00
O49    O     0.10549   0.25821   0.17267   0.00000  Uiso   1.00
O50    O     0.06830   0.30748   0.20933   0.00000  Uiso   1.00
O51    O     0.19547   0.24455   0.02693   0.00000  Uiso   1.00
C52    C     0.23243   0.23449   0.00836   0.00000  Uiso   1.00
H53    H     0.22703   0.21317   0.47836   0.00000  Uiso   1.00
H54    H     0.25380   0.21560   0.03179   0.00000  Uiso   1.00
C55    C     0.25200   0.28005   0.49577   0.00000  Uiso   1.00
H56    H     0.22871   0.30350   0.47996   0.00000  Uiso   1.00
H57    H     0.26517   0.29744   0.02579   0.00000  Uiso   1.00
C58    C     0.28503   0.27197   0.46410   0.00000  Uiso   1.00
H59    H     0.30645   0.24501   0.47730   0.00000  Uiso   1.00
H60    H     0.30187   0.30452   0.45929   0.00000  Uiso   1.00
H61    H     0.27136   0.26040   0.43179   0.00000  Uiso   1.00
O62    O     0.18214   0.08687   0.47256   0.00000  Uiso   1.00
C63    C     0.22431   0.09227   0.48226   0.00000  Uiso   1.00
H64    H     0.23314   0.06944   0.01060   0.00000  Uiso   1.00
H65    H     0.23293   0.12804   0.49265   0.00000  Uiso   1.00
C66    C     0.24813   0.07740   0.44327   0.00000  Uiso   1.00
H67    H     0.24038   0.04112   0.43451   0.00000  Uiso   1.00
H68    H     0.23993   0.09991   0.41453   0.00000  Uiso   1.00
C69    C     0.29363   0.08064   0.45411   0.00000  Uiso   1.00
H70    H     0.30220   0.11653   0.46367   0.00000  Uiso   1.00
H71    H     0.30986   0.07099   0.42484   0.00000  Uiso   1.00
H72    H     0.30296   0.05648   0.48122   0.00000  Uiso   1.00
O73    O     0.13629   0.24864   0.47100   0.00000  Uiso   1.00
C74    C     0.09938   0.24528   0.49156   0.00000  Uiso   1.00
H75    H     0.10376   0.22614   0.02299   0.00000  Uiso   1.00
H76    H     0.07566   0.22738   0.47049   0.00000  Uiso   1.00
C77    C     0.08487   0.29439   0.00125   0.00000  Uiso   1.00
H78    H     0.11078   0.31533   0.01506   0.00000  Uiso   1.00
H79    H     0.07303   0.31107   0.47020   0.00000  Uiso   1.00
C80    C     0.05200   0.29459   0.03404   0.00000  Uiso   1.00
H81    H     0.02653   0.27215   0.02234   0.00000  Uiso   1.00
H82    H     0.04047   0.33038   0.03796   0.00000  Uiso   1.00
H83    H     0.06447   0.28190   0.06651   0.00000  Uiso   1.00
O84    O     0.12973   0.09266   0.03104   0.00000  Uiso   1.00
C85    C     0.08896   0.10746   0.02370   0.00000  Uiso   1.00
H86    H     0.07297   0.08120   0.00251   0.00000  Uiso   1.00
H87    H     0.08631   0.14069   0.00531   0.00000  Uiso   1.00
C88    C     0.06751   0.11104   0.06676   0.00000  Uiso   1.00
H89    H     0.06948   0.07724   0.08417   0.00000  Uiso   1.00
H90    H     0.08239   0.13772   0.08837   0.00000  Uiso   1.00
C91    C     0.02309   0.12454   0.05808   0.00000  Uiso   1.00
H92    H     0.02032   0.15713   0.03872   0.00000  Uiso   1.00
H93    H     0.00908   0.13015   0.08966   0.00000  Uiso   1.00
H94    H     0.00645   0.09648   0.04002   0.00000  Uiso   1.00
N95    N     0.17525   0.25305   0.11197   0.00000  Uiso   1.00
O96    O     0.20472   0.26811   0.13807   0.00000  Uiso   1.00
O97    O     0.14888   0.28251   0.09506   0.00000  Uiso   1.00
N98    N     0.14263   0.08203   0.38613   0.00000  Uiso   1.00
O99    O     0.11408   0.08336   0.35481   0.00000  Uiso   1.00
O100   O     0.14938   0.04273   0.40611   0.00000  Uiso   1.00
N101   N     0.15879   0.25317   0.38733   0.00000  Uiso   1.00
O102   O     0.13045   0.27141   0.36145   0.00000  Uiso   1.00
O103   O     0.18710   0.27979   0.40459   0.00000  Uiso   1.00
N104   N     0.18293   0.08111   0.10982   0.00000  Uiso   1.00
O105   O     0.21306   0.08018   0.13937   0.00000  Uiso   1.00
O106   O     0.17574   0.04361   0.08718   0.00000  Uiso   1.00
O107   O     0.03491   0.08559   0.22475   0.00000  Uiso   1.00
C108   C     0.01564   0.08058   0.18183   0.00000  Uiso   1.00
H109   H     0.03750   0.06481   0.16036   0.00000  Uiso   1.00
H110   H     0.00661   0.11430   0.16613   0.00000  Uiso   1.00
C111   C     0.31254   0.04784   0.18084   0.00000  Uiso   1.00
H112   H     0.32059   0.01612   0.20009   0.00000  Uiso   1.00
H113   H     0.28648   0.06495   0.19520   0.00000  Uiso   1.00
C114   C     0.29940   0.03453   0.13362   0.00000  Uiso   1.00
H115   H     0.29221   0.06599   0.11366   0.00000  Uiso   1.00
H116   H     0.27188   0.01272   0.13314   0.00000  Uiso   1.00
H117   H     0.32383   0.01487   0.11853   0.00000  Uiso   1.00
O118   O     0.29435   0.24844   0.23198   0.00000  Uiso   1.00
C119   C     0.28417   0.24652   0.18626   0.00000  Uiso   1.00
H120   H     0.26848   0.27941   0.17768   0.00000  Uiso   1.00
H121   H     0.26268   0.21784   0.17792   0.00000  Uiso   1.00
C122   C     0.32104   0.24307   0.15801   0.00000  Uiso   1.00
H123   H     0.00684   0.27423   0.16303   0.00000  Uiso   1.00
H124   H     0.00632   0.21206   0.16692   0.00000  Uiso   1.00
C125   C     0.30748   0.23879   0.10955   0.00000  Uiso   1.00
H126   H     0.28923   0.20692   0.10395   0.00000  Uiso   1.00
H127   H     0.00108   0.23644   0.08985   0.00000  Uiso   1.00
H128   H     0.28909   0.26928   0.09852   0.00000  Uiso   1.00
O129   O     0.29841   0.08508   0.27509   0.00000  Uiso   1.00
C130   C     0.31726   0.07815   0.31799   0.00000  Uiso   1.00
H131   H     0.29539   0.06079   0.33835   0.00000  Uiso   1.00
H132   H     0.32539   0.11119   0.33533   0.00000  Uiso   1.00
C133   C     0.02082   0.04587   0.31825   0.00000  Uiso   1.00
H134   H     0.01315   0.01446   0.29854   0.00000  Uiso   1.00
H135   H     0.04654   0.06355   0.30399   0.00000  Uiso   1.00
C136   C     0.03437   0.03177   0.36520   0.00000  Uiso   1.00
H137   H     0.04048   0.06292   0.38580   0.00000  Uiso   1.00
H138   H     0.06266   0.01111   0.36541   0.00000  Uiso   1.00
H139   H     0.01062   0.01077   0.37979   0.00000  Uiso   1.00
O140   O     0.03865   0.24868   0.26758   0.00000  Uiso   1.00
C141   C     0.05083   0.24672   0.31286   0.00000  Uiso   1.00
H142   H     0.06565   0.28008   0.32096   0.00000  Uiso   1.00
H143   H     0.07372   0.21906   0.32004   0.00000  Uiso   1.00
C144   C     0.01555   0.24089   0.34291   0.00000  Uiso   1.00
H145   H     0.32808   0.27102   0.33925   0.00000  Uiso   1.00
H146   H     0.33142   0.20907   0.33450   0.00000  Uiso   1.00
C147   C     0.03161   0.23629   0.39056   0.00000  Uiso   1.00
H148   H     0.05318   0.20679   0.39431   0.00000  Uiso   1.00
H149   H     0.00616   0.22941   0.41138   0.00000  Uiso   1.00
H150   H     0.04713   0.26850   0.40179   0.00000  Uiso   1.00
O151   O     0.43988   0.20625   0.25000   0.00000  Uiso   1.00
O152   O     0.56012   0.12709   0.25001   0.00000  Uiso   1.00
O153   O     0.56012   0.20625   0.25001   0.00000  Uiso   1.00
O154   O     0.43988   0.12709   0.25000   0.00000  Uiso   1.00
N155   N     0.50000   0.28402   0.25000   0.00000  Uiso   1.00
N156   N     0.50000   0.04931   0.25000   0.00000  Uiso   1.00
C157   C     0.42071   0.16657   0.24902   0.00000  Uiso   1.00
C158   C     0.57931   0.16649   0.25101   0.00000  Uiso   1.00
O159   O     0.50000   0.20626   0.18573   0.00000  Uiso   1.00
O160   O     0.50000   0.12707   0.31427   0.00000  Uiso   1.00
O161   O     0.50000   0.20626   0.31427   0.00000  Uiso   1.00
O162   O     0.50000   0.12707   0.18573   0.00000  Uiso   1.00
C163   C     0.50238   0.16673   0.16519   0.00000  Uiso   1.00
C164   C     0.49691   0.16675   0.33473   0.00000  Uiso   1.00
Cu165  Cu    0.50000   0.21355   0.25000   0.00000  Uiso   1.00
Cu166  Cu    0.50000   0.11978   0.25000   0.00000  Uiso   1.00
C167   C     0.47613   0.02421   0.21967   0.00000  Uiso   1.00
C168   C     0.52787   0.30869   0.27570   0.00000  Uiso   1.00
C169   C     0.52380   0.02401   0.28029   0.00000  Uiso   1.00
C170   C     0.47215   0.30889   0.22430   0.00000  Uiso   1.00
C171   C     0.35334   0.12497   0.24396   0.00000  Uiso   1.00
C172   C     0.64575   0.20741   0.24549   0.00000  Uiso   1.00
C173   C     0.64700   0.12497   0.25728   0.00000  Uiso   1.00
C174   C     0.35412   0.20746   0.25481   0.00000  Uiso   1.00
C175   C     0.51463   0.20570   0.04747   0.00000  Uiso   1.00
C176   C     0.49955   0.12615   0.45175   0.00000  Uiso   1.00
C177   C     0.47959   0.20727   0.45129   0.00000  Uiso   1.00
C178   C     0.48653   0.12841   0.04901   0.00000  Uiso   1.00
C179   C     0.51081   0.20811   0.09274   0.00000  Uiso   1.00
C180   C     0.48964   0.12478   0.40642   0.00000  Uiso   1.00
C181   C     0.48635   0.20870   0.40650   0.00000  Uiso   1.00
C182   C     0.50156   0.12507   0.09279   0.00000  Uiso   1.00
C183   C     0.50610   0.16671   0.11691   0.00000  Uiso   1.00
C184   C     0.49035   0.16688   0.38267   0.00000  Uiso   1.00
C185   C     0.49750   0.16728   0.02424   0.00000  Uiso   1.00
C186   C     0.49143   0.16695   0.47539   0.00000  Uiso   1.00
C187   C     0.62406   0.16613   0.25140   0.00000  Uiso   1.00
C188   C     0.37601   0.16620   0.24916   0.00000  Uiso   1.00
N189   N     0.45688   0.04480   0.18066   0.00000  Uiso   1.00
O190   O     0.43723   0.08337   0.18178   0.00000  Uiso   1.00
O191   O     0.45300   0.02087   0.14465   0.00000  Uiso   1.00
N192   N     0.56368   0.28719   0.29565   0.00000  Uiso   1.00
O193   O     0.56126   0.25723   0.32702   0.00000  Uiso   1.00
O194   O     0.59841   0.30705   0.29125   0.00000  Uiso   1.00
N195   N     0.54254   0.04443   0.31941   0.00000  Uiso   1.00
O196   O     0.56272   0.08250   0.31835   0.00000  Uiso   1.00
O197   O     0.54521   0.02072   0.35564   0.00000  Uiso   1.00
N198   N     0.43639   0.28758   0.20449   0.00000  Uiso   1.00
O199   O     0.43882   0.25821   0.17267   0.00000  Uiso   1.00
O200   O     0.40164   0.30748   0.20933   0.00000  Uiso   1.00
O201   O     0.52880   0.24455   0.02693   0.00000  Uiso   1.00
C202   C     0.56577   0.23449   0.00836   0.00000  Uiso   1.00
H203   H     0.56036   0.21317   0.47836   0.00000  Uiso   1.00
H204   H     0.58714   0.21560   0.03179   0.00000  Uiso   1.00
C205   C     0.58534   0.28005   0.49577   0.00000  Uiso   1.00
H206   H     0.56204   0.30350   0.47996   0.00000  Uiso   1.00
H207   H     0.59850   0.29744   0.02579   0.00000  Uiso   1.00
C208   C     0.61836   0.27197   0.46410   0.00000  Uiso   1.00
H209   H     0.63979   0.24501   0.47730   0.00000  Uiso   1.00
H210   H     0.63520   0.30452   0.45929   0.00000  Uiso   1.00
H211   H     0.60469   0.26040   0.43179   0.00000  Uiso   1.00
O212   O     0.51547   0.08687   0.47256   0.00000  Uiso   1.00
C213   C     0.55764   0.09227   0.48226   0.00000  Uiso   1.00
H214   H     0.56647   0.06944   0.01060   0.00000  Uiso   1.00
H215   H     0.56626   0.12804   0.49265   0.00000  Uiso   1.00
C216   C     0.58146   0.07740   0.44327   0.00000  Uiso   1.00
H217   H     0.57371   0.04112   0.43451   0.00000  Uiso   1.00
H218   H     0.57327   0.09991   0.41453   0.00000  Uiso   1.00
C219   C     0.62697   0.08064   0.45411   0.00000  Uiso   1.00
H220   H     0.63553   0.11653   0.46367   0.00000  Uiso   1.00
H221   H     0.64319   0.07099   0.42484   0.00000  Uiso   1.00
H222   H     0.63629   0.05648   0.48122   0.00000  Uiso   1.00
O223   O     0.46963   0.24864   0.47100   0.00000  Uiso   1.00
C224   C     0.43272   0.24528   0.49156   0.00000  Uiso   1.00
H225   H     0.43709   0.22614   0.02299   0.00000  Uiso   1.00
H226   H     0.40900   0.22738   0.47049   0.00000  Uiso   1.00
C227   C     0.41820   0.29439   0.00125   0.00000  Uiso   1.00
H228   H     0.44411   0.31533   0.01506   0.00000  Uiso   1.00
H229   H     0.40636   0.31107   0.47020   0.00000  Uiso   1.00
C230   C     0.38533   0.29459   0.03404   0.00000  Uiso   1.00
H231   H     0.35986   0.27215   0.02234   0.00000  Uiso   1.00
H232   H     0.37380   0.33038   0.03796   0.00000  Uiso   1.00
H233   H     0.39780   0.28190   0.06651   0.00000  Uiso   1.00
O234   O     0.46307   0.09266   0.03104   0.00000  Uiso   1.00
C235   C     0.42230   0.10746   0.02370   0.00000  Uiso   1.00
H236   H     0.40630   0.08120   0.00251   0.00000  Uiso   1.00
H237   H     0.41965   0.14069   0.00531   0.00000  Uiso   1.00
C238   C     0.40084   0.11104   0.06676   0.00000  Uiso   1.00
H239   H     0.40281   0.07724   0.08417   0.00000  Uiso   1.00
H240   H     0.41573   0.13772   0.08837   0.00000  Uiso   1.00
C241   C     0.35642   0.12454   0.05808   0.00000  Uiso   1.00
H242   H     0.35365   0.15713   0.03872   0.00000  Uiso   1.00
H243   H     0.34241   0.13015   0.08966   0.00000  Uiso   1.00
H244   H     0.33979   0.09648   0.04002   0.00000  Uiso   1.00
N245   N     0.50859   0.25305   0.11197   0.00000  Uiso   1.00
O246   O     0.53806   0.26811   0.13807   0.00000  Uiso   1.00
O247   O     0.48221   0.28251   0.09506   0.00000  Uiso   1.00
N248   N     0.47596   0.08203   0.38613   0.00000  Uiso   1.00
O249   O     0.44742   0.08336   0.35481   0.00000  Uiso   1.00
O250   O     0.48272   0.04273   0.40611   0.00000  Uiso   1.00
N251   N     0.49212   0.25317   0.38733   0.00000  Uiso   1.00
O252   O     0.46378   0.27141   0.36145   0.00000  Uiso   1.00
O253   O     0.52043   0.27979   0.40459   0.00000  Uiso   1.00
N254   N     0.51627   0.08111   0.10982   0.00000  Uiso   1.00
O255   O     0.54639   0.08018   0.13937   0.00000  Uiso   1.00
O256   O     0.50908   0.04361   0.08718   0.00000  Uiso   1.00
O257   O     0.36824   0.08559   0.22475   0.00000  Uiso   1.00
C258   C     0.34897   0.08058   0.18183   0.00000  Uiso   1.00
H259   H     0.37084   0.06481   0.16036   0.00000  Uiso   1.00
H260   H     0.33995   0.11430   0.16613   0.00000  Uiso   1.00
C261   C     0.64588   0.04784   0.18084   0.00000  Uiso   1.00
H262   H     0.65392   0.01612   0.20009   0.00000  Uiso   1.00
H263   H     0.61981   0.06495   0.19520   0.00000  Uiso   1.00
C264   C     0.63274   0.03453   0.13362   0.00000  Uiso   1.00
H265   H     0.62554   0.06599   0.11366   0.00000  Uiso   1.00
H266   H     0.60521   0.01272   0.13314   0.00000  Uiso   1.00
H267   H     0.65716   0.01487   0.11853   0.00000  Uiso   1.00
O268   O     0.62768   0.24844   0.23198   0.00000  Uiso   1.00
C269   C     0.61750   0.24652   0.18626   0.00000  Uiso   1.00
H270   H     0.60181   0.27941   0.17768   0.00000  Uiso   1.00
H271   H     0.59601   0.21784   0.17792   0.00000  Uiso   1.00
C272   C     0.65437   0.24307   0.15801   0.00000  Uiso   1.00
H273   H     0.34018   0.27423   0.16303   0.00000  Uiso   1.00
H274   H     0.33966   0.21206   0.16692   0.00000  Uiso   1.00
C275   C     0.64081   0.23879   0.10955   0.00000  Uiso   1.00
H276   H     0.62256   0.20692   0.10395   0.00000  Uiso   1.00
H277   H     0.33441   0.23644   0.08985   0.00000  Uiso   1.00
H278   H     0.62243   0.26928   0.09852   0.00000  Uiso   1.00
O279   O     0.63175   0.08508   0.27509   0.00000  Uiso   1.00
C280   C     0.65059   0.07815   0.31799   0.00000  Uiso   1.00
H281   H     0.62872   0.06079   0.33835   0.00000  Uiso   1.00
H282   H     0.65872   0.11119   0.33533   0.00000  Uiso   1.00
C283   C     0.35416   0.04587   0.31825   0.00000  Uiso   1.00
H284   H     0.34648   0.01446   0.29854   0.00000  Uiso   1.00
H285   H     0.37987   0.06355   0.30399   0.00000  Uiso   1.00
C286   C     0.36771   0.03177   0.36520   0.00000  Uiso   1.00
H287   H     0.37381   0.06292   0.38580   0.00000  Uiso   1.00
H288   H     0.39600   0.01111   0.36541   0.00000  Uiso   1.00
H289   H     0.34396   0.01077   0.37979   0.00000  Uiso   1.00
O290   O     0.37198   0.24868   0.26758   0.00000  Uiso   1.00
C291   C     0.38416   0.24672   0.31286   0.00000  Uiso   1.00
H292   H     0.39898   0.28008   0.32096   0.00000  Uiso   1.00
H293   H     0.40706   0.21906   0.32004   0.00000  Uiso   1.00
C294   C     0.34888   0.24089   0.34291   0.00000  Uiso   1.00
H295   H     0.66141   0.27102   0.33925   0.00000  Uiso   1.00
H296   H     0.66475   0.20907   0.33450   0.00000  Uiso   1.00
C297   C     0.36494   0.23629   0.39056   0.00000  Uiso   1.00
H298   H     0.38652   0.20679   0.39431   0.00000  Uiso   1.00
H299   H     0.33950   0.22941   0.41138   0.00000  Uiso   1.00
H300   H     0.38046   0.26850   0.40179   0.00000  Uiso   1.00
O301   O     0.77321   0.20625   0.25000   0.00000  Uiso   1.00
O302   O     0.89345   0.12709   0.25001   0.00000  Uiso   1.00
O303   O     0.89345   0.20625   0.25001   0.00000  Uiso   1.00
O304   O     0.77321   0.12709   0.25000   0.00000  Uiso   1.00
N305   N     0.83333   0.28402   0.25000   0.00000  Uiso   1.00
N306   N     0.83333   0.04931   0.25000   0.00000  Uiso   1.00
C307   C     0.75404   0.16657   0.24902   0.00000  Uiso   1.00
C308   C     0.91264   0.16649   0.25101   0.00000  Uiso   1.00
O309   O     0.83333   0.20626   0.18573   0.00000  Uiso   1.00
O310   O     0.83334   0.12707   0.31427   0.00000  Uiso   1.00
O311   O     0.83334   0.20626   0.31427   0.00000  Uiso   1.00
O312   O     0.83333   0.12707   0.18573   0.00000  Uiso   1.00
C313   C     0.83571   0.16673   0.16519   0.00000  Uiso   1.00
C314   C     0.83024   0.16675   0.33473   0.00000  Uiso   1.00
Cu315  Cu    0.83333   0.21355   0.25000   0.00000  Uiso   1.00
Cu316  Cu    0.83333   0.11978   0.25000   0.00000  Uiso   1.00
C317   C     0.80946   0.02421   0.21967   0.00000  Uiso   1.00
C318   C     0.86120   0.30869   0.27570   0.00000  Uiso   1.00
C319   C     0.85714   0.02401   0.28029   0.00000  Uiso   1.00
C320   C     0.80548   0.30889   0.22430   0.00000  Uiso   1.00
C321   C     0.68668   0.12497   0.24396   0.00000  Uiso   1.00
C322   C     0.97908   0.20741   0.24549   0.00000  Uiso   1.00
C323   C     0.98034   0.12497   0.25728   0.00000  Uiso   1.00
C324   C     0.68745   0.20746   0.25481   0.00000  Uiso   1.00
C325   C     0.84796   0.20570   0.04747   0.00000  Uiso   1.00
C326   C     0.83289   0.12615   0.45175   0.00000  Uiso   1.00
C327   C     0.81292   0.20727   0.45129   0.00000  Uiso   1.00
C328   C     0.81986   0.12841   0.04901   0.00000  Uiso   1.00
C329   C     0.84415   0.20811   0.09274   0.00000  Uiso   1.00
C330   C     0.82297   0.12478   0.40642   0.00000  Uiso   1.00
C331   C     0.81968   0.20870   0.40650   0.00000  Uiso   1.00
C332   C     0.83490   0.12507   0.09279   0.00000  Uiso   1.00
C333   C     0.83943   0.16671   0.11691   0.00000  Uiso   1.00
C334   C     0.82368   0.16688   0.38267   0.00000  Uiso   1.00
C335   C     0.83084   0.16728   0.02424   0.00000  Uiso   1.00
C336   C     0.82477   0.16695   0.47539   0.00000  Uiso   1.00
C337   C     0.95740   0.16613   0.25140   0.00000  Uiso   1.00
C338   C     0.70934   0.16620   0.24916   0.00000  Uiso   1.00
N339   N     0.79022   0.04480   0.18066   0.00000  Uiso   1.00
O340   O     0.77056   0.08337   0.18178   0.00000  Uiso   1.00
O341   O     0.78633   0.02087   0.14465   0.00000  Uiso   1.00
N342   N     0.89701   0.28719   0.29565   0.00000  Uiso   1.00
O343   O     0.89460   0.25723   0.32702   0.00000  Uiso   1.00
O344   O     0.93174   0.30705   0.29125   0.00000  Uiso   1.00
N345   N     0.87587   0.04443   0.31941   0.00000  Uiso   1.00
O346   O     0.89605   0.08250   0.31835   0.00000  Uiso   1.00
O347   O     0.87854   0.02072   0.35564   0.00000  Uiso   1.00
N348   N     0.76972   0.28758   0.20449   0.00000  Uiso   1.00
O349   O     0.77215   0.25821   0.17267   0.00000  Uiso   1.00
O350   O     0.73497   0.30748   0.20933   0.00000  Uiso   1.00
O351   O     0.86214   0.24455   0.02693   0.00000  Uiso   1.00
C352   C     0.89910   0.23449   0.00836   0.00000  Uiso   1.00
H353   H     0.89369   0.21317   0.47836   0.00000  Uiso   1.00
H354   H     0.92047   0.21560   0.03179   0.00000  Uiso   1.00
C355   C     0.91867   0.28005   0.49577   0.00000  Uiso   1.00
H356   H     0.89537   0.30350   0.47996   0.00000  Uiso   1.00
H357   H     0.93183   0.29744   0.02579   0.00000  Uiso   1.00
C358   C     0.95170   0.27197   0.46410   0.00000  Uiso   1.00
H359   H     0.97312   0.24501   0.47730   0.00000  Uiso   1.00
H360   H     0.96853   0.30452   0.45929   0.00000  Uiso   1.00
H361   H     0.93802   0.26040   0.43179   0.00000  Uiso   1.00
O362   O     0.84880   0.08687   0.47256   0.00000  Uiso   1.00
C363   C     0.89097   0.09227   0.48226   0.00000  Uiso   1.00
H364   H     0.89981   0.06944   0.01060   0.00000  Uiso   1.00
H365   H     0.89959   0.12804   0.49265   0.00000  Uiso   1.00
C366   C     0.91480   0.07740   0.44327   0.00000  Uiso   1.00
H367   H     0.90704   0.04112   0.43451   0.00000  Uiso   1.00
H368   H     0.90660   0.09991   0.41453   0.00000  Uiso   1.00
C369   C     0.96030   0.08064   0.45411   0.00000  Uiso   1.00
H370   H     0.96887   0.11653   0.46367   0.00000  Uiso   1.00
H371   H     0.97652   0.07099   0.42484   0.00000  Uiso   1.00
H372   H     0.96963   0.05648   0.48122   0.00000  Uiso   1.00
O373   O     0.80296   0.24864   0.47100   0.00000  Uiso   1.00
C374   C     0.76605   0.24528   0.49156   0.00000  Uiso   1.00
H375   H     0.77042   0.22614   0.02299   0.00000  Uiso   1.00
H376   H     0.74233   0.22738   0.47049   0.00000  Uiso   1.00
C377   C     0.75153   0.29439   0.00125   0.00000  Uiso   1.00
H378   H     0.77744   0.31533   0.01506   0.00000  Uiso   1.00
H379   H     0.73969   0.31107   0.47020   0.00000  Uiso   1.00
C380   C     0.71866   0.29459   0.03404   0.00000  Uiso   1.00
H381   H     0.69319   0.27215   0.02234   0.00000  Uiso   1.00
H382   H     0.70713   0.33038   0.03796   0.00000  Uiso   1.00
H383   H     0.73113   0.28190   0.06651   0.00000  Uiso   1.00
O384   O     0.79640   0.09266   0.03104   0.00000  Uiso   1.00
C385   C     0.75563   0.10746   0.02370   0.00000  Uiso   1.00
H386   H     0.73964   0.08120   0.00251   0.00000  Uiso   1.00
H387   H     0.75298   0.14069   0.00531   0.00000  Uiso   1.00
C388   C     0.73418   0.11104   0.06676   0.00000  Uiso   1.00
H389   H     0.73615   0.07724   0.08417   0.00000  Uiso   1.00
H390   H     0.74906   0.13772   0.08837   0.00000  Uiso   1.00
C391   C     0.68976   0.12454   0.05808   0.00000  Uiso   1.00
H392   H     0.68698   0.15713   0.03872   0.00000  Uiso   1.00
H393   H     0.67574   0.13015   0.08966   0.00000  Uiso   1.00
H394   H     0.67312   0.09648   0.04002   0.00000  Uiso   1.00
N395   N     0.84192   0.25305   0.11197   0.00000  Uiso   1.00
O396   O     0.87139   0.26811   0.13807   0.00000  Uiso   1.00
O397   O     0.81554   0.28251   0.09506   0.00000  Uiso   1.00
N398   N     0.80930   0.08203   0.38613   0.00000  Uiso   1.00
O399   O     0.78075   0.08336   0.35481   0.00000  Uiso   1.00
O400   O     0.81605   0.04273   0.40611   0.00000  Uiso   1.00
N401   N     0.82546   0.25317   0.38733   0.00000  Uiso   1.00
O402   O     0.79711   0.27141   0.36145   0.00000  Uiso   1.00
O403   O     0.85377   0.27979   0.40459   0.00000  Uiso   1.00
N404   N     0.84960   0.08111   0.10982   0.00000  Uiso   1.00
O405   O     0.87972   0.08018   0.13937   0.00000  Uiso   1.00
O406   O     0.84241   0.04361   0.08718   0.00000  Uiso   1.00
O407   O     0.70157   0.08559   0.22475   0.00000  Uiso   1.00
C408   C     0.68230   0.08058   0.18183   0.00000  Uiso   1.00
H409   H     0.70417   0.06481   0.16036   0.00000  Uiso   1.00
H410   H     0.67328   0.11430   0.16613   0.00000  Uiso   1.00
C411   C     0.97921   0.04784   0.18084   0.00000  Uiso   1.00
H412   H     0.98725   0.01612   0.20009   0.00000  Uiso   1.00
H413   H     0.95314   0.06495   0.19520   0.00000  Uiso   1.00
C414   C     0.96607   0.03453   0.13362   0.00000  Uiso   1.00
H415   H     0.95887   0.06599   0.11366   0.00000  Uiso   1.00
H416   H     0.93855   0.01272   0.13314   0.00000  Uiso   1.00
H417   H     0.99050   0.01487   0.11853   0.00000  Uiso   1.00
O418   O     0.96101   0.24844   0.23198   0.00000  Uiso   1.00
C419   C     0.95083   0.24652   0.18626   0.00000  Uiso   1.00
H420   H     0.93514   0.27941   0.17768   0.00000  Uiso   1.00
H421   H     0.92935   0.21784   0.17792   0.00000  Uiso   1.00
C422   C     0.98770   0.24307   0.15801   0.00000  Uiso   1.00
H423   H     0.67351   0.27423   0.16303   0.00000  Uiso   1.00
H424   H     0.67299   0.21206   0.16692   0.00000  Uiso   1.00
C425   C     0.97415   0.23879   0.10955   0.00000  Uiso   1.00
H426   H     0.95589   0.20692   0.10395   0.00000  Uiso   1.00
H427   H     0.66775   0.23644   0.08985   0.00000  Uiso   1.00
H428   H     0.95576   0.26928   0.09852   0.00000  Uiso   1.00
O429   O     0.96508   0.08508   0.27509   0.00000  Uiso   1.00
C430   C     0.98392   0.07815   0.31799   0.00000  Uiso   1.00
H431   H     0.96205   0.06079   0.33835   0.00000  Uiso   1.00
H432   H     0.99206   0.11119   0.33533   0.00000  Uiso   1.00
C433   C     0.68749   0.04587   0.31825   0.00000  Uiso   1.00
H434   H     0.67981   0.01446   0.29854   0.00000  Uiso   1.00
H435   H     0.71320   0.06355   0.30399   0.00000  Uiso   1.00
C436   C     0.70104   0.03177   0.36520   0.00000  Uiso   1.00
H437   H     0.70715   0.06292   0.38580   0.00000  Uiso   1.00
H438   H     0.72933   0.01111   0.36541   0.00000  Uiso   1.00
H439   H     0.67729   0.01077   0.37979   0.00000  Uiso   1.00
O440   O     0.70532   0.24868   0.26758   0.00000  Uiso   1.00
C441   C     0.71749   0.24672   0.31286   0.00000  Uiso   1.00
H442   H     0.73232   0.28008   0.32096   0.00000  Uiso   1.00
H443   H     0.74039   0.21906   0.32004   0.00000  Uiso   1.00
C444   C     0.68221   0.24089   0.34291   0.00000  Uiso   1.00
H445   H     0.99475   0.27102   0.33925   0.00000  Uiso   1.00
H446   H     0.99809   0.20907   0.33450   0.00000  Uiso   1.00
C447   C     0.69828   0.23629   0.39056   0.00000  Uiso   1.00
H448   H     0.71985   0.20679   0.39431   0.00000  Uiso   1.00
H449   H     0.67283   0.22941   0.41138   0.00000  Uiso   1.00
H450   H     0.71379   0.26850   0.40179   0.00000  Uiso   1.00
O451   O     0.10655   0.53958   0.25000   0.00000  Uiso   1.00
O452   O     0.22679   0.46042   0.25001   0.00000  Uiso   1.00
O453   O     0.22679   0.53958   0.25001   0.00000  Uiso   1.00
O454   O     0.10655   0.46042   0.25000   0.00000  Uiso   1.00
N455   N     0.16667   0.61736   0.25000   0.00000  Uiso   1.00
N456   N     0.16667   0.38264   0.25000   0.00000  Uiso   1.00
C457   C     0.08737   0.49990   0.24902   0.00000  Uiso   1.00
C458   C     0.24598   0.49982   0.25101   0.00000  Uiso   1.00
O459   O     0.16666   0.53959   0.18573   0.00000  Uiso   1.00
O460   O     0.16667   0.46041   0.31427   0.00000  Uiso   1.00
O461   O     0.16667   0.53959   0.31427   0.00000  Uiso   1.00
O462   O     0.16666   0.46041   0.18573   0.00000  Uiso   1.00
C463   C     0.16905   0.50006   0.16519   0.00000  Uiso   1.00
C464   C     0.16357   0.50008   0.33473   0.00000  Uiso   1.00
Cu465  Cu    0.16667   0.54689   0.25000   0.00000  Uiso   1.00
Cu466  Cu    0.16667   0.45311   0.25000   0.00000  Uiso   1.00
C467   C     0.14280   0.35755   0.21967   0.00000  Uiso   1.00
C468   C     0.19454   0.64202   0.27570   0.00000  Uiso   1.00
C469   C     0.19047   0.35735   0.28029   0.00000  Uiso   1.00
C470   C     0.13882   0.64222   0.22430   0.00000  Uiso   1.00
C471   C     0.02001   0.45831   0.24396   0.00000  Uiso   1.00
C472   C     0.31242   0.54074   0.24549   0.00000  Uiso   1.00
C473   C     0.31367   0.45831   0.25728   0.00000  Uiso   1.00
C474   C     0.02079   0.54079   0.25481   0.00000  Uiso   1.00
C475   C     0.18129   0.53903   0.04747   0.00000  Uiso   1.00
C476   C     0.16622   0.45948   0.45175   0.00000  Uiso   1.00
C477   C     0.14626   0.54060   0.45129   0.00000  Uiso   1.00
C478   C     0.15319   0.46174   0.04901   0.00000  Uiso   1.00
C479   C     0.17748   0.54144   0.09274   0.00000  Uiso   1.00
C480   C     0.15630   0.45811   0.40642   0.00000  Uiso   1.00
C481   C     0.15301   0.54203   0.40650   0.00000  Uiso   1.00
C482   C     0.16823   0.45840   0.09279   0.00000  Uiso   1.00
C483   C     0.17277   0.50004   0.11691   0.00000  Uiso   1.00
C484   C     0.15701   0.50021   0.38267   0.00000  Uiso   1.00
C485   C     0.16417   0.50061   0.02424   0.00000  Uiso   1.00
C486   C     0.15810   0.50028   0.47539   0.00000  Uiso   1.00
C487   C     0.29073   0.49946   0.25140   0.00000  Uiso   1.00
C488   C     0.04268   0.49954   0.24916   0.00000  Uiso   1.00
N489   N     0.12355   0.37814   0.18066   0.00000  Uiso   1.00
O490   O     0.10390   0.41670   0.18178   0.00000  Uiso   1.00
O491   O     0.11966   0.35420   0.14465   0.00000  Uiso   1.00
N492   N     0.23035   0.62052   0.29565   0.00000  Uiso   1.00
O493   O     0.22793   0.59057   0.32702   0.00000  Uiso   1.00
O494   O     0.26507   0.64038   0.29125   0.00000  Uiso   1.00
N495   N     0.20921   0.37776   0.31941   0.00000  Uiso   1.00
O496   O     0.22939   0.41583   0.31835   0.00000  Uiso   1.00
O497   O     0.21187   0.35405   0.35564   0.00000  Uiso   1.00
N498   N     0.10305   0.62092   0.20449   0.00000  Uiso   1.00
O499   O     0.10549   0.59155   0.17267   0.00000  Uiso   1.00
O500   O     0.06830   0.64081   0.20933   0.00000  Uiso   1.00
O501   O     0.19547   0.57789   0.02693   0.00000  Uiso   1.00
C502   C     0.23243   0.56782   0.00836   0.00000  Uiso   1.00
H503   H     0.22703   0.54651   0.47836   0.00000  Uiso   1.00
H504   H     0.25380   0.54893   0.03179   0.00000  Uiso   1.00
C505   C     0.25200   0.61339   0.49577   0.00000  Uiso   1.00
H506   H     0.22871   0.63683   0.47996   0.00000  Uiso   1.00
H507   H     0.26517   0.63078   0.02579   0.00000  Uiso   1.00
C508   C     0.28503   0.60530   0.46410   0.00000  Uiso   1.00
H509   H     0.30645   0.57834   0.47730   0.00000  Uiso   1.00
H510   H     0.30187   0.63786   0.45929   0.00000  Uiso   1.00
H511   H     0.27136   0.59373   0.43179   0.00000  Uiso   1.00
O512   O     0.18214   0.42020   0.47256   0.00000  Uiso   1.00
C513   C     0.22431   0.42561   0.48226   0.00000  Uiso   1.00
H514   H     0.23314   0.40278   0.01060   0.00000  Uiso   1.00
H515   H     0.23293   0.46137   0.49265   0.00000  Uiso   1.00
C516   C     0.24813   0.41074   0.44327   0.00000  Uiso   1.00
H517   H     0.24038   0.37445   0.43451   0.00000  Uiso   1.00
H518   H     0.23993   0.43324   0.41453   0.00000  Uiso   1.00
C519   C     0.29363   0.41397   0.45411   0.00000  Uiso   1.00
H520   H     0.30220   0.44986   0.46367   0.00000  Uiso   1.00
H521   H     0.30986   0.40432   0.42484   0.00000  Uiso   1.00
H522   H     0.30296   0.38981   0.48122   0.00000  Uiso   1.00
O523   O     0.13629   0.58198   0.47100   0.00000  Uiso   1.00
C524   C     0.09938   0.57862   0.49156   0.00000  Uiso   1.00
H525   H     0.10376   0.55948   0.02299   0.00000  Uiso   1.00
H526   H     0.07566   0.56071   0.47049   0.00000  Uiso   1.00
C527   C     0.08487   0.62772   0.00125   0.00000  Uiso   1.00
H528   H     0.11078   0.64867   0.01506   0.00000  Uiso   1.00
H529   H     0.07303   0.64440   0.47020   0.00000  Uiso   1.00
C530   C     0.05200   0.62793   0.03404   0.00000  Uiso   1.00
H531   H     0.02653   0.60548   0.02234   0.00000  Uiso   1.00
H532   H     0.04047   0.66371   0.03796   0.00000  Uiso   1.00
H533   H     0.06447   0.61524   0.06651   0.00000  Uiso   1.00
O534   O     0.12973   0.42599   0.03104   0.00000  Uiso   1.00
C535   C     0.08896   0.44079   0.02370   0.00000  Uiso   1.00
H536   H     0.07297   0.41453   0.00251   0.00000  Uiso   1.00
H537   H     0.08631   0.47403   0.00531   0.00000  Uiso   1.00
C538   C     0.06751   0.44437   0.06676   0.00000  Uiso   1.00
H539   H     0.06948   0.41058   0.08417   0.00000  Uiso   1.00
H540   H     0.08239   0.47105   0.08837   0.00000  Uiso   1.00
C541   C     0.02309   0.45788   0.05808   0.00000  Uiso   1.00
H542   H     0.02032   0.49046   0.03872   0.00000  Uiso   1.00
H543   H     0.00908   0.46348   0.08966   0.00000  Uiso   1.00
H544   H     0.00645   0.42981   0.04002   0.00000  Uiso   1.00
N545   N     0.17525   0.58638   0.11197   0.00000  Uiso   1.00
O546   O     0.20472   0.60145   0.13807   0.00000  Uiso   1.00
O547   O     0.14888   0.61584   0.09506   0.00000  Uiso   1.00
N548   N     0.14263   0.41536   0.38613   0.00000  Uiso   1.00
O549   O     0.11408   0.41669   0.35481   0.00000  Uiso   1.00
O550   O     0.14938   0.37606   0.40611   0.00000  Uiso   1.00
N551   N     0.15879   0.58651   0.38733   0.00000  Uiso   1.00
O552   O     0.13045   0.60474   0.36145   0.00000  Uiso   1.00
O553   O     0.18710   0.61312   0.40459   0.00000  Uiso   1.00
N554   N     0.18293   0.41444   0.10982   0.00000  Uiso   1.00
O555   O     0.21306   0.41351   0.13937   0.00000  Uiso   1.00
O556   O     0.17574   0.37694   0.08718   0.00000  Uiso   1.00
O557   O     0.03491   0.41892   0.22475   0.00000  Uiso   1.00
C558   C     0.01564   0.41391   0.18183   0.00000  Uiso   1.00
H559   H     0.03750   0.39814   0.16036   0.00000  Uiso   1.00
H560   H     0.00661   0.44763   0.16613   0.00000  Uiso   1.00
C561   C     0.31254   0.38117   0.18084   0.00000  Uiso   1.00
H562   H     0.32059   0.34946   0.20009   0.00000  Uiso   1.00
H563   H     0.28648   0.39829   0.19520   0.00000  Uiso   1.00
C564   C     0.29940   0.36786   0.13362   0.00000  Uiso   1.00
H565   H     0.29221   0.39932   0.11366   0.00000  Uiso   1.00
H566   H     0.27188   0.34605   0.13314   0.00000  Uiso   1.00
H567   H     0.32383   0.34820   0.11853   0.00000  Uiso   1.00
O568   O     0.29435   0.58178   0.23198   0.00000  Uiso   1.00
C569   C     0.28417   0.57985   0.18626   0.00000  Uiso   1.00
H570   H     0.26848   0.61275   0.17768   0.00000  Uiso   1.00
H571   H     0.26268   0.55118   0.17792   0.00000  Uiso   1.00
C572   C     0.32104   0.57640   0.15801   0.00000  Uiso   1.00
H573   H     0.00684   0.60756   0.16303   0.00000  Uiso   1.00
H574   H     0.00632   0.54540   0.16692   0.00000  Uiso   1.00
C575   C     0.30748   0.57212   0.10955   0.00000  Uiso   1.00
H576   H     0.28923   0.54025   0.10395   0.00000  Uiso   1.00
H577   H     0.00108   0.56978   0.08985   0.00000  Uiso   1.00
H578   H     0.28909   0.60261   0.09852   0.00000  Uiso   1.00
O579   O     0.29841   0.41841   0.27509   0.00000  Uiso   1.00
C580   C     0.31726   0.41149   0.31799   0.00000  Uiso   1.00
H581   H     0.29539   0.39413   0.33835   0.00000  Uiso   1.00
H582   H     0.32539   0.44453   0.33533   0.00000  Uiso   1.00
C583   C     0.02082   0.37920   0.31825   0.00000  Uiso   1.00
H584   H     0.01315   0.34779   0.29854   0.00000  Uiso   1.00
H585   H     0.04654   0.39688   0.30399   0.00000  Uiso   1.00
C586   C     0.03437   0.36510   0.36520   0.00000  Uiso   1.00
H587   H     0.04048   0.39625   0.38580   0.00000  Uiso   1.00
H588   H     0.06266   0.34444   0.36541   0.00000  Uiso   1.00
H589   H     0.01062   0.34411   0.37979   0.00000  Uiso   1.00
O590   O     0.03865   0.58201   0.26758   0.00000  Uiso   1.00
C591   C     0.05083   0.58006   0.31286   0.00000  Uiso   1.00
H592   H     0.06565   0.61341   0.32096   0.00000  Uiso   1.00
H593   H     0.07372   0.55239   0.32004   0.00000  Uiso   1.00
C594   C     0.01555   0.57423   0.34291   0.00000  Uiso   1.00
H595   H     0.32808   0.60435   0.33925   0.00000  Uiso   1.00
H596   H     0.33142   0.54240   0.33450   0.00000  Uiso   1.00
C597   C     0.03161   0.56962   0.39056   0.00000  Uiso   1.00
H598   H     0.05318   0.54012   0.39431   0.00000  Uiso   1.00
H599   H     0.00616   0.56274   0.41138   0.00000  Uiso   1.00
H600   H     0.04713   0.60183   0.40179   0.00000  Uiso   1.00
O601   O     0.43988   0.53958   0.25000   0.00000  Uiso   1.00
O602   O     0.56012   0.46042   0.25001   0.00000  Uiso   1.00
O603   O     0.56012   0.53958   0.25001   0.00000  Uiso   1.00
O604   O     0.43988   0.46042   0.25000   0.00000  Uiso   1.00
N605   N     0.50000   0.61736   0.25000   0.00000  Uiso   1.00
N606   N     0.50000   0.38264   0.25000   0.00000  Uiso   1.00
C607   C     0.42071   0.49990   0.24902   0.00000  Uiso   1.00
C608   C     0.57931   0.49982   0.25101   0.00000  Uiso   1.00
O609   O     0.50000   0.53959   0.18573   0.00000  Uiso   1.00
O610   O     0.50000   0.46041   0.31427   0.00000  Uiso   1.00
O611   O     0.50000   0.53959   0.31427   0.00000  Uiso   1.00
O612   O     0.50000   0.46041   0.18573   0.00000  Uiso   1.00
C613   C     0.50238   0.50006   0.16519   0.00000  Uiso   1.00
C614   C     0.49691   0.50008   0.33473   0.00000  Uiso   1.00
Cu615  Cu    0.50000   0.54689   0.25000   0.00000  Uiso   1.00
Cu616  Cu    0.50000   0.45311   0.25000   0.00000  Uiso   1.00
C617   C     0.47613   0.35755   0.21967   0.00000  Uiso   1.00
C618   C     0.52787   0.64202   0.27570   0.00000  Uiso   1.00
C619   C     0.52380   0.35735   0.28029   0.00000  Uiso   1.00
C620   C     0.47215   0.64222   0.22430   0.00000  Uiso   1.00
C621   C     0.35334   0.45831   0.24396   0.00000  Uiso   1.00
C622   C     0.64575   0.54074   0.24549   0.00000  Uiso   1.00
C623   C     0.64700   0.45831   0.25728   0.00000  Uiso   1.00
C624   C     0.35412   0.54079   0.25481   0.00000  Uiso   1.00
C625   C     0.51463   0.53903   0.04747   0.00000  Uiso   1.00
C626   C     0.49955   0.45948   0.45175   0.00000  Uiso   1.00
C627   C     0.47959   0.54060   0.45129   0.00000  Uiso   1.00
C628   C     0.48653   0.46174   0.04901   0.00000  Uiso   1.00
C629   C     0.51081   0.54144   0.09274   0.00000  Uiso   1.00
C630   C     0.48964   0.45811   0.40642   0.00000  Uiso   1.00
C631   C     0.48635   0.54203   0.40650   0.00000  Uiso   1.00
C632   C     0.50156   0.45840   0.09279   0.00000  Uiso   1.00
C633   C     0.50610   0.50004   0.11691   0.00000  Uiso   1.00
C634   C     0.49035   0.50021   0.38267   0.00000  Uiso   1.00
C635   C     0.49750   0.50061   0.02424   0.00000  Uiso   1.00
C636   C     0.49143   0.50028   0.47539   0.00000  Uiso   1.00
C637   C     0.62406   0.49946   0.25140   0.00000  Uiso   1.00
C638   C     0.37601   0.49954   0.24916   0.00000  Uiso   1.00
N639   N     0.45688   0.37814   0.18066   0.00000  Uiso   1.00
O640   O     0.43723   0.41670   0.18178   0.00000  Uiso   1.00
O641   O     0.45300   0.35420   0.14465   0.00000  Uiso   1.00
N642   N     0.56368   0.62052   0.29565   0.00000  Uiso   1.00
O643   O     0.56126   0.59057   0.32702   0.00000  Uiso   1.00
O644   O     0.59841   0.64038   0.29125   0.00000  Uiso   1.00
N645   N     0.54254   0.37776   0.31941   0.00000  Uiso   1.00
O646   O     0.56272   0.41583   0.31835   0.00000  Uiso   1.00
O647   O     0.54521   0.35405   0.35564   0.00000  Uiso   1.00
N648   N     0.43639   0.62092   0.20449   0.00000  Uiso   1.00
O649   O     0.43882   0.59155   0.17267   0.00000  Uiso   1.00
O650   O     0.40164   0.64081   0.20933   0.00000  Uiso   1.00
O651   O     0.52880   0.57789   0.02693   0.00000  Uiso   1.00
C652   C     0.56577   0.56782   0.00836   0.00000  Uiso   1.00
H653   H     0.56036   0.54651   0.47836   0.00000  Uiso   1.00
H654   H     0.58714   0.54893   0.03179   0.00000  Uiso   1.00
C655   C     0.58534   0.61339   0.49577   0.00000  Uiso   1.00
H656   H     0.56204   0.63683   0.47996   0.00000  Uiso   1.00
H657   H     0.59850   0.63078   0.02579   0.00000  Uiso   1.00
C658   C     0.61836   0.60530   0.46410   0.00000  Uiso   1.00
H659   H     0.63979   0.57834   0.47730   0.00000  Uiso   1.00
H660   H     0.63520   0.63786   0.45929   0.00000  Uiso   1.00
H661   H     0.60469   0.59373   0.43179   0.00000  Uiso   1.00
O662   O     0.51547   0.42020   0.47256   0.00000  Uiso   1.00
C663   C     0.55764   0.42561   0.48226   0.00000  Uiso   1.00
H664   H     0.56647   0.40278   0.01060   0.00000  Uiso   1.00
H665   H     0.56626   0.46137   0.49265   0.00000  Uiso   1.00
C666   C     0.58146   0.41074   0.44327   0.00000  Uiso   1.00
H667   H     0.57371   0.37445   0.43451   0.00000  Uiso   1.00
H668   H     0.57327   0.43324   0.41453   0.00000  Uiso   1.00
C669   C     0.62697   0.41397   0.45411   0.00000  Uiso   1.00
H670   H     0.63553   0.44986   0.46367   0.00000  Uiso   1.00
H671   H     0.64319   0.40432   0.42484   0.00000  Uiso   1.00
H672   H     0.63629   0.38981   0.48122   0.00000  Uiso   1.00
O673   O     0.46963   0.58198   0.47100   0.00000  Uiso   1.00
C674   C     0.43272   0.57862   0.49156   0.00000  Uiso   1.00
H675   H     0.43709   0.55948   0.02299   0.00000  Uiso   1.00
H676   H     0.40900   0.56071   0.47049   0.00000  Uiso   1.00
C677   C     0.41820   0.62772   0.00125   0.00000  Uiso   1.00
H678   H     0.44411   0.64867   0.01506   0.00000  Uiso   1.00
H679   H     0.40636   0.64440   0.47020   0.00000  Uiso   1.00
C680   C     0.38533   0.62793   0.03404   0.00000  Uiso   1.00
H681   H     0.35986   0.60548   0.02234   0.00000  Uiso   1.00
H682   H     0.37380   0.66371   0.03796   0.00000  Uiso   1.00
H683   H     0.39780   0.61524   0.06651   0.00000  Uiso   1.00
O684   O     0.46307   0.42599   0.03104   0.00000  Uiso   1.00
C685   C     0.42230   0.44079   0.02370   0.00000  Uiso   1.00
H686   H     0.40630   0.41453   0.00251   0.00000  Uiso   1.00
H687   H     0.41965   0.47403   0.00531   0.00000  Uiso   1.00
C688   C     0.40084   0.44437   0.06676   0.00000  Uiso   1.00
H689   H     0.40281   0.41058   0.08417   0.00000  Uiso   1.00
H690   H     0.41573   0.47105   0.08837   0.00000  Uiso   1.00
C691   C     0.35642   0.45788   0.05808   0.00000  Uiso   1.00
H692   H     0.35365   0.49046   0.03872   0.00000  Uiso   1.00
H693   H     0.34241   0.46348   0.08966   0.00000  Uiso   1.00
H694   H     0.33979   0.42981   0.04002   0.00000  Uiso   1.00
N695   N     0.50859   0.58638   0.11197   0.00000  Uiso   1.00
O696   O     0.53806   0.60145   0.13807   0.00000  Uiso   1.00
O697   O     0.48221   0.61584   0.09506   0.00000  Uiso   1.00
N698   N     0.47596   0.41536   0.38613   0.00000  Uiso   1.00
O699   O     0.44742   0.41669   0.35481   0.00000  Uiso   1.00
O700   O     0.48272   0.37606   0.40611   0.00000  Uiso   1.00
N701   N     0.49212   0.58651   0.38733   0.00000  Uiso   1.00
O702   O     0.46378   0.60474   0.36145   0.00000  Uiso   1.00
O703   O     0.52043   0.61312   0.40459   0.00000  Uiso   1.00
N704   N     0.51627   0.41444   0.10982   0.00000  Uiso   1.00
O705   O     0.54639   0.41351   0.13937   0.00000  Uiso   1.00
O706   O     0.50908   0.37694   0.08718   0.00000  Uiso   1.00
O707   O     0.36824   0.41892   0.22475   0.00000  Uiso   1.00
C708   C     0.34897   0.41391   0.18183   0.00000  Uiso   1.00
H709   H     0.37084   0.39814   0.16036   0.00000  Uiso   1.00
H710   H     0.33995   0.44763   0.16613   0.00000  Uiso   1.00
C711   C     0.64588   0.38117   0.18084   0.00000  Uiso   1.00
H712   H     0.65392   0.34946   0.20009   0.00000  Uiso   1.00
H713   H     0.61981   0.39829   0.19520   0.00000  Uiso   1.00
C714   C     0.63274   0.36786   0.13362   0.00000  Uiso   1.00
H715   H     0.62554   0.39932   0.11366   0.00000  Uiso   1.00
H716   H     0.60521   0.34605   0.13314   0.00000  Uiso   1.00
H717   H     0.65716   0.34820   0.11853   0.00000  Uiso   1.00
O718   O     0.62768   0.58178   0.23198   0.00000  Uiso   1.00
C719   C     0.61750   0.57985   0.18626   0.00000  Uiso   1.00
H720   H     0.60181   0.61275   0.17768   0.00000  Uiso   1.00
H721   H     0.59601   0.55118   0.17792   0.00000  Uiso   1.00
C722   C     0.65437   0.57640   0.15801   0.00000  Uiso   1.00
H723   H     0.34018   0.60756   0.16303   0.00000  Uiso   1.00
H724   H     0.33966   0.54540   0.16692   0.00000  Uiso   1.00
C725   C     0.64081   0.57212   0.10955   0.00000  Uiso   1.00
H726   H     0.62256   0.54025   0.10395   0.00000  Uiso   1.00
H727   H     0.33441   0.56978   0.08985   0.00000  Uiso   1.00
H728   H     0.62243   0.60261   0.09852   0.00000  Uiso   1.00
O729   O     0.63175   0.41841   0.27509   0.00000  Uiso   1.00
C730   C     0.65059   0.41149   0.31799   0.00000  Uiso   1.00
H731   H     0.62872   0.39413   0.33835   0.00000  Uiso   1.00
H732   H     0.65872   0.44453   0.33533   0.00000  Uiso   1.00
C733   C     0.35416   0.37920   0.31825   0.00000  Uiso   1.00
H734   H     0.34648   0.34779   0.29854   0.00000  Uiso   1.00
H735   H     0.37987   0.39688   0.30399   0.00000  Uiso   1.00
C736   C     0.36771   0.36510   0.36520   0.00000  Uiso   1.00
H737   H     0.37381   0.39625   0.38580   0.00000  Uiso   1.00
H738   H     0.39600   0.34444   0.36541   0.00000  Uiso   1.00
H739   H     0.34396   0.34411   0.37979   0.00000  Uiso   1.00
O740   O     0.37198   0.58201   0.26758   0.00000  Uiso   1.00
C741   C     0.38416   0.58006   0.31286   0.00000  Uiso   1.00
H742   H     0.39898   0.61341   0.32096   0.00000  Uiso   1.00
H743   H     0.40706   0.55239   0.32004   0.00000  Uiso   1.00
C744   C     0.34888   0.57423   0.34291   0.00000  Uiso   1.00
H745   H     0.66141   0.60435   0.33925   0.00000  Uiso   1.00
H746   H     0.66475   0.54240   0.33450   0.00000  Uiso   1.00
C747   C     0.36494   0.56962   0.39056   0.00000  Uiso   1.00
H748   H     0.38652   0.54012   0.39431   0.00000  Uiso   1.00
H749   H     0.33950   0.56274   0.41138   0.00000  Uiso   1.00
H750   H     0.38046   0.60183   0.40179   0.00000  Uiso   1.00
O751   O     0.77321   0.53958   0.25000   0.00000  Uiso   1.00
O752   O     0.89345   0.46042   0.25001   0.00000  Uiso   1.00
O753   O     0.89345   0.53958   0.25001   0.00000  Uiso   1.00
O754   O     0.77321   0.46042   0.25000   0.00000  Uiso   1.00
N755   N     0.83333   0.61736   0.25000   0.00000  Uiso   1.00
N756   N     0.83333   0.38264   0.25000   0.00000  Uiso   1.00
C757   C     0.75404   0.49990   0.24902   0.00000  Uiso   1.00
C758   C     0.91264   0.49982   0.25101   0.00000  Uiso   1.00
O759   O     0.83333   0.53959   0.18573   0.00000  Uiso   1.00
O760   O     0.83334   0.46041   0.31427   0.00000  Uiso   1.00
O761   O     0.83334   0.53959   0.31427   0.00000  Uiso   1.00
O762   O     0.83333   0.46041   0.18573   0.00000  Uiso   1.00
C763   C     0.83571   0.50006   0.16519   0.00000  Uiso   1.00
C764   C     0.83024   0.50008   0.33473   0.00000  Uiso   1.00
Cu765  Cu    0.83333   0.54689   0.25000   0.00000  Uiso   1.00
Cu766  Cu    0.83333   0.45311   0.25000   0.00000  Uiso   1.00
C767   C     0.80946   0.35755   0.21967   0.00000  Uiso   1.00
C768   C     0.86120   0.64202   0.27570   0.00000  Uiso   1.00
C769   C     0.85714   0.35735   0.28029   0.00000  Uiso   1.00
C770   C     0.80548   0.64222   0.22430   0.00000  Uiso   1.00
C771   C     0.68668   0.45831   0.24396   0.00000  Uiso   1.00
C772   C     0.97908   0.54074   0.24549   0.00000  Uiso   1.00
C773   C     0.98034   0.45831   0.25728   0.00000  Uiso   1.00
C774   C     0.68745   0.54079   0.25481   0.00000  Uiso   1.00
C775   C     0.84796   0.53903   0.04747   0.00000  Uiso   1.00
C776   C     0.83289   0.45948   0.45175   0.00000  Uiso   1.00
C777   C     0.81292   0.54060   0.45129   0.00000  Uiso   1.00
C778   C     0.81986   0.46174   0.04901   0.00000  Uiso   1.00
C779   C     0.84415   0.54144   0.09274   0.00000  Uiso   1.00
C780   C     0.82297   0.45811   0.40642   0.00000  Uiso   1.00
C781   C     0.81968   0.54203   0.40650   0.00000  Uiso   1.00
C782   C     0.83490   0.45840   0.09279   0.00000  Uiso   1.00
C783   C     0.83943   0.50004   0.11691   0.00000  Uiso   1.00
C784   C     0.82368   0.50021   0.38267   0.00000  Uiso   1.00
C785   C     0.83084   0.50061   0.02424   0.00000  Uiso   1.00
C786   C     0.82477   0.50028   0.47539   0.00000  Uiso   1.00
C787   C     0.95740   0.49946   0.25140   0.00000  Uiso   1.00
C788   C     0.70934   0.49954   0.24916   0.00000  Uiso   1.00
N789   N     0.79022   0.37814   0.18066   0.00000  Uiso   1.00
O790   O     0.77056   0.41670   0.18178   0.00000  Uiso   1.00
O791   O     0.78633   0.35420   0.14465   0.00000  Uiso   1.00
N792   N     0.89701   0.62052   0.29565   0.00000  Uiso   1.00
O793   O     0.89460   0.59057   0.32702   0.00000  Uiso   1.00
O794   O     0.93174   0.64038   0.29125   0.00000  Uiso   1.00
N795   N     0.87587   0.37776   0.31941   0.00000  Uiso   1.00
O796   O     0.89605   0.41583   0.31835   0.00000  Uiso   1.00
O797   O     0.87854   0.35405   0.35564   0.00000  Uiso   1.00
N798   N     0.76972   0.62092   0.20449   0.00000  Uiso   1.00
O799   O     0.77215   0.59155   0.17267   0.00000  Uiso   1.00
O800   O     0.73497   0.64081   0.20933   0.00000  Uiso   1.00
O801   O     0.86214   0.57789   0.02693   0.00000  Uiso   1.00
C802   C     0.89910   0.56782   0.00836   0.00000  Uiso   1.00
H803   H     0.89369   0.54651   0.47836   0.00000  Uiso   1.00
H804   H     0.92047   0.54893   0.03179   0.00000  Uiso   1.00
C805   C     0.91867   0.61339   0.49577   0.00000  Uiso   1.00
H806   H     0.89537   0.63683   0.47996   0.00000  Uiso   1.00
H807   H     0.93183   0.63078   0.02579   0.00000  Uiso   1.00
C808   C     0.95170   0.60530   0.46410   0.00000  Uiso   1.00
H809   H     0.97312   0.57834   0.47730   0.00000  Uiso   1.00
H810   H     0.96853   0.63786   0.45929   0.00000  Uiso   1.00
H811   H     0.93802   0.59373   0.43179   0.00000  Uiso   1.00
O812   O     0.84880   0.42020   0.47256   0.00000  Uiso   1.00
C813   C     0.89097   0.42561   0.48226   0.00000  Uiso   1.00
H814   H     0.89981   0.40278   0.01060   0.00000  Uiso   1.00
H815   H     0.89959   0.46137   0.49265   0.00000  Uiso   1.00
C816   C     0.91480   0.41074   0.44327   0.00000  Uiso   1.00
H817   H     0.90704   0.37445   0.43451   0.00000  Uiso   1.00
H818   H     0.90660   0.43324   0.41453   0.00000  Uiso   1.00
C819   C     0.96030   0.41397   0.45411   0.00000  Uiso   1.00
H820   H     0.96887   0.44986   0.46367   0.00000  Uiso   1.00
H821   H     0.97652   0.40432   0.42484   0.00000  Uiso   1.00
H822   H     0.96963   0.38981   0.48122   0.00000  Uiso   1.00
O823   O     0.80296   0.58198   0.47100   0.00000  Uiso   1.00
C824   C     0.76605   0.57862   0.49156   0.00000  Uiso   1.00
H825   H     0.77042   0.55948   0.02299   0.00000  Uiso   1.00
H826   H     0.74233   0.56071   0.47049   0.00000  Uiso   1.00
C827   C     0.75153   0.62772   0.00125   0.00000  Uiso   1.00
H828   H     0.77744   0.64867   0.01506   0.00000  Uiso   1.00
H829   H     0.73969   0.64440   0.47020   0.00000  Uiso   1.00
C830   C     0.71866   0.62793   0.03404   0.00000  Uiso   1.00
H831   H     0.69319   0.60548   0.02234   0.00000  Uiso   1.00
H832   H     0.70713   0.66371   0.03796   0.00000  Uiso   1.00
H833   H     0.73113   0.61524   0.06651   0.00000  Uiso   1.00
O834   O     0.79640   0.42599   0.03104   0.00000  Uiso   1.00
C835   C     0.75563   0.44079   0.02370   0.00000  Uiso   1.00
H836   H     0.73964   0.41453   0.00251   0.00000  Uiso   1.00
H837   H     0.75298   0.47403   0.00531   0.00000  Uiso   1.00
C838   C     0.73418   0.44437   0.06676   0.00000  Uiso   1.00
H839   H     0.73615   0.41058   0.08417   0.00000  Uiso   1.00
H840   H     0.74906   0.47105   0.08837   0.00000  Uiso   1.00
C841   C     0.68976   0.45788   0.05808   0.00000  Uiso   1.00
H842   H     0.68698   0.49046   0.03872   0.00000  Uiso   1.00
H843   H     0.67574   0.46348   0.08966   0.00000  Uiso   1.00
H844   H     0.67312   0.42981   0.04002   0.00000  Uiso   1.00
N845   N     0.84192   0.58638   0.11197   0.00000  Uiso   1.00
O846   O     0.87139   0.60145   0.13807   0.00000  Uiso   1.00
O847   O     0.81554   0.61584   0.09506   0.00000  Uiso   1.00
N848   N     0.80930   0.41536   0.38613   0.00000  Uiso   1.00
O849   O     0.78075   0.41669   0.35481   0.00000  Uiso   1.00
O850   O     0.81605   0.37606   0.40611   0.00000  Uiso   1.00
N851   N     0.82546   0.58651   0.38733   0.00000  Uiso   1.00
O852   O     0.79711   0.60474   0.36145   0.00000  Uiso   1.00
O853   O     0.85377   0.61312   0.40459   0.00000  Uiso   1.00
N854   N     0.84960   0.41444   0.10982   0.00000  Uiso   1.00
O855   O     0.87972   0.41351   0.13937   0.00000  Uiso   1.00
O856   O     0.84241   0.37694   0.08718   0.00000  Uiso   1.00
O857   O     0.70157   0.41892   0.22475   0.00000  Uiso   1.00
C858   C     0.68230   0.41391   0.18183   0.00000  Uiso   1.00
H859   H     0.70417   0.39814   0.16036   0.00000  Uiso   1.00
H860   H     0.67328   0.44763   0.16613   0.00000  Uiso   1.00
C861   C     0.97921   0.38117   0.18084   0.00000  Uiso   1.00
H862   H     0.98725   0.34946   0.20009   0.00000  Uiso   1.00
H863   H     0.95314   0.39829   0.19520   0.00000  Uiso   1.00
C864   C     0.96607   0.36786   0.13362   0.00000  Uiso   1.00
H865   H     0.95887   0.39932   0.11366   0.00000  Uiso   1.00
H866   H     0.93855   0.34605   0.13314   0.00000  Uiso   1.00
H867   H     0.99050   0.34820   0.11853   0.00000  Uiso   1.00
O868   O     0.96101   0.58178   0.23198   0.00000  Uiso   1.00
C869   C     0.95083   0.57985   0.18626   0.00000  Uiso   1.00
H870   H     0.93514   0.61275   0.17768   0.00000  Uiso   1.00
H871   H     0.92935   0.55118   0.17792   0.00000  Uiso   1.00
C872   C     0.98770   0.57640   0.15801   0.00000  Uiso   1.00
H873   H     0.67351   0.60756   0.16303   0.00000  Uiso   1.00
H874   H     0.67299   0.54540   0.16692   0.00000  Uiso   1.00
C875   C     0.97415   0.57212   0.10955   0.00000  Uiso   1.00
H876   H     0.95589   0.54025   0.10395   0.00000  Uiso   1.00
H877   H     0.66775   0.56978   0.08985   0.00000  Uiso   1.00
H878   H     0.95576   0.60261   0.09852   0.00000  Uiso   1.00
O879   O     0.96508   0.41841   0.27509   0.00000  Uiso   1.00
C880   C     0.98392   0.41149   0.31799   0.00000  Uiso   1.00
H881   H     0.96205   0.39413   0.33835   0.00000  Uiso   1.00
H882   H     0.99206   0.44453   0.33533   0.00000  Uiso   1.00
C883   C     0.68749   0.37920   0.31825   0.00000  Uiso   1.00
H884   H     0.67981   0.34779   0.29854   0.00000  Uiso   1.00
H885   H     0.71320   0.39688   0.30399   0.00000  Uiso   1.00
C886   C     0.70104   0.36510   0.36520   0.00000  Uiso   1.00
H887   H     0.70715   0.39625   0.38580   0.00000  Uiso   1.00
H888   H     0.72933   0.34444   0.36541   0.00000  Uiso   1.00
H889   H     0.67729   0.34411   0.37979   0.00000  Uiso   1.00
O890   O     0.70532   0.58201   0.26758   0.00000  Uiso   1.00
C891   C     0.71749   0.58006   0.31286   0.00000  Uiso   1.00
H892   H     0.73232   0.61341   0.32096   0.00000  Uiso   1.00
H893   H     0.74039   0.55239   0.32004   0.00000  Uiso   1.00
C894   C     0.68221   0.57423   0.34291   0.00000  Uiso   1.00
H895   H     0.99475   0.60435   0.33925   0.00000  Uiso   1.00
H896   H     0.99809   0.54240   0.33450   0.00000  Uiso   1.00
C897   C     0.69828   0.56962   0.39056   0.00000  Uiso   1.00
H898   H     0.71985   0.54012   0.39431   0.00000  Uiso   1.00
H899   H     0.67283   0.56274   0.41138   0.00000  Uiso   1.00
H900   H     0.71379   0.60183   0.40179   0.00000  Uiso   1.00
O901   O     0.10655   0.87291   0.25000   0.00000  Uiso   1.00
O902   O     0.22679   0.79375   0.25001   0.00000  Uiso   1.00
O903   O     0.22679   0.87291   0.25001   0.00000  Uiso   1.00
O904   O     0.10655   0.79375   0.25000   0.00000  Uiso   1.00
N905   N     0.16667   0.95069   0.25000   0.00000  Uiso   1.00
N906   N     0.16667   0.71598   0.25000   0.00000  Uiso   1.00
C907   C     0.08737   0.83323   0.24902   0.00000  Uiso   1.00
C908   C     0.24598   0.83315   0.25101   0.00000  Uiso   1.00
O909   O     0.16666   0.87293   0.18573   0.00000  Uiso   1.00
O910   O     0.16667   0.79374   0.31427   0.00000  Uiso   1.00
O911   O     0.16667   0.87293   0.31427   0.00000  Uiso   1.00
O912   O     0.16666   0.79374   0.18573   0.00000  Uiso   1.00
C913   C     0.16905   0.83339   0.16519   0.00000  Uiso   1.00
C914   C     0.16357   0.83341   0.33473   0.00000  Uiso   1.00
Cu915  Cu    0.16667   0.88022   0.25000   0.00000  Uiso   1.00
Cu916  Cu    0.16667   0.78645   0.25000   0.00000  Uiso   1.00
C917   C     0.14280   0.69088   0.21967   0.00000  Uiso   1.00
C918   C     0.19454   0.97535   0.27570   0.00000  Uiso   1.00
C919   C     0.19047   0.69068   0.28029   0.00000  Uiso   1.00
C920   C     0.13882   0.97556   0.22430   0.00000  Uiso   1.00
C921   C     0.02001   0.79164   0.24396   0.00000  Uiso   1.00
C922   C     0.31242   0.87408   0.24549   0.00000  Uiso   1.00
C923   C     0.31367   0.79164   0.25728   0.00000  Uiso   1.00
C924   C     0.02079   0.87413   0.25481   0.00000  Uiso   1.00
C925   C     0.18129   0.87236   0.04747   0.00000  Uiso   1.00
C926   C     0.16622   0.79282   0.45175   0.00000  Uiso   1.00
C927   C     0.14626   0.87394   0.45129   0.00000  Uiso   1.00
C928   C     0.15319   0.79508   0.04901   0.00000  Uiso   1.00
C929   C     0.17748   0.87477   0.09274   0.00000  Uiso   1.00
C930   C     0.15630   0.79144   0.40642   0.00000  Uiso   1.00
C931   C     0.15301   0.87536   0.40650   0.00000  Uiso   1.00
C932   C     0.16823   0.79174   0.09279   0.00000  Uiso   1.00
C933   C     0.17277   0.83337   0.11691   0.00000  Uiso   1.00
C934   C     0.15701   0.83354   0.38267   0.00000  Uiso   1.00
C935   C     0.16417   0.83394   0.02424   0.00000  Uiso   1.00
C936   C     0.15810   0.83361   0.47539   0.00000  Uiso   1.00
C937   C     0.29073   0.83280   0.25140   0.00000  Uiso   1.00
C938   C     0.04268   0.83287   0.24916   0.00000  Uiso   1.00
N939   N     0.12355   0.71147   0.18066   0.00000  Uiso   1.00
O940   O     0.10390   0.75004   0.18178   0.00000  Uiso   1.00
O941   O     0.11966   0.68753   0.14465   0.00000  Uiso   1.00
N942   N     0.23035   0.95386   0.29565   0.00000  Uiso   1.00
O943   O     0.22793   0.92390   0.32702   0.00000  Uiso   1.00
O944   O     0.26507   0.97371   0.29125   0.00000  Uiso   1.00
N945   N     0.20921   0.71110   0.31941   0.00000  Uiso   1.00
O946   O     0.22939   0.74917   0.31835   0.00000  Uiso   1.00
O947   O     0.21187   0.68739   0.35564   0.00000  Uiso   1.00
N948   N     0.10305   0.95425   0.20449   0.00000  Uiso   1.00
O949   O     0.10549   0.92488   0.17267   0.00000  Uiso   1.00
O950   O     0.06830   0.97415   0.20933   0.00000  Uiso   1.00
O951   O     0.19547   0.91122   0.02693   0.00000  Uiso   1.00
C952   C     0.23243   0.90116   0.00836   0.00000  Uiso   1.00
H953   H     0.22703   0.87984   0.47836   0.00000  Uiso   1.00
H954   H     0.25380   0.88226   0.03179   0.00000  Uiso   1.00
C955   C     0.25200   0.94672   0.49577   0.00000  Uiso   1.00
H956   H     0.22871   0.97017   0.47996   0.00000  Uiso   1.00
H957   H     0.26517   0.96411   0.02579   0.00000  Uiso   1.00
C958   C     0.28503   0.93863   0.46410   0.00000  Uiso   1.00
H959   H     0.30645   0.91168   0.47730   0.00000  Uiso   1.00
H960   H     0.30187   0.97119   0.45929   0.00000  Uiso   1.00
H961   H     0.27136   0.92706   0.43179   0.00000  Uiso   1.00
O962   O     0.18214   0.75353   0.47256   0.00000  Uiso   1.00
C963   C     0.22431   0.75894   0.48226   0.00000  Uiso   1.00
H964   H     0.23314   0.73611   0.01060   0.00000  Uiso   1.00
H965   H     0.23293   0.79470   0.49265   0.00000  Uiso   1.00
C966   C     0.24813   0.74407   0.44327   0.00000  Uiso   1.00
H967   H     0.24038   0.70778   0.43451   0.00000  Uiso   1.00
H968   H     0.23993   0.76657   0.41453   0.00000  Uiso   1.00
C969   C     0.29363   0.74730   0.45411   0.00000  Uiso   1.00
H970   H     0.30220   0.78319   0.46367   0.00000  Uiso   1.00
H971   H     0.30986   0.73766   0.42484   0.00000  Uiso   1.00
H972   H     0.30296   0.72314   0.48122   0.00000  Uiso   1.00
O973   O     0.13629   0.91531   0.47100   0.00000  Uiso   1.00
C974   C     0.09938   0.91195   0.49156   0.00000  Uiso   1.00
H975   H     0.10376   0.89281   0.02299   0.00000  Uiso   1.00
H976   H     0.07566   0.89405   0.47049   0.00000  Uiso   1.00
C977   C     0.08487   0.96106   0.00125   0.00000  Uiso   1.00
H978   H     0.11078   0.98200   0.01506   0.00000  Uiso   1.00
H979   H     0.07303   0.97774   0.47020   0.00000  Uiso   1.00
C980   C     0.05200   0.96126   0.03404   0.00000  Uiso   1.00
H981   H     0.02653   0.93881   0.02234   0.00000  Uiso   1.00
H982   H     0.04047   0.99705   0.03796   0.00000  Uiso   1.00
H983   H     0.06447   0.94857   0.06651   0.00000  Uiso   1.00
O984   O     0.12973   0.75932   0.03104   0.00000  Uiso   1.00
C985   C     0.08896   0.77412   0.02370   0.00000  Uiso   1.00
H986   H     0.07297   0.74787   0.00251   0.00000  Uiso   1.00
H987   H     0.08631   0.80736   0.00531   0.00000  Uiso   1.00
C988   C     0.06751   0.77771   0.06676   0.00000  Uiso   1.00
H989   H     0.06948   0.74391   0.08417   0.00000  Uiso   1.00
H990   H     0.08239   0.80438   0.08837   0.00000  Uiso   1.00
C991   C     0.02309   0.79121   0.05808   0.00000  Uiso   1.00
H992   H     0.02032   0.82380   0.03872   0.00000  Uiso   1.00
H993   H     0.00908   0.79682   0.08966   0.00000  Uiso   1.00
H994   H     0.00645   0.76314   0.04002   0.00000  Uiso   1.00
N995   N     0.17525   0.91971   0.11197   0.00000  Uiso   1.00
O996   O     0.20472   0.93478   0.13807   0.00000  Uiso   1.00
O997   O     0.14888   0.94918   0.09506   0.00000  Uiso   1.00
N998   N     0.14263   0.74870   0.38613   0.00000  Uiso   1.00
O999   O     0.11408   0.75003   0.35481   0.00000  Uiso   1.00
O1000  O     0.14938   0.70940   0.40611   0.00000  Uiso   1.00
N1001  N     0.15879   0.91984   0.38733   0.00000  Uiso   1.00
O1002  O     0.13045   0.93807   0.36145   0.00000  Uiso   1.00
O1003  O     0.18710   0.94645   0.40459   0.00000  Uiso   1.00
N1004  N     0.18293   0.74778   0.10982   0.00000  Uiso   1.00
O1005  O     0.21306   0.74684   0.13937   0.00000  Uiso   1.00
O1006  O     0.17574   0.71027   0.08718   0.00000  Uiso   1.00
O1007  O     0.03491   0.75226   0.22475   0.00000  Uiso   1.00
C1008  C     0.01564   0.74725   0.18183   0.00000  Uiso   1.00
H1009  H     0.03750   0.73147   0.16036   0.00000  Uiso   1.00
H1010  H     0.00661   0.78097   0.16613   0.00000  Uiso   1.00
C1011  C     0.31254   0.71451   0.18084   0.00000  Uiso   1.00
H1012  H     0.32059   0.68279   0.20009   0.00000  Uiso   1.00
H1013  H     0.28648   0.73162   0.19520   0.00000  Uiso   1.00
C1014  C     0.29940   0.70119   0.13362   0.00000  Uiso   1.00
H1015  H     0.29221   0.73265   0.11366   0.00000  Uiso   1.00
H1016  H     0.27188   0.67938   0.13314   0.00000  Uiso   1.00
H1017  H     0.32383   0.68154   0.11853   0.00000  Uiso   1.00
O1018  O     0.29435   0.91511   0.23198   0.00000  Uiso   1.00
C1019  C     0.28417   0.91319   0.18626   0.00000  Uiso   1.00
H1020  H     0.26848   0.94608   0.17768   0.00000  Uiso   1.00
H1021  H     0.26268   0.88451   0.17792   0.00000  Uiso   1.00
C1022  C     0.32104   0.90973   0.15801   0.00000  Uiso   1.00
H1023  H     0.00684   0.94090   0.16303   0.00000  Uiso   1.00
H1024  H     0.00632   0.87873   0.16692   0.00000  Uiso   1.00
C1025  C     0.30748   0.90545   0.10955   0.00000  Uiso   1.00
H1026  H     0.28923   0.87358   0.10395   0.00000  Uiso   1.00
H1027  H     0.00108   0.90311   0.08985   0.00000  Uiso   1.00
H1028  H     0.28909   0.93594   0.09852   0.00000  Uiso   1.00
O1029  O     0.29841   0.75174   0.27509   0.00000  Uiso   1.00
C1030  C     0.31726   0.74482   0.31799   0.00000  Uiso   1.00
H1031  H     0.29539   0.72746   0.33835   0.00000  Uiso   1.00
H1032  H     0.32539   0.77786   0.33533   0.00000  Uiso   1.00
C1033  C     0.02082   0.71254   0.31825   0.00000  Uiso   1.00
H1034  H     0.01315   0.68112   0.29854   0.00000  Uiso   1.00
H1035  H     0.04654   0.73021   0.30399   0.00000  Uiso   1.00
C1036  C     0.03437   0.69844   0.36520   0.00000  Uiso   1.00
H1037  H     0.04048   0.72959   0.38580   0.00000  Uiso   1.00
H1038  H     0.06266   0.67778   0.36541   0.00000  Uiso   1.00
H1039  H     0.01062   0.67744   0.37979   0.00000  Uiso   1.00
O1040  O     0.03865   0.91535   0.26758   0.00000  Uiso   1.00
C1041  C     0.05083   0.91339   0.31286   0.00000  Uiso   1.00
H1042  H     0.06565   0.94674   0.32096   0.00000  Uiso   1.00
H1043  H     0.07372   0.88572   0.32004   0.00000  Uiso   1.00
C1044  C     0.01555   0.90756   0.34291   0.00000  Uiso   1.00
H1045  H     0.32808   0.93769   0.33925   0.00000  Uiso   1.00
H1046  H     0.33142   0.87573   0.33450   0.00000  Uiso   1.00
C1047  C     0.03161   0.90296   0.39056   0.00000  Uiso   1.00
H1048  H     0.05318   0.87346   0.39431   0.00000  Uiso   1.00
H1049  H     0.00616   0.89607   0.41138   0.00000  Uiso   1.00
H1050  H     0.04713   0.93517   0.40179   0.00000  Uiso   1.00
O1051  O     0.43988   0.87291   0.25000   0.00000  Uiso   1.00
O1052  O     0.56012   0.79375   0.25001   0.00000  Uiso   1.00
O1053  O     0.56012   0.87291   0.25001   0.00000  Uiso   1.00
O1054  O     0.43988   0.79375   0.25000   0.00000  Uiso   1.00
N1055  N     0.50000   0.95069   0.25000   0.00000  Uiso   1.00
N1056  N     0.50000   0.71598   0.25000   0.00000  Uiso   1.00
C1057  C     0.42071   0.83323   0.24902   0.00000  Uiso   1.00
C1058  C     0.57931   0.83315   0.25101   0.00000  Uiso   1.00
O1059  O     0.50000   0.87293   0.18573   0.00000  Uiso   1.00
O1060  O     0.50000   0.79374   0.31427   0.00000  Uiso   1.00
O1061  O     0.50000   0.87293   0.31427   0.00000  Uiso   1.00
O1062  O     0.50000   0.79374   0.18573   0.00000  Uiso   1.00
C1063  C     0.50238   0.83339   0.16519   0.00000  Uiso   1.00
C1064  C     0.49691   0.83341   0.33473   0.00000  Uiso   1.00
Cu1065 Cu    0.50000   0.88022   0.25000   0.00000  Uiso   1.00
Cu1066 Cu    0.50000   0.78645   0.25000   0.00000  Uiso   1.00
C1067  C     0.47613   0.69088   0.21967   0.00000  Uiso   1.00
C1068  C     0.52787   0.97535   0.27570   0.00000  Uiso   1.00
C1069  C     0.52380   0.69068   0.28029   0.00000  Uiso   1.00
C1070  C     0.47215   0.97556   0.22430   0.00000  Uiso   1.00
C1071  C     0.35334   0.79164   0.24396   0.00000  Uiso   1.00
C1072  C     0.64575   0.87408   0.24549   0.00000  Uiso   1.00
C1073  C     0.64700   0.79164   0.25728   0.00000  Uiso   1.00
C1074  C     0.35412   0.87413   0.25481   0.00000  Uiso   1.00
C1075  C     0.51463   0.87236   0.04747   0.00000  Uiso   1.00
C1076  C     0.49955   0.79282   0.45175   0.00000  Uiso   1.00
C1077  C     0.47959   0.87394   0.45129   0.00000  Uiso   1.00
C1078  C     0.48653   0.79508   0.04901   0.00000  Uiso   1.00
C1079  C     0.51081   0.87477   0.09274   0.00000  Uiso   1.00
C1080  C     0.48964   0.79144   0.40642   0.00000  Uiso   1.00
C1081  C     0.48635   0.87536   0.40650   0.00000  Uiso   1.00
C1082  C     0.50156   0.79174   0.09279   0.00000  Uiso   1.00
C1083  C     0.50610   0.83337   0.11691   0.00000  Uiso   1.00
C1084  C     0.49035   0.83354   0.38267   0.00000  Uiso   1.00
C1085  C     0.49750   0.83394   0.02424   0.00000  Uiso   1.00
C1086  C     0.49143   0.83361   0.47539   0.00000  Uiso   1.00
C1087  C     0.62406   0.83280   0.25140   0.00000  Uiso   1.00
C1088  C     0.37601   0.83287   0.24916   0.00000  Uiso   1.00
N1089  N     0.45688   0.71147   0.18066   0.00000  Uiso   1.00
O1090  O     0.43723   0.75004   0.18178   0.00000  Uiso   1.00
O1091  O     0.45300   0.68753   0.14465   0.00000  Uiso   1.00
N1092  N     0.56368   0.95386   0.29565   0.00000  Uiso   1.00
O1093  O     0.56126   0.92390   0.32702   0.00000  Uiso   1.00
O1094  O     0.59841   0.97371   0.29125   0.00000  Uiso   1.00
N1095  N     0.54254   0.71110   0.31941   0.00000  Uiso   1.00
O1096  O     0.56272   0.74917   0.31835   0.00000  Uiso   1.00
O1097  O     0.54521   0.68739   0.35564   0.00000  Uiso   1.00
N1098  N     0.43639   0.95425   0.20449   0.00000  Uiso   1.00
O1099  O     0.43882   0.92488   0.17267   0.00000  Uiso   1.00
O1100  O     0.40164   0.97415   0.20933   0.00000  Uiso   1.00
O1101  O     0.52880   0.91122   0.02693   0.00000  Uiso   1.00
C1102  C     0.56577   0.90116   0.00836   0.00000  Uiso   1.00
H1103  H     0.56036   0.87984   0.47836   0.00000  Uiso   1.00
H1104  H     0.58714   0.88226   0.03179   0.00000  Uiso   1.00
C1105  C     0.58534   0.94672   0.49577   0.00000  Uiso   1.00
H1106  H     0.56204   0.97017   0.47996   0.00000  Uiso   1.00
H1107  H     0.59850   0.96411   0.02579   0.00000  Uiso   1.00
C1108  C     0.61836   0.93863   0.46410   0.00000  Uiso   1.00
H1109  H     0.63979   0.91168   0.47730   0.00000  Uiso   1.00
H1110  H     0.63520   0.97119   0.45929   0.00000  Uiso   1.00
H1111  H     0.60469   0.92706   0.43179   0.00000  Uiso   1.00
O1112  O     0.51547   0.75353   0.47256   0.00000  Uiso   1.00
C1113  C     0.55764   0.75894   0.48226   0.00000  Uiso   1.00
H1114  H     0.56647   0.73611   0.01060   0.00000  Uiso   1.00
H1115  H     0.56626   0.79470   0.49265   0.00000  Uiso   1.00
C1116  C     0.58146   0.74407   0.44327   0.00000  Uiso   1.00
H1117  H     0.57371   0.70778   0.43451   0.00000  Uiso   1.00
H1118  H     0.57327   0.76657   0.41453   0.00000  Uiso   1.00
C1119  C     0.62697   0.74730   0.45411   0.00000  Uiso   1.00
H1120  H     0.63553   0.78319   0.46367   0.00000  Uiso   1.00
H1121  H     0.64319   0.73766   0.42484   0.00000  Uiso   1.00
H1122  H     0.63629   0.72314   0.48122   0.00000  Uiso   1.00
O1123  O     0.46963   0.91531   0.47100   0.00000  Uiso   1.00
C1124  C     0.43272   0.91195   0.49156   0.00000  Uiso   1.00
H1125  H     0.43709   0.89281   0.02299   0.00000  Uiso   1.00
H1126  H     0.40900   0.89405   0.47049   0.00000  Uiso   1.00
C1127  C     0.41820   0.96106   0.00125   0.00000  Uiso   1.00
H1128  H     0.44411   0.98200   0.01506   0.00000  Uiso   1.00
H1129  H     0.40636   0.97774   0.47020   0.00000  Uiso   1.00
C1130  C     0.38533   0.96126   0.03404   0.00000  Uiso   1.00
H1131  H     0.35986   0.93881   0.02234   0.00000  Uiso   1.00
H1132  H     0.37380   0.99705   0.03796   0.00000  Uiso   1.00
H1133  H     0.39780   0.94857   0.06651   0.00000  Uiso   1.00
O1134  O     0.46307   0.75932   0.03104   0.00000  Uiso   1.00
C1135  C     0.42230   0.77412   0.02370   0.00000  Uiso   1.00
H1136  H     0.40630   0.74787   0.00251   0.00000  Uiso   1.00
H1137  H     0.41965   0.80736   0.00531   0.00000  Uiso   1.00
C1138  C     0.40084   0.77771   0.06676   0.00000  Uiso   1.00
H1139  H     0.40281   0.74391   0.08417   0.00000  Uiso   1.00
H1140  H     0.41573   0.80438   0.08837   0.00000  Uiso   1.00
C1141  C     0.35642   0.79121   0.05808   0.00000  Uiso   1.00
H1142  H     0.35365   0.82380   0.03872   0.00000  Uiso   1.00
H1143  H     0.34241   0.79682   0.08966   0.00000  Uiso   1.00
H1144  H     0.33979   0.76314   0.04002   0.00000  Uiso   1.00
N1145  N     0.50859   0.91971   0.11197   0.00000  Uiso   1.00
O1146  O     0.53806   0.93478   0.13807   0.00000  Uiso   1.00
O1147  O     0.48221   0.94918   0.09506   0.00000  Uiso   1.00
N1148  N     0.47596   0.74870   0.38613   0.00000  Uiso   1.00
O1149  O     0.44742   0.75003   0.35481   0.00000  Uiso   1.00
O1150  O     0.48272   0.70940   0.40611   0.00000  Uiso   1.00
N1151  N     0.49212   0.91984   0.38733   0.00000  Uiso   1.00
O1152  O     0.46378   0.93807   0.36145   0.00000  Uiso   1.00
O1153  O     0.52043   0.94645   0.40459   0.00000  Uiso   1.00
N1154  N     0.51627   0.74778   0.10982   0.00000  Uiso   1.00
O1155  O     0.54639   0.74684   0.13937   0.00000  Uiso   1.00
O1156  O     0.50908   0.71027   0.08718   0.00000  Uiso   1.00
O1157  O     0.36824   0.75226   0.22475   0.00000  Uiso   1.00
C1158  C     0.34897   0.74725   0.18183   0.00000  Uiso   1.00
H1159  H     0.37084   0.73147   0.16036   0.00000  Uiso   1.00
H1160  H     0.33995   0.78097   0.16613   0.00000  Uiso   1.00
C1161  C     0.64588   0.71451   0.18084   0.00000  Uiso   1.00
H1162  H     0.65392   0.68279   0.20009   0.00000  Uiso   1.00
H1163  H     0.61981   0.73162   0.19520   0.00000  Uiso   1.00
C1164  C     0.63274   0.70119   0.13362   0.00000  Uiso   1.00
H1165  H     0.62554   0.73265   0.11366   0.00000  Uiso   1.00
H1166  H     0.60521   0.67938   0.13314   0.00000  Uiso   1.00
H1167  H     0.65716   0.68154   0.11853   0.00000  Uiso   1.00
O1168  O     0.62768   0.91511   0.23198   0.00000  Uiso   1.00
C1169  C     0.61750   0.91319   0.18626   0.00000  Uiso   1.00
H1170  H     0.60181   0.94608   0.17768   0.00000  Uiso   1.00
H1171  H     0.59601   0.88451   0.17792   0.00000  Uiso   1.00
C1172  C     0.65437   0.90973   0.15801   0.00000  Uiso   1.00
H1173  H     0.34018   0.94090   0.16303   0.00000  Uiso   1.00
H1174  H     0.33966   0.87873   0.16692   0.00000  Uiso   1.00
C1175  C     0.64081   0.90545   0.10955   0.00000  Uiso   1.00
H1176  H     0.62256   0.87358   0.10395   0.00000  Uiso   1.00
H1177  H     0.33441   0.90311   0.08985   0.00000  Uiso   1.00
H1178  H     0.62243   0.93594   0.09852   0.00000  Uiso   1.00
O1179  O     0.63175   0.75174   0.27509   0.00000  Uiso   1.00
C1180  C     0.65059   0.74482   0.31799   0.00000  Uiso   1.00
H1181  H     0.62872   0.72746   0.33835   0.00000  Uiso   1.00
H1182  H     0.65872   0.77786   0.33533   0.00000  Uiso   1.00
C1183  C     0.35416   0.71254   0.31825   0.00000  Uiso   1.00
H1184  H     0.34648   0.68112   0.29854   0.00000  Uiso   1.00
H1185  H     0.37987   0.73021   0.30399   0.00000  Uiso   1.00
C1186  C     0.36771   0.69844   0.36520   0.00000  Uiso   1.00
H1187  H     0.37381   0.72959   0.38580   0.00000  Uiso   1.00
H1188  H     0.39600   0.67778   0.36541   0.00000  Uiso   1.00
H1189  H     0.34396   0.67744   0.37979   0.00000  Uiso   1.00
O1190  O     0.37198   0.91535   0.26758   0.00000  Uiso   1.00
C1191  C     0.38416   0.91339   0.31286   0.00000  Uiso   1.00
H1192  H     0.39898   0.94674   0.32096   0.00000  Uiso   1.00
H1193  H     0.40706   0.88572   0.32004   0.00000  Uiso   1.00
C1194  C     0.34888   0.90756   0.34291   0.00000  Uiso   1.00
H1195  H     0.66141   0.93769   0.33925   0.00000  Uiso   1.00
H1196  H     0.66475   0.87573   0.33450   0.00000  Uiso   1.00
C1197  C     0.36494   0.90296   0.39056   0.00000  Uiso   1.00
H1198  H     0.38652   0.87346   0.39431   0.00000  Uiso   1.00
H1199  H     0.33950   0.89607   0.41138   0.00000  Uiso   1.00
H1200  H     0.38046   0.93517   0.40179   0.00000  Uiso   1.00
O1201  O     0.77321   0.87291   0.25000   0.00000  Uiso   1.00
O1202  O     0.89345   0.79375   0.25001   0.00000  Uiso   1.00
O1203  O     0.89345   0.87291   0.25001   0.00000  Uiso   1.00
O1204  O     0.77321   0.79375   0.25000   0.00000  Uiso   1.00
N1205  N     0.83333   0.95069   0.25000   0.00000  Uiso   1.00
N1206  N     0.83333   0.71598   0.25000   0.00000  Uiso   1.00
C1207  C     0.75404   0.83323   0.24902   0.00000  Uiso   1.00
C1208  C     0.91264   0.83315   0.25101   0.00000  Uiso   1.00
O1209  O     0.83333   0.87293   0.18573   0.00000  Uiso   1.00
O1210  O     0.83334   0.79374   0.31427   0.00000  Uiso   1.00
O1211  O     0.83334   0.87293   0.31427   0.00000  Uiso   1.00
O1212  O     0.83333   0.79374   0.18573   0.00000  Uiso   1.00
C1213  C     0.83571   0.83339   0.16519   0.00000  Uiso   1.00
C1214  C     0.83024   0.83341   0.33473   0.00000  Uiso   1.00
Cu1215 Cu    0.83333   0.88022   0.25000   0.00000  Uiso   1.00
Cu1216 Cu    0.83333   0.78645   0.25000   0.00000  Uiso   1.00
C1217  C     0.80946   0.69088   0.21967   0.00000  Uiso   1.00
C1218  C     0.86120   0.97535   0.27570   0.00000  Uiso   1.00
C1219  C     0.85714   0.69068   0.28029   0.00000  Uiso   1.00
C1220  C     0.80548   0.97556   0.22430   0.00000  Uiso   1.00
C1221  C     0.68668   0.79164   0.24396   0.00000  Uiso   1.00
C1222  C     0.97908   0.87408   0.24549   0.00000  Uiso   1.00
C1223  C     0.98034   0.79164   0.25728   0.00000  Uiso   1.00
C1224  C     0.68745   0.87413   0.25481   0.00000  Uiso   1.00
C1225  C     0.84796   0.87236   0.04747   0.00000  Uiso   1.00
C1226  C     0.83289   0.79282   0.45175   0.00000  Uiso   1.00
C1227  C     0.81292   0.87394   0.45129   0.00000  Uiso   1.00
C1228  C     0.81986   0.79508   0.04901   0.00000  Uiso   1.00
C1229  C     0.84415   0.87477   0.09274   0.00000  Uiso   1.00
C1230  C     0.82297   0.79144   0.40642   0.00000  Uiso   1.00
C1231  C     0.81968   0.87536   0.40650   0.00000  Uiso   1.00
C1232  C     0.83490   0.79174   0.09279   0.00000  Uiso   1.00
C1233  C     0.83943   0.83337   0.11691   0.00000  Uiso   1.00
C1234  C     0.82368   0.83354   0.38267   0.00000  Uiso   1.00
C1235  C     0.83084   0.83394   0.02424   0.00000  Uiso   1.00
C1236  C     0.82477   0.83361   0.47539   0.00000  Uiso   1.00
C1237  C     0.95740   0.83280   0.25140   0.00000  Uiso   1.00
C1238  C     0.70934   0.83287   0.24916   0.00000  Uiso   1.00
N1239  N     0.79022   0.71147   0.18066   0.00000  Uiso   1.00
O1240  O     0.77056   0.75004   0.18178   0.00000  Uiso   1.00
O1241  O     0.78633   0.68753   0.14465   0.00000  Uiso   1.00
N1242  N     0.89701   0.95386   0.29565   0.00000  Uiso   1.00
O1243  O     0.89460   0.92390   0.32702   0.00000  Uiso   1.00
O1244  O     0.93174   0.97371   0.29125   0.00000  Uiso   1.00
N1245  N     0.87587   0.71110   0.31941   0.00000  Uiso   1.00
O1246  O     0.89605   0.74917   0.31835   0.00000  Uiso   1.00
O1247  O     0.87854   0.68739   0.35564   0.00000  Uiso   1.00
N1248  N     0.76972   0.95425   0.20449   0.00000  Uiso   1.00
O1249  O     0.77215   0.92488   0.17267   0.00000  Uiso   1.00
O1250  O     0.73497   0.97415   0.20933   0.00000  Uiso   1.00
O1251  O     0.86214   0.91122   0.02693   0.00000  Uiso   1.00
C1252  C     0.89910   0.90116   0.00836   0.00000  Uiso   1.00
H1253  H     0.89369   0.87984   0.47836   0.00000  Uiso   1.00
H1254  H     0.92047   0.88226   0.03179   0.00000  Uiso   1.00
C1255  C     0.91867   0.94672   0.49577   0.00000  Uiso   1.00
H1256  H     0.89537   0.97017   0.47996   0.00000  Uiso   1.00
H1257  H     0.93183   0.96411   0.02579   0.00000  Uiso   1.00
C1258  C     0.95170   0.93863   0.46410   0.00000  Uiso   1.00
H1259  H     0.97312   0.91168   0.47730   0.00000  Uiso   1.00
H1260  H     0.96853   0.97119   0.45929   0.00000  Uiso   1.00
H1261  H     0.93802   0.92706   0.43179   0.00000  Uiso   1.00
O1262  O     0.84880   0.75353   0.47256   0.00000  Uiso   1.00
C1263  C     0.89097   0.75894   0.48226   0.00000  Uiso   1.00
H1264  H     0.89981   0.73611   0.01060   0.00000  Uiso   1.00
H1265  H     0.89959   0.79470   0.49265   0.00000  Uiso   1.00
C1266  C     0.91480   0.74407   0.44327   0.00000  Uiso   1.00
H1267  H     0.90704   0.70778   0.43451   0.00000  Uiso   1.00
H1268  H     0.90660   0.76657   0.41453   0.00000  Uiso   1.00
C1269  C     0.96030   0.74730   0.45411   0.00000  Uiso   1.00
H1270  H     0.96887   0.78319   0.46367   0.00000  Uiso   1.00
H1271  H     0.97652   0.73766   0.42484   0.00000  Uiso   1.00
H1272  H     0.96963   0.72314   0.48122   0.00000  Uiso   1.00
O1273  O     0.80296   0.91531   0.47100   0.00000  Uiso   1.00
C1274  C     0.76605   0.91195   0.49156   0.00000  Uiso   1.00
H1275  H     0.77042   0.89281   0.02299   0.00000  Uiso   1.00
H1276  H     0.74233   0.89405   0.47049   0.00000  Uiso   1.00
C1277  C     0.75153   0.96106   0.00125   0.00000  Uiso   1.00
H1278  H     0.77744   0.98200   0.01506   0.00000  Uiso   1.00
H1279  H     0.73969   0.97774   0.47020   0.00000  Uiso   1.00
C1280  C     0.71866   0.96126   0.03404   0.00000  Uiso   1.00
H1281  H     0.69319   0.93881   0.02234   0.00000  Uiso   1.00
H1282  H     0.70713   0.99705   0.03796   0.00000  Uiso   1.00
H1283  H     0.73113   0.94857   0.06651   0.00000  Uiso   1.00
O1284  O     0.79640   0.75932   0.03104   0.00000  Uiso   1.00
C1285  C     0.75563   0.77412   0.02370   0.00000  Uiso   1.00
H1286  H     0.73964   0.74787   0.00251   0.00000  Uiso   1.00
H1287  H     0.75298   0.80736   0.00531   0.00000  Uiso   1.00
C1288  C     0.73418   0.77771   0.06676   0.00000  Uiso   1.00
H1289  H     0.73615   0.74391   0.08417   0.00000  Uiso   1.00
H1290  H     0.74906   0.80438   0.08837   0.00000  Uiso   1.00
C1291  C     0.68976   0.79121   0.05808   0.00000  Uiso   1.00
H1292  H     0.68698   0.82380   0.03872   0.00000  Uiso   1.00
H1293  H     0.67574   0.79682   0.08966   0.00000  Uiso   1.00
H1294  H     0.67312   0.76314   0.04002   0.00000  Uiso   1.00
N1295  N     0.84192   0.91971   0.11197   0.00000  Uiso   1.00
O1296  O     0.87139   0.93478   0.13807   0.00000  Uiso   1.00
O1297  O     0.81554   0.94918   0.09506   0.00000  Uiso   1.00
N1298  N     0.80930   0.74870   0.38613   0.00000  Uiso   1.00
O1299  O     0.78075   0.75003   0.35481   0.00000  Uiso   1.00
O1300  O     0.81605   0.70940   0.40611   0.00000  Uiso   1.00
N1301  N     0.82546   0.91984   0.38733   0.00000  Uiso   1.00
O1302  O     0.79711   0.93807   0.36145   0.00000  Uiso   1.00
O1303  O     0.85377   0.94645   0.40459   0.00000  Uiso   1.00
N1304  N     0.84960   0.74778   0.10982   0.00000  Uiso   1.00
O1305  O     0.87972   0.74684   0.13937   0.00000  Uiso   1.00
O1306  O     0.84241   0.71027   0.08718   0.00000  Uiso   1.00
O1307  O     0.70157   0.75226   0.22475   0.00000  Uiso   1.00
C1308  C     0.68230   0.74725   0.18183   0.00000  Uiso   1.00
H1309  H     0.70417   0.73147   0.16036   0.00000  Uiso   1.00
H1310  H     0.67328   0.78097   0.16613   0.00000  Uiso   1.00
C1311  C     0.97921   0.71451   0.18084   0.00000  Uiso   1.00
H1312  H     0.98725   0.68279   0.20009   0.00000  Uiso   1.00
H1313  H     0.95314   0.73162   0.19520   0.00000  Uiso   1.00
C1314  C     0.96607   0.70119   0.13362   0.00000  Uiso   1.00
H1315  H     0.95887   0.73265   0.11366   0.00000  Uiso   1.00
H1316  H     0.93855   0.67938   0.13314   0.00000  Uiso   1.00
H1317  H     0.99050   0.68154   0.11853   0.00000  Uiso   1.00
O1318  O     0.96101   0.91511   0.23198   0.00000  Uiso   1.00
C1319  C     0.95083   0.91319   0.18626   0.00000  Uiso   1.00
H1320  H     0.93514   0.94608   0.17768   0.00000  Uiso   1.00
H1321  H     0.92935   0.88451   0.17792   0.00000  Uiso   1.00
C1322  C     0.98770   0.90973   0.15801   0.00000  Uiso   1.00
H1323  H     0.67351   0.94090   0.16303   0.00000  Uiso   1.00
H1324  H     0.67299   0.87873   0.16692   0.00000  Uiso   1.00
C1325  C     0.97415   0.90545   0.10955   0.00000  Uiso   1.00
H1326  H     0.95589   0.87358   0.10395   0.00000  Uiso   1.00
H1327  H     0.66775   0.90311   0.08985   0.00000  Uiso   1.00
H1328  H     0.95576   0.93594   0.09852   0.00000  Uiso   1.00
O1329  O     0.96508   0.75174   0.27509   0.00000  Uiso   1.00
C1330  C     0.98392   0.74482   0.31799   0.00000  Uiso   1.00
H1331  H     0.96205   0.72746   0.33835   0.00000  Uiso   1.00
H1332  H     0.99206   0.77786   0.33533   0.00000  Uiso   1.00
C1333  C     0.68749   0.71254   0.31825   0.00000  Uiso   1.00
H1334  H     0.67981   0.68112   0.29854   0.00000  Uiso   1.00
H1335  H     0.71320   0.73021   0.30399   0.00000  Uiso   1.00
C1336  C     0.70104   0.69844   0.36520   0.00000  Uiso   1.00
H1337  H     0.70715   0.72959   0.38580   0.00000  Uiso   1.00
H1338  H     0.72933   0.67778   0.36541   0.00000  Uiso   1.00
H1339  H     0.67729   0.67744   0.37979   0.00000  Uiso   1.00
O1340  O     0.70532   0.91535   0.26758   0.00000  Uiso   1.00
C1341  C     0.71749   0.91339   0.31286   0.00000  Uiso   1.00
H1342  H     0.73232   0.94674   0.32096   0.00000  Uiso   1.00
H1343  H     0.74039   0.88572   0.32004   0.00000  Uiso   1.00
C1344  C     0.68221   0.90756   0.34291   0.00000  Uiso   1.00
H1345  H     0.99475   0.93769   0.33925   0.00000  Uiso   1.00
H1346  H     0.99809   0.87573   0.33450   0.00000  Uiso   1.00
C1347  C     0.69828   0.90296   0.39056   0.00000  Uiso   1.00
H1348  H     0.71985   0.87346   0.39431   0.00000  Uiso   1.00
H1349  H     0.67283   0.89607   0.41138   0.00000  Uiso   1.00
H1350  H     0.71379   0.93517   0.40179   0.00000  Uiso   1.00
O1351  O     0.10655   0.20625   0.75000   0.00000  Uiso   1.00
O1352  O     0.22679   0.12709   0.75001   0.00000  Uiso   1.00
O1353  O     0.22679   0.20625   0.75001   0.00000  Uiso   1.00
O1354  O     0.10655   0.12709   0.75000   0.00000  Uiso   1.00
N1355  N     0.16667   0.28402   0.75000   0.00000  Uiso   1.00
N1356  N     0.16667   0.04931   0.75000   0.00000  Uiso   1.00
C1357  C     0.08737   0.16657   0.74902   0.00000  Uiso   1.00
C1358  C     0.24598   0.16649   0.75101   0.00000  Uiso   1.00
O1359  O     0.16666   0.20626   0.68573   0.00000  Uiso   1.00
O1360  O     0.16667   0.12707   0.81427   0.00000  Uiso   1.00
O1361  O     0.16667   0.20626   0.81427   0.00000  Uiso   1.00
O1362  O     0.16666   0.12707   0.68573   0.00000  Uiso   1.00
C1363  C     0.16905   0.16673   0.66519   0.00000  Uiso   1.00
C1364  C     0.16357   0.16675   0.83473   0.00000  Uiso   1.00
Cu1365 Cu    0.16667   0.21355   0.75000   0.00000  Uiso   1.00
Cu1366 Cu    0.16667   0.11978   0.75000   0.00000  Uiso   1.00
C1367  C     0.14280   0.02421   0.71967   0.00000  Uiso   1.00
C1368  C     0.19454   0.30869   0.77570   0.00000  Uiso   1.00
C1369  C     0.19047   0.02401   0.78029   0.00000  Uiso   1.00
C1370  C     0.13882   0.30889   0.72430   0.00000  Uiso   1.00
C1371  C     0.02001   0.12497   0.74396   0.00000  Uiso   1.00
C1372  C     0.31242   0.20741   0.74549   0.00000  Uiso   1.00
C1373  C     0.31367   0.12497   0.75728   0.00000  Uiso   1.00
C1374  C     0.02079   0.20746   0.75481   0.00000  Uiso   1.00
C1375  C     0.18129   0.20570   0.54747   0.00000  Uiso   1.00
C1376  C     0.16622   0.12615   0.95175   0.00000  Uiso   1.00
C1377  C     0.14626   0.20727   0.95129   0.00000  Uiso   1.00
C1378  C     0.15319   0.12841   0.54901   0.00000  Uiso   1.00
C1379  C     0.17748   0.20811   0.59274   0.00000  Uiso   1.00
C1380  C     0.15630   0.12478   0.90642   0.00000  Uiso   1.00
C1381  C     0.15301   0.20870   0.90650   0.00000  Uiso   1.00
C1382  C     0.16823   0.12507   0.59279   0.00000  Uiso   1.00
C1383  C     0.17277   0.16671   0.61691   0.00000  Uiso   1.00
C1384  C     0.15701   0.16688   0.88267   0.00000  Uiso   1.00
C1385  C     0.16417   0.16728   0.52424   0.00000  Uiso   1.00
C1386  C     0.15810   0.16695   0.97539   0.00000  Uiso   1.00
C1387  C     0.29073   0.16613   0.75140   0.00000  Uiso   1.00
C1388  C     0.04268   0.16620   0.74916   0.00000  Uiso   1.00
N1389  N     0.12355   0.04480   0.68066   0.00000  Uiso   1.00
O1390  O     0.10390   0.08337   0.68178   0.00000  Uiso   1.00
O1391  O     0.11966   0.02087   0.64465   0.00000  Uiso   1.00
N1392  N     0.23035   0.28719   0.79565   0.00000  Uiso   1.00
O1393  O     0.22793   0.25723   0.82702   0.00000  Uiso   1.00
O1394  O     0.26507   0.30705   0.79125   0.00000  Uiso   1.00
N1395  N     0.20921   0.04443   0.81941   0.00000  Uiso   1.00
O1396  O     0.22939   0.08250   0.81835   0.00000  Uiso   1.00
O1397  O     0.21187   0.02072   0.85564   0.00000  Uiso   1.00
N1398  N     0.10305   0.28758   0.70449   0.00000  Uiso   1.00
O1399  O     0.10549   0.25821   0.67267   0.00000  Uiso   1.00
O1400  O     0.06830   0.30748   0.70933   0.00000  Uiso   1.00
O1401  O     0.19547   0.24455   0.52693   0.00000  Uiso   1.00
C1402  C     0.23243   0.23449   0.50836   0.00000  Uiso   1.00
H1403  H     0.22703   0.21317   0.97836   0.00000  Uiso   1.00
H1404  H     0.25380   0.21560   0.53179   0.00000  Uiso   1.00
C1405  C     0.25200   0.28005   0.99577   0.00000  Uiso   1.00
H1406  H     0.22871   0.30350   0.97996   0.00000  Uiso   1.00
H1407  H     0.26517   0.29744   0.52579   0.00000  Uiso   1.00
C1408  C     0.28503   0.27197   0.96410   0.00000  Uiso   1.00
H1409  H     0.30645   0.24501   0.97730   0.00000  Uiso   1.00
H1410  H     0.30187   0.30452   0.95929   0.00000  Uiso   1.00
H1411  H     0.27136   0.26040   0.93179   0.00000  Uiso   1.00
O1412  O     0.18214   0.08687   0.97256   0.00000  Uiso   1.00
C1413  C     0.22431   0.09227   0.98226   0.00000  Uiso   1.00
H1414  H     0.23314   0.06944   0.51060   0.00000  Uiso   1.00
H1415  H     0.23293   0.12804   0.99265   0.00000  Uiso   1.00
C1416  C     0.24813   0.07740   0.94327   0.00000  Uiso   1.00
H1417  H     0.24038   0.04112   0.93451   0.00000  Uiso   1.00
H1418  H     0.23993   0.09991   0.91453   0.00000  Uiso   1.00
C1419  C     0.29363   0.08064   0.95411   0.00000  Uiso   1.00
H1420  H     0.30220   0.11653   0.96367   0.00000  Uiso   1.00
H1421  H     0.30986   0.07099   0.92484   0.00000  Uiso   1.00
H1422  H     0.30296   0.05648   0.98122   0.00000  Uiso   1.00
O1423  O     0.13629   0.24864   0.97100   0.00000  Uiso   1.00
C1424  C     0.09938   0.24528   0.99156   0.00000  Uiso   1.00
H1425  H     0.10376   0.22614   0.52299   0.00000  Uiso   1.00
H1426  H     0.07566   0.22738   0.97049   0.00000  Uiso   1.00
C1427  C     0.08487   0.29439   0.50125   0.00000  Uiso   1.00
H1428  H     0.11078   0.31533   0.51506   0.00000  Uiso   1.00
H1429  H     0.07303   0.31107   0.97020   0.00000  Uiso   1.00
C1430  C     0.05200   0.29459   0.53404   0.00000  Uiso   1.00
H1431  H     0.02653   0.27215   0.52234   0.00000  Uiso   1.00
H1432  H     0.04047   0.33038   0.53796   0.00000  Uiso   1.00
H1433  H     0.06447   0.28190   0.56651   0.00000  Uiso   1.00
O1434  O     0.12973   0.09266   0.53104   0.00000  Uiso   1.00
C1435  C     0.08896   0.10746   0.52370   0.00000  Uiso   1.00
H1436  H     0.07297   0.08120   0.50251   0.00000  Uiso   1.00
H1437  H     0.08631   0.14069   0.50531   0.00000  Uiso   1.00
C1438  C     0.06751   0.11104   0.56676   0.00000  Uiso   1.00
H1439  H     0.06948   0.07724   0.58417   0.00000  Uiso   1.00
H1440  H     0.08239   0.13772   0.58837   0.00000  Uiso   1.00
C1441  C     0.02309   0.12454   0.55808   0.00000  Uiso   1.00
H1442  H     0.02032   0.15713   0.53872   0.00000  Uiso   1.00
H1443  H     0.00908   0.13015   0.58966   0.00000  Uiso   1.00
H1444  H     0.00645   0.09648   0.54002   0.00000  Uiso   1.00
N1445  N     0.17525   0.25305   0.61197   0.00000  Uiso   1.00
O1446  O     0.20472   0.26811   0.63807   0.00000  Uiso   1.00
O1447  O     0.14888   0.28251   0.59506   0.00000  Uiso   1.00
N1448  N     0.14263   0.08203   0.88613   0.00000  Uiso   1.00
O1449  O     0.11408   0.08336   0.85481   0.00000  Uiso   1.00
O1450  O     0.14938   0.04273   0.90611   0.00000  Uiso   1.00
N1451  N     0.15879   0.25317   0.88733   0.00000  Uiso   1.00
O1452  O     0.13045   0.27141   0.86145   0.00000  Uiso   1.00
O1453  O     0.18710   0.27979   0.90459   0.00000  Uiso   1.00
N1454  N     0.18293   0.08111   0.60982   0.00000  Uiso   1.00
O1455  O     0.21306   0.08018   0.63937   0.00000  Uiso   1.00
O1456  O     0.17574   0.04361   0.58718   0.00000  Uiso   1.00
O1457  O     0.03491   0.08559   0.72475   0.00000  Uiso   1.00
C1458  C     0.01564   0.08058   0.68183   0.00000  Uiso   1.00
H1459  H     0.03750   0.06481   0.66036   0.00000  Uiso   1.00
H1460  H     0.00661   0.11430   0.66613   0.00000  Uiso   1.00
C1461  C     0.31254   0.04784   0.68084   0.00000  Uiso   1.00
H1462  H     0.32059   0.01612   0.70009   0.00000  Uiso   1.00
H1463  H     0.28648   0.06495   0.69520   0.00000  Uiso   1.00
C1464  C     0.29940   0.03453   0.63362   0.00000  Uiso   1.00
H1465  H     0.29221   0.06599   0.61366   0.00000  Uiso   1.00
H1466  H     0.27188   0.01272   0.63314   0.00000  Uiso   1.00
H1467  H     0.32383   0.01487   0.61853   0.00000  Uiso   1.00
O1468  O     0.29435   0.24844   0.73198   0.00000  Uiso   1.00
C1469  C     0.28417   0.24652   0.68626   0.00000  Uiso   1.00
H1470  H     0.26848   0.27941   0.67768   0.00000  Uiso   1.00
H1471  H     0.26268   0.21784   0.67792   0.00000  Uiso   1.00
C1472  C     0.32104   0.24307   0.65801   0.00000  Uiso   1.00
H1473  H     0.00684   0.27423   0.66303   0.00000  Uiso   1.00
H1474  H     0.00632   0.21206   0.66692   0.00000  Uiso   1.00
C1475  C     0.30748   0.23879   0.60955   0.00000  Uiso   1.00
H1476  H     0.28923   0.20692   0.60395   0.00000  Uiso   1.00
H1477  H     0.00108   0.23644   0.58985   0.00000  Uiso   1.00
H1478  H     0.28909   0.26928   0.59852   0.00000  Uiso   1.00
O1479  O     0.29841   0.08508   0.77509   0.00000  Uiso   1.00
C1480  C     0.31726   0.07815   0.81799   0.00000  Uiso   1.00
H1481  H     0.29539   0.06079   0.83835   0.00000  Uiso   1.00
H1482  H     0.32539   0.11119   0.83533   0.00000  Uiso   1.00
C1483  C     0.02082   0.04587   0.81825   0.00000  Uiso   1.00
H1484  H     0.01315   0.01446   0.79854   0.00000  Uiso   1.00
H1485  H     0.04654   0.06355   0.80399   0.00000  Uiso   1.00
C1486  C     0.03437   0.03177   0.86520   0.00000  Uiso   1.00
H1487  H     0.04048   0.06292   0.88580   0.00000  Uiso   1.00
H1488  H     0.06266   0.01111   0.86541   0.00000  Uiso   1.00
H1489  H     0.01062   0.01077   0.87979   0.00000  Uiso   1.00
O1490  O     0.03865   0.24868   0.76758   0.00000  Uiso   1.00
C1491  C     0.05083   0.24672   0.81286   0.00000  Uiso   1.00
H1492  H     0.06565   0.28008   0.82096   0.00000  Uiso   1.00
H1493  H     0.07372   0.21906   0.82004   0.00000  Uiso   1.00
C1494  C     0.01555   0.24089   0.84291   0.00000  Uiso   1.00
H1495  H     0.32808   0.27102   0.83925   0.00000  Uiso   1.00
H1496  H     0.33142   0.20907   0.83450   0.00000  Uiso   1.00
C1497  C     0.03161   0.23629   0.89056   0.00000  Uiso   1.00
H1498  H     0.05318   0.20679   0.89431   0.00000  Uiso   1.00
H1499  H     0.00616   0.22941   0.91138   0.00000  Uiso   1.00
H1500  H     0.04713   0.26850   0.90179   0.00000  Uiso   1.00
O1501  O     0.43988   0.20625   0.75000   0.00000  Uiso   1.00
O1502  O     0.56012   0.12709   0.75001   0.00000  Uiso   1.00
O1503  O     0.56012   0.20625   0.75001   0.00000  Uiso   1.00
O1504  O     0.43988   0.12709   0.75000   0.00000  Uiso   1.00
N1505  N     0.50000   0.28402   0.75000   0.00000  Uiso   1.00
N1506  N     0.50000   0.04931   0.75000   0.00000  Uiso   1.00
C1507  C     0.42071   0.16657   0.74902   0.00000  Uiso   1.00
C1508  C     0.57931   0.16649   0.75101   0.00000  Uiso   1.00
O1509  O     0.50000   0.20626   0.68573   0.00000  Uiso   1.00
O1510  O     0.50000   0.12707   0.81427   0.00000  Uiso   1.00
O1511  O     0.50000   0.20626   0.81427   0.00000  Uiso   1.00
O1512  O     0.50000   0.12707   0.68573   0.00000  Uiso   1.00
C1513  C     0.50238   0.16673   0.66519   0.00000  Uiso   1.00
C1514  C     0.49691   0.16675   0.83473   0.00000  Uiso   1.00
Cu1515 Cu    0.50000   0.21355   0.75000   0.00000  Uiso   1.00
Cu1516 Cu    0.50000   0.11978   0.75000   0.00000  Uiso   1.00
C1517  C     0.47613   0.02421   0.71967   0.00000  Uiso   1.00
C1518  C     0.52787   0.30869   0.77570   0.00000  Uiso   1.00
C1519  C     0.52380   0.02401   0.78029   0.00000  Uiso   1.00
C1520  C     0.47215   0.30889   0.72430   0.00000  Uiso   1.00
C1521  C     0.35334   0.12497   0.74396   0.00000  Uiso   1.00
C1522  C     0.64575   0.20741   0.74549   0.00000  Uiso   1.00
C1523  C     0.64700   0.12497   0.75728   0.00000  Uiso   1.00
C1524  C     0.35412   0.20746   0.75481   0.00000  Uiso   1.00
C1525  C     0.51463   0.20570   0.54747   0.00000  Uiso   1.00
C1526  C     0.49955   0.12615   0.95175   0.00000  Uiso   1.00
C1527  C     0.47959   0.20727   0.95129   0.00000  Uiso   1.00
C1528  C     0.48653   0.12841   0.54901   0.00000  Uiso   1.00
C1529  C     0.51081   0.20811   0.59274   0.00000  Uiso   1.00
C1530  C     0.48964   0.12478   0.90642   0.00000  Uiso   1.00
C1531  C     0.48635   0.20870   0.90650   0.00000  Uiso   1.00
C1532  C     0.50156   0.12507   0.59279   0.00000  Uiso   1.00
C1533  C     0.50610   0.16671   0.61691   0.00000  Uiso   1.00
C1534  C     0.49035   0.16688   0.88267   0.00000  Uiso   1.00
C1535  C     0.49750   0.16728   0.52424   0.00000  Uiso   1.00
C1536  C     0.49143   0.16695   0.97539   0.00000  Uiso   1.00
C1537  C     0.62406   0.16613   0.75140   0.00000  Uiso   1.00
C1538  C     0.37601   0.16620   0.74916   0.00000  Uiso   1.00
N1539  N     0.45688   0.04480   0.68066   0.00000  Uiso   1.00
O1540  O     0.43723   0.08337   0.68178   0.00000  Uiso   1.00
O1541  O     0.45300   0.02087   0.64465   0.00000  Uiso   1.00
N1542  N     0.56368   0.28719   0.79565   0.00000  Uiso   1.00
O1543  O     0.56126   0.25723   0.82702   0.00000  Uiso   1.00
O1544  O     0.59841   0.30705   0.79125   0.00000  Uiso   1.00
N1545  N     0.54254   0.04443   0.81941   0.00000  Uiso   1.00
O1546  O     0.56272   0.08250   0.81835   0.00000  Uiso   1.00
O1547  O     0.54521   0.02072   0.85564   0.00000  Uiso   1.00
N1548  N     0.43639   0.28758   0.70449   0.00000  Uiso   1.00
O1549  O     0.43882   0.25821   0.67267   0.00000  Uiso   1.00
O1550  O     0.40164   0.30748   0.70933   0.00000  Uiso   1.00
O1551  O     0.52880   0.24455   0.52693   0.00000  Uiso   1.00
C1552  C     0.56577   0.23449   0.50836   0.00000  Uiso   1.00
H1553  H     0.56036   0.21317   0.97836   0.00000  Uiso   1.00
H1554  H     0.58714   0.21560   0.53179   0.00000  Uiso   1.00
C1555  C     0.58534   0.28005   0.99577   0.00000  Uiso   1.00
H1556  H     0.56204   0.30350   0.97996   0.00000  Uiso   1.00
H1557  H     0.59850   0.29744   0.52579   0.00000  Uiso   1.00
C1558  C     0.61836   0.27197   0.96410   0.00000  Uiso   1.00
H1559  H     0.63979   0.24501   0.97730   0.00000  Uiso   1.00
H1560  H     0.63520   0.30452   0.95929   0.00000  Uiso   1.00
H1561  H     0.60469   0.26040   0.93179   0.00000  Uiso   1.00
O1562  O     0.51547   0.08687   0.97256   0.00000  Uiso   1.00
C1563  C     0.55764   0.09227   0.98226   0.00000  Uiso   1.00
H1564  H     0.56647   0.06944   0.51060   0.00000  Uiso   1.00
H1565  H     0.56626   0.12804   0.99265   0.00000  Uiso   1.00
C1566  C     0.58146   0.07740   0.94327   0.00000  Uiso   1.00
H1567  H     0.57371   0.04112   0.93451   0.00000  Uiso   1.00
H1568  H     0.57327   0.09991   0.91453   0.00000  Uiso   1.00
C1569  C     0.62697   0.08064   0.95411   0.00000  Uiso   1.00
H1570  H     0.63553   0.11653   0.96367   0.00000  Uiso   1.00
H1571  H     0.64319   0.07099   0.92484   0.00000  Uiso   1.00
H1572  H     0.63629   0.05648   0.98122   0.00000  Uiso   1.00
O1573  O     0.46963   0.24864   0.97100   0.00000  Uiso   1.00
C1574  C     0.43272   0.24528   0.99156   0.00000  Uiso   1.00
H1575  H     0.43709   0.22614   0.52299   0.00000  Uiso   1.00
H1576  H     0.40900   0.22738   0.97049   0.00000  Uiso   1.00
C1577  C     0.41820   0.29439   0.50125   0.00000  Uiso   1.00
H1578  H     0.44411   0.31533   0.51506   0.00000  Uiso   1.00
H1579  H     0.40636   0.31107   0.97020   0.00000  Uiso   1.00
C1580  C     0.38533   0.29459   0.53404   0.00000  Uiso   1.00
H1581  H     0.35986   0.27215   0.52234   0.00000  Uiso   1.00
H1582  H     0.37380   0.33038   0.53796   0.00000  Uiso   1.00
H1583  H     0.39780   0.28190   0.56651   0.00000  Uiso   1.00
O1584  O     0.46307   0.09266   0.53104   0.00000  Uiso   1.00
C1585  C     0.42230   0.10746   0.52370   0.00000  Uiso   1.00
H1586  H     0.40630   0.08120   0.50251   0.00000  Uiso   1.00
H1587  H     0.41965   0.14069   0.50531   0.00000  Uiso   1.00
C1588  C     0.40084   0.11104   0.56676   0.00000  Uiso   1.00
H1589  H     0.40281   0.07724   0.58417   0.00000  Uiso   1.00
H1590  H     0.41573   0.13772   0.58837   0.00000  Uiso   1.00
C1591  C     0.35642   0.12454   0.55808   0.00000  Uiso   1.00
H1592  H     0.35365   0.15713   0.53872   0.00000  Uiso   1.00
H1593  H     0.34241   0.13015   0.58966   0.00000  Uiso   1.00
H1594  H     0.33979   0.09648   0.54002   0.00000  Uiso   1.00
N1595  N     0.50859   0.25305   0.61197   0.00000  Uiso   1.00
O1596  O     0.53806   0.26811   0.63807   0.00000  Uiso   1.00
O1597  O     0.48221   0.28251   0.59506   0.00000  Uiso   1.00
N1598  N     0.47596   0.08203   0.88613   0.00000  Uiso   1.00
O1599  O     0.44742   0.08336   0.85481   0.00000  Uiso   1.00
O1600  O     0.48272   0.04273   0.90611   0.00000  Uiso   1.00
N1601  N     0.49212   0.25317   0.88733   0.00000  Uiso   1.00
O1602  O     0.46378   0.27141   0.86145   0.00000  Uiso   1.00
O1603  O     0.52043   0.27979   0.90459   0.00000  Uiso   1.00
N1604  N     0.51627   0.08111   0.60982   0.00000  Uiso   1.00
O1605  O     0.54639   0.08018   0.63937   0.00000  Uiso   1.00
O1606  O     0.50908   0.04361   0.58718   0.00000  Uiso   1.00
O1607  O     0.36824   0.08559   0.72475   0.00000  Uiso   1.00
C1608  C     0.34897   0.08058   0.68183   0.00000  Uiso   1.00
H1609  H     0.37084   0.06481   0.66036   0.00000  Uiso   1.00
H1610  H     0.33995   0.11430   0.66613   0.00000  Uiso   1.00
C1611  C     0.64588   0.04784   0.68084   0.00000  Uiso   1.00
H1612  H     0.65392   0.01612   0.70009   0.00000  Uiso   1.00
H1613  H     0.61981   0.06495   0.69520   0.00000  Uiso   1.00
C1614  C     0.63274   0.03453   0.63362   0.00000  Uiso   1.00
H1615  H     0.62554   0.06599   0.61366   0.00000  Uiso   1.00
H1616  H     0.60521   0.01272   0.63314   0.00000  Uiso   1.00
H1617  H     0.65716   0.01487   0.61853   0.00000  Uiso   1.00
O1618  O     0.62768   0.24844   0.73198   0.00000  Uiso   1.00
C1619  C     0.61750   0.24652   0.68626   0.00000  Uiso   1.00
H1620  H     0.60181   0.27941   0.67768   0.00000  Uiso   1.00
H1621  H     0.59601   0.21784   0.67792   0.00000  Uiso   1.00
C1622  C     0.65437   0.24307   0.65801   0.00000  Uiso   1.00
H1623  H     0.34018   0.27423   0.66303   0.00000  Uiso   1.00
H1624  H     0.33966   0.21206   0.66692   0.00000  Uiso   1.00
C1625  C     0.64081   0.23879   0.60955   0.00000  Uiso   1.00
H1626  H     0.62256   0.20692   0.60395   0.00000  Uiso   1.00
H1627  H     0.33441   0.23644   0.58985   0.00000  Uiso   1.00
H1628  H     0.62243   0.26928   0.59852   0.00000  Uiso   1.00
O1629  O     0.63175   0.08508   0.77509   0.00000  Uiso   1.00
C1630  C     0.65059   0.07815   0.81799   0.00000  Uiso   1.00
H1631  H     0.62872   0.06079   0.83835   0.00000  Uiso   1.00
H1632  H     0.65872   0.11119   0.83533   0.00000  Uiso   1.00
C1633  C     0.35416   0.04587   0.81825   0.00000  Uiso   1.00
H1634  H     0.34648   0.01446   0.79854   0.00000  Uiso   1.00
H1635  H     0.37987   0.06355   0.80399   0.00000  Uiso   1.00
C1636  C     0.36771   0.03177   0.86520   0.00000  Uiso   1.00
H1637  H     0.37381   0.06292   0.88580   0.00000  Uiso   1.00
H1638  H     0.39600   0.01111   0.86541   0.00000  Uiso   1.00
H1639  H     0.34396   0.01077   0.87979   0.00000  Uiso   1.00
O1640  O     0.37198   0.24868   0.76758   0.00000  Uiso   1.00
C1641  C     0.38416   0.24672   0.81286   0.00000  Uiso   1.00
H1642  H     0.39898   0.28008   0.82096   0.00000  Uiso   1.00
H1643  H     0.40706   0.21906   0.82004   0.00000  Uiso   1.00
C1644  C     0.34888   0.24089   0.84291   0.00000  Uiso   1.00
H1645  H     0.66141   0.27102   0.83925   0.00000  Uiso   1.00
H1646  H     0.66475   0.20907   0.83450   0.00000  Uiso   1.00
C1647  C     0.36494   0.23629   0.89056   0.00000  Uiso   1.00
H1648  H     0.38652   0.20679   0.89431   0.00000  Uiso   1.00
H1649  H     0.33950   0.22941   0.91138   0.00000  Uiso   1.00
H1650  H     0.38046   0.26850   0.90179   0.00000  Uiso   1.00
O1651  O     0.77321   0.20625   0.75000   0.00000  Uiso   1.00
O1652  O     0.89345   0.12709   0.75001   0.00000  Uiso   1.00
O1653  O     0.89345   0.20625   0.75001   0.00000  Uiso   1.00
O1654  O     0.77321   0.12709   0.75000   0.00000  Uiso   1.00
N1655  N     0.83333   0.28402   0.75000   0.00000  Uiso   1.00
N1656  N     0.83333   0.04931   0.75000   0.00000  Uiso   1.00
C1657  C     0.75404   0.16657   0.74902   0.00000  Uiso   1.00
C1658  C     0.91264   0.16649   0.75101   0.00000  Uiso   1.00
O1659  O     0.83333   0.20626   0.68573   0.00000  Uiso   1.00
O1660  O     0.83334   0.12707   0.81427   0.00000  Uiso   1.00
O1661  O     0.83334   0.20626   0.81427   0.00000  Uiso   1.00
O1662  O     0.83333   0.12707   0.68573   0.00000  Uiso   1.00
C1663  C     0.83571   0.16673   0.66519   0.00000  Uiso   1.00
C1664  C     0.83024   0.16675   0.83473   0.00000  Uiso   1.00
Cu1665 Cu    0.83333   0.21355   0.75000   0.00000  Uiso   1.00
Cu1666 Cu    0.83333   0.11978   0.75000   0.00000  Uiso   1.00
C1667  C     0.80946   0.02421   0.71967   0.00000  Uiso   1.00
C1668  C     0.86120   0.30869   0.77570   0.00000  Uiso   1.00
C1669  C     0.85714   0.02401   0.78029   0.00000  Uiso   1.00
C1670  C     0.80548   0.30889   0.72430   0.00000  Uiso   1.00
C1671  C     0.68668   0.12497   0.74396   0.00000  Uiso   1.00
C1672  C     0.97908   0.20741   0.74549   0.00000  Uiso   1.00
C1673  C     0.98034   0.12497   0.75728   0.00000  Uiso   1.00
C1674  C     0.68745   0.20746   0.75481   0.00000  Uiso   1.00
C1675  C     0.84796   0.20570   0.54747   0.00000  Uiso   1.00
C1676  C     0.83289   0.12615   0.95175   0.00000  Uiso   1.00
C1677  C     0.81292   0.20727   0.95129   0.00000  Uiso   1.00
C1678  C     0.81986   0.12841   0.54901   0.00000  Uiso   1.00
C1679  C     0.84415   0.20811   0.59274   0.00000  Uiso   1.00
C1680  C     0.82297   0.12478   0.90642   0.00000  Uiso   1.00
C1681  C     0.81968   0.20870   0.90650   0.00000  Uiso   1.00
C1682  C     0.83490   0.12507   0.59279   0.00000  Uiso   1.00
C1683  C     0.83943   0.16671   0.61691   0.00000  Uiso   1.00
C1684  C     0.82368   0.16688   0.88267   0.00000  Uiso   1.00
C1685  C     0.83084   0.16728   0.52424   0.00000  Uiso   1.00
C1686  C     0.82477   0.16695   0.97539   0.00000  Uiso   1.00
C1687  C     0.95740   0.16613   0.75140   0.00000  Uiso   1.00
C1688  C     0.70934   0.16620   0.74916   0.00000  Uiso   1.00
N1689  N     0.79022   0.04480   0.68066   0.00000  Uiso   1.00
O1690  O     0.77056   0.08337   0.68178   0.00000  Uiso   1.00
O1691  O     0.78633   0.02087   0.64465   0.00000  Uiso   1.00
N1692  N     0.89701   0.28719   0.79565   0.00000  Uiso   1.00
O1693  O     0.89460   0.25723   0.82702   0.00000  Uiso   1.00
O1694  O     0.93174   0.30705   0.79125   0.00000  Uiso   1.00
N1695  N     0.87587   0.04443   0.81941   0.00000  Uiso   1.00
O1696  O     0.89605   0.08250   0.81835   0.00000  Uiso   1.00
O1697  O     0.87854   0.02072   0.85564   0.00000  Uiso   1.00
N1698  N     0.76972   0.28758   0.70449   0.00000  Uiso   1.00
O1699  O     0.77215   0.25821   0.67267   0.00000  Uiso   1.00
O1700  O     0.73497   0.30748   0.70933   0.00000  Uiso   1.00
O1701  O     0.86214   0.24455   0.52693   0.00000  Uiso   1.00
C1702  C     0.89910   0.23449   0.50836   0.00000  Uiso   1.00
H1703  H     0.89369   0.21317   0.97836   0.00000  Uiso   1.00
H1704  H     0.92047   0.21560   0.53179   0.00000  Uiso   1.00
C1705  C     0.91867   0.28005   0.99577   0.00000  Uiso   1.00
H1706  H     0.89537   0.30350   0.97996   0.00000  Uiso   1.00
H1707  H     0.93183   0.29744   0.52579   0.00000  Uiso   1.00
C1708  C     0.95170   0.27197   0.96410   0.00000  Uiso   1.00
H1709  H     0.97312   0.24501   0.97730   0.00000  Uiso   1.00
H1710  H     0.96853   0.30452   0.95929   0.00000  Uiso   1.00
H1711  H     0.93802   0.26040   0.93179   0.00000  Uiso   1.00
O1712  O     0.84880   0.08687   0.97256   0.00000  Uiso   1.00
C1713  C     0.89097   0.09227   0.98226   0.00000  Uiso   1.00
H1714  H     0.89981   0.06944   0.51060   0.00000  Uiso   1.00
H1715  H     0.89959   0.12804   0.99265   0.00000  Uiso   1.00
C1716  C     0.91480   0.07740   0.94327   0.00000  Uiso   1.00
H1717  H     0.90704   0.04112   0.93451   0.00000  Uiso   1.00
H1718  H     0.90660   0.09991   0.91453   0.00000  Uiso   1.00
C1719  C     0.96030   0.08064   0.95411   0.00000  Uiso   1.00
H1720  H     0.96887   0.11653   0.96367   0.00000  Uiso   1.00
H1721  H     0.97652   0.07099   0.92484   0.00000  Uiso   1.00
H1722  H     0.96963   0.05648   0.98122   0.00000  Uiso   1.00
O1723  O     0.80296   0.24864   0.97100   0.00000  Uiso   1.00
C1724  C     0.76605   0.24528   0.99156   0.00000  Uiso   1.00
H1725  H     0.77042   0.22614   0.52299   0.00000  Uiso   1.00
H1726  H     0.74233   0.22738   0.97049   0.00000  Uiso   1.00
C1727  C     0.75153   0.29439   0.50125   0.00000  Uiso   1.00
H1728  H     0.77744   0.31533   0.51506   0.00000  Uiso   1.00
H1729  H     0.73969   0.31107   0.97020   0.00000  Uiso   1.00
C1730  C     0.71866   0.29459   0.53404   0.00000  Uiso   1.00
H1731  H     0.69319   0.27215   0.52234   0.00000  Uiso   1.00
H1732  H     0.70713   0.33038   0.53796   0.00000  Uiso   1.00
H1733  H     0.73113   0.28190   0.56651   0.00000  Uiso   1.00
O1734  O     0.79640   0.09266   0.53104   0.00000  Uiso   1.00
C1735  C     0.75563   0.10746   0.52370   0.00000  Uiso   1.00
H1736  H     0.73964   0.08120   0.50251   0.00000  Uiso   1.00
H1737  H     0.75298   0.14069   0.50531   0.00000  Uiso   1.00
C1738  C     0.73418   0.11104   0.56676   0.00000  Uiso   1.00
H1739  H     0.73615   0.07724   0.58417   0.00000  Uiso   1.00
H1740  H     0.74906   0.13772   0.58837   0.00000  Uiso   1.00
C1741  C     0.68976   0.12454   0.55808   0.00000  Uiso   1.00
H1742  H     0.68698   0.15713   0.53872   0.00000  Uiso   1.00
H1743  H     0.67574   0.13015   0.58966   0.00000  Uiso   1.00
H1744  H     0.67312   0.09648   0.54002   0.00000  Uiso   1.00
N1745  N     0.84192   0.25305   0.61197   0.00000  Uiso   1.00
O1746  O     0.87139   0.26811   0.63807   0.00000  Uiso   1.00
O1747  O     0.81554   0.28251   0.59506   0.00000  Uiso   1.00
N1748  N     0.80930   0.08203   0.88613   0.00000  Uiso   1.00
O1749  O     0.78075   0.08336   0.85481   0.00000  Uiso   1.00
O1750  O     0.81605   0.04273   0.90611   0.00000  Uiso   1.00
N1751  N     0.82546   0.25317   0.88733   0.00000  Uiso   1.00
O1752  O     0.79711   0.27141   0.86145   0.00000  Uiso   1.00
O1753  O     0.85377   0.27979   0.90459   0.00000  Uiso   1.00
N1754  N     0.84960   0.08111   0.60982   0.00000  Uiso   1.00
O1755  O     0.87972   0.08018   0.63937   0.00000  Uiso   1.00
O1756  O     0.84241   0.04361   0.58718   0.00000  Uiso   1.00
O1757  O     0.70157   0.08559   0.72475   0.00000  Uiso   1.00
C1758  C     0.68230   0.08058   0.68183   0.00000  Uiso   1.00
H1759  H     0.70417   0.06481   0.66036   0.00000  Uiso   1.00
H1760  H     0.67328   0.11430   0.66613   0.00000  Uiso   1.00
C1761  C     0.97921   0.04784   0.68084   0.00000  Uiso   1.00
H1762  H     0.98725   0.01612   0.70009   0.00000  Uiso   1.00
H1763  H     0.95314   0.06495   0.69520   0.00000  Uiso   1.00
C1764  C     0.96607   0.03453   0.63362   0.00000  Uiso   1.00
H1765  H     0.95887   0.06599   0.61366   0.00000  Uiso   1.00
H1766  H     0.93855   0.01272   0.63314   0.00000  Uiso   1.00
H1767  H     0.99050   0.01487   0.61853   0.00000  Uiso   1.00
O1768  O     0.96101   0.24844   0.73198   0.00000  Uiso   1.00
C1769  C     0.95083   0.24652   0.68626   0.00000  Uiso   1.00
H1770  H     0.93514   0.27941   0.67768   0.00000  Uiso   1.00
H1771  H     0.92935   0.21784   0.67792   0.00000  Uiso   1.00
C1772  C     0.98770   0.24307   0.65801   0.00000  Uiso   1.00
H1773  H     0.67351   0.27423   0.66303   0.00000  Uiso   1.00
H1774  H     0.67299   0.21206   0.66692   0.00000  Uiso   1.00
C1775  C     0.97415   0.23879   0.60955   0.00000  Uiso   1.00
H1776  H     0.95589   0.20692   0.60395   0.00000  Uiso   1.00
H1777  H     0.66775   0.23644   0.58985   0.00000  Uiso   1.00
H1778  H     0.95576   0.26928   0.59852   0.00000  Uiso   1.00
O1779  O     0.96508   0.08508   0.77509   0.00000  Uiso   1.00
C1780  C     0.98392   0.07815   0.81799   0.00000  Uiso   1.00
H1781  H     0.96205   0.06079   0.83835   0.00000  Uiso   1.00
H1782  H     0.99206   0.11119   0.83533   0.00000  Uiso   1.00
C1783  C     0.68749   0.04587   0.81825   0.00000  Uiso   1.00
H1784  H     0.67981   0.01446   0.79854   0.00000  Uiso   1.00
H1785  H     0.71320   0.06355   0.80399   0.00000  Uiso   1.00
C1786  C     0.70104   0.03177   0.86520   0.00000  Uiso   1.00
H1787  H     0.70715   0.06292   0.88580   0.00000  Uiso   1.00
H1788  H     0.72933   0.01111   0.86541   0.00000  Uiso   1.00
H1789  H     0.67729   0.01077   0.87979   0.00000  Uiso   1.00
O1790  O     0.70532   0.24868   0.76758   0.00000  Uiso   1.00
C1791  C     0.71749   0.24672   0.81286   0.00000  Uiso   1.00
H1792  H     0.73232   0.28008   0.82096   0.00000  Uiso   1.00
H1793  H     0.74039   0.21906   0.82004   0.00000  Uiso   1.00
C1794  C     0.68221   0.24089   0.84291   0.00000  Uiso   1.00
H1795  H     0.99475   0.27102   0.83925   0.00000  Uiso   1.00
H1796  H     0.99809   0.20907   0.83450   0.00000  Uiso   1.00
C1797  C     0.69828   0.23629   0.89056   0.00000  Uiso   1.00
H1798  H     0.71985   0.20679   0.89431   0.00000  Uiso   1.00
H1799  H     0.67283   0.22941   0.91138   0.00000  Uiso   1.00
H1800  H     0.71379   0.26850   0.90179   0.00000  Uiso   1.00
O1801  O     0.10655   0.53958   0.75000   0.00000  Uiso   1.00
O1802  O     0.22679   0.46042   0.75001   0.00000  Uiso   1.00
O1803  O     0.22679   0.53958   0.75001   0.00000  Uiso   1.00
O1804  O     0.10655   0.46042   0.75000   0.00000  Uiso   1.00
N1805  N     0.16667   0.61736   0.75000   0.00000  Uiso   1.00
N1806  N     0.16667   0.38264   0.75000   0.00000  Uiso   1.00
C1807  C     0.08737   0.49990   0.74902   0.00000  Uiso   1.00
C1808  C     0.24598   0.49982   0.75101   0.00000  Uiso   1.00
O1809  O     0.16666   0.53959   0.68573   0.00000  Uiso   1.00
O1810  O     0.16667   0.46041   0.81427   0.00000  Uiso   1.00
O1811  O     0.16667   0.53959   0.81427   0.00000  Uiso   1.00
O1812  O     0.16666   0.46041   0.68573   0.00000  Uiso   1.00
C1813  C     0.16905   0.50006   0.66519   0.00000  Uiso   1.00
C1814  C     0.16357   0.50008   0.83473   0.00000  Uiso   1.00
Cu1815 Cu    0.16667   0.54689   0.75000   0.00000  Uiso   1.00
Cu1816 Cu    0.16667   0.45311   0.75000   0.00000  Uiso   1.00
C1817  C     0.14280   0.35755   0.71967   0.00000  Uiso   1.00
C1818  C     0.19454   0.64202   0.77570   0.00000  Uiso   1.00
C1819  C     0.19047   0.35735   0.78029   0.00000  Uiso   1.00
C1820  C     0.13882   0.64222   0.72430   0.00000  Uiso   1.00
C1821  C     0.02001   0.45831   0.74396   0.00000  Uiso   1.00
C1822  C     0.31242   0.54074   0.74549   0.00000  Uiso   1.00
C1823  C     0.31367   0.45831   0.75728   0.00000  Uiso   1.00
C1824  C     0.02079   0.54079   0.75481   0.00000  Uiso   1.00
C1825  C     0.18129   0.53903   0.54747   0.00000  Uiso   1.00
C1826  C     0.16622   0.45948   0.95175   0.00000  Uiso   1.00
C1827  C     0.14626   0.54060   0.95129   0.00000  Uiso   1.00
C1828  C     0.15319   0.46174   0.54901   0.00000  Uiso   1.00
C1829  C     0.17748   0.54144   0.59274   0.00000  Uiso   1.00
C1830  C     0.15630   0.45811   0.90642   0.00000  Uiso   1.00
C1831  C     0.15301   0.54203   0.90650   0.00000  Uiso   1.00
C1832  C     0.16823   0.45840   0.59279   0.00000  Uiso   1.00
C1833  C     0.17277   0.50004   0.61691   0.00000  Uiso   1.00
C1834  C     0.15701   0.50021   0.88267   0.00000  Uiso   1.00
C1835  C     0.16417   0.50061   0.52424   0.00000  Uiso   1.00
C1836  C     0.15810   0.50028   0.97539   0.00000  Uiso   1.00
C1837  C     0.29073   0.49946   0.75140   0.00000  Uiso   1.00
C1838  C     0.04268   0.49954   0.74916   0.00000  Uiso   1.00
N1839  N     0.12355   0.37814   0.68066   0.00000  Uiso   1.00
O1840  O     0.10390   0.41670   0.68178   0.00000  Uiso   1.00
O1841  O     0.11966   0.35420   0.64465   0.00000  Uiso   1.00
N1842  N     0.23035   0.62052   0.79565   0.00000  Uiso   1.00
O1843  O     0.22793   0.59057   0.82702   0.00000  Uiso   1.00
O1844  O     0.26507   0.64038   0.79125   0.00000  Uiso   1.00
N1845  N     0.20921   0.37776   0.81941   0.00000  Uiso   1.00
O1846  O     0.22939   0.41583   0.81835   0.00000  Uiso   1.00
O1847  O     0.21187   0.35405   0.85564   0.00000  Uiso   1.00
N1848  N     0.10305   0.62092   0.70449   0.00000  Uiso   1.00
O1849  O     0.10549   0.59155   0.67267   0.00000  Uiso   1.00
O1850  O     0.06830   0.64081   0.70933   0.00000  Uiso   1.00
O1851  O     0.19547   0.57789   0.52693   0.00000  Uiso   1.00
C1852  C     0.23243   0.56782   0.50836   0.00000  Uiso   1.00
H1853  H     0.22703   0.54651   0.97836   0.00000  Uiso   1.00
H1854  H     0.25380   0.54893   0.53179   0.00000  Uiso   1.00
C1855  C     0.25200   0.61339   0.99577   0.00000  Uiso   1.00
H1856  H     0.22871   0.63683   0.97996   0.00000  Uiso   1.00
H1857  H     0.26517   0.63078   0.52579   0.00000  Uiso   1.00
C1858  C     0.28503   0.60530   0.96410   0.00000  Uiso   1.00
H1859  H     0.30645   0.57834   0.97730   0.00000  Uiso   1.00
H1860  H     0.30187   0.63786   0.95929   0.00000  Uiso   1.00
H1861  H     0.27136   0.59373   0.93179   0.00000  Uiso   1.00
O1862  O     0.18214   0.42020   0.97256   0.00000  Uiso   1.00
C1863  C     0.22431   0.42561   0.98226   0.00000  Uiso   1.00
H1864  H     0.23314   0.40278   0.51060   0.00000  Uiso   1.00
H1865  H     0.23293   0.46137   0.99265   0.00000  Uiso   1.00
C1866  C     0.24813   0.41074   0.94327   0.00000  Uiso   1.00
H1867  H     0.24038   0.37445   0.93451   0.00000  Uiso   1.00
H1868  H     0.23993   0.43324   0.91453   0.00000  Uiso   1.00
C1869  C     0.29363   0.41397   0.95411   0.00000  Uiso   1.00
H1870  H     0.30220   0.44986   0.96367   0.00000  Uiso   1.00
H1871  H     0.30986   0.40432   0.92484   0.00000  Uiso   1.00
H1872  H     0.30296   0.38981   0.98122   0.00000  Uiso   1.00
O1873  O     0.13629   0.58198   0.97100   0.00000  Uiso   1.00
C1874  C     0.09938   0.57862   0.99156   0.00000  Uiso   1.00
H1875  H     0.10376   0.55948   0.52299   0.00000  Uiso   1.00
H1876  H     0.07566   0.56071   0.97049   0.00000  Uiso   1.00
C1877  C     0.08487   0.62772   0.50125   0.00000  Uiso   1.00
H1878  H     0.11078   0.64867   0.51506   0.00000  Uiso   1.00
H1879  H     0.07303   0.64440   0.97020   0.00000  Uiso   1.00
C1880  C     0.05200   0.62793   0.53404   0.00000  Uiso   1.00
H1881  H     0.02653   0.60548   0.52234   0.00000  Uiso   1.00
H1882  H     0.04047   0.66371   0.53796   0.00000  Uiso   1.00
H1883  H     0.06447   0.61524   0.56651   0.00000  Uiso   1.00
O1884  O     0.12973   0.42599   0.53104   0.00000  Uiso   1.00
C1885  C     0.08896   0.44079   0.52370   0.00000  Uiso   1.00
H1886  H     0.07297   0.41453   0.50251   0.00000  Uiso   1.00
H1887  H     0.08631   0.47403   0.50531   0.00000  Uiso   1.00
C1888  C     0.06751   0.44437   0.56676   0.00000  Uiso   1.00
H1889  H     0.06948   0.41058   0.58417   0.00000  Uiso   1.00
H1890  H     0.08239   0.47105   0.58837   0.00000  Uiso   1.00
C1891  C     0.02309   0.45788   0.55808   0.00000  Uiso   1.00
H1892  H     0.02032   0.49046   0.53872   0.00000  Uiso   1.00
H1893  H     0.00908   0.46348   0.58966   0.00000  Uiso   1.00
H1894  H     0.00645   0.42981   0.54002   0.00000  Uiso   1.00
N1895  N     0.17525   0.58638   0.61197   0.00000  Uiso   1.00
O1896  O     0.20472   0.60145   0.63807   0.00000  Uiso   1.00
O1897  O     0.14888   0.61584   0.59506   0.00000  Uiso   1.00
N1898  N     0.14263   0.41536   0.88613   0.00000  Uiso   1.00
O1899  O     0.11408   0.41669   0.85481   0.00000  Uiso   1.00
O1900  O     0.14938   0.37606   0.90611   0.00000  Uiso   1.00
N1901  N     0.15879   0.58651   0.88733   0.00000  Uiso   1.00
O1902  O     0.13045   0.60474   0.86145   0.00000  Uiso   1.00
O1903  O     0.18710   0.61312   0.90459   0.00000  Uiso   1.00
N1904  N     0.18293   0.41444   0.60982   0.00000  Uiso   1.00
O1905  O     0.21306   0.41351   0.63937   0.00000  Uiso   1.00
O1906  O     0.17574   0.37694   0.58718   0.00000  Uiso   1.00
O1907  O     0.03491   0.41892   0.72475   0.00000  Uiso   1.00
C1908  C     0.01564   0.41391   0.68183   0.00000  Uiso   1.00
H1909  H     0.03750   0.39814   0.66036   0.00000  Uiso   1.00
H1910  H     0.00661   0.44763   0.66613   0.00000  Uiso   1.00
C1911  C     0.31254   0.38117   0.68084   0.00000  Uiso   1.00
H1912  H     0.32059   0.34946   0.70009   0.00000  Uiso   1.00
H1913  H     0.28648   0.39829   0.69520   0.00000  Uiso   1.00
C1914  C     0.29940   0.36786   0.63362   0.00000  Uiso   1.00
H1915  H     0.29221   0.39932   0.61366   0.00000  Uiso   1.00
H1916  H     0.27188   0.34605   0.63314   0.00000  Uiso   1.00
H1917  H     0.32383   0.34820   0.61853   0.00000  Uiso   1.00
O1918  O     0.29435   0.58178   0.73198   0.00000  Uiso   1.00
C1919  C     0.28417   0.57985   0.68626   0.00000  Uiso   1.00
H1920  H     0.26848   0.61275   0.67768   0.00000  Uiso   1.00
H1921  H     0.26268   0.55118   0.67792   0.00000  Uiso   1.00
C1922  C     0.32104   0.57640   0.65801   0.00000  Uiso   1.00
H1923  H     0.00684   0.60756   0.66303   0.00000  Uiso   1.00
H1924  H     0.00632   0.54540   0.66692   0.00000  Uiso   1.00
C1925  C     0.30748   0.57212   0.60955   0.00000  Uiso   1.00
H1926  H     0.28923   0.54025   0.60395   0.00000  Uiso   1.00
H1927  H     0.00108   0.56978   0.58985   0.00000  Uiso   1.00
H1928  H     0.28909   0.60261   0.59852   0.00000  Uiso   1.00
O1929  O     0.29841   0.41841   0.77509   0.00000  Uiso   1.00
C1930  C     0.31726   0.41149   0.81799   0.00000  Uiso   1.00
H1931  H     0.29539   0.39413   0.83835   0.00000  Uiso   1.00
H1932  H     0.32539   0.44453   0.83533   0.00000  Uiso   1.00
C1933  C     0.02082   0.37920   0.81825   0.00000  Uiso   1.00
H1934  H     0.01315   0.34779   0.79854   0.00000  Uiso   1.00
H1935  H     0.04654   0.39688   0.80399   0.00000  Uiso   1.00
C1936  C     0.03437   0.36510   0.86520   0.00000  Uiso   1.00
H1937  H     0.04048   0.39625   0.88580   0.00000  Uiso   1.00
H1938  H     0.06266   0.34444   0.86541   0.00000  Uiso   1.00
H1939  H     0.01062   0.34411   0.87979   0.00000  Uiso   1.00
O1940  O     0.03865   0.58201   0.76758   0.00000  Uiso   1.00
C1941  C     0.05083   0.58006   0.81286   0.00000  Uiso   1.00
H1942  H     0.06565   0.61341   0.82096   0.00000  Uiso   1.00
H1943  H     0.07372   0.55239   0.82004   0.00000  Uiso   1.00
C1944  C     0.01555   0.57423   0.84291   0.00000  Uiso   1.00
H1945  H     0.32808   0.60435   0.83925   0.00000  Uiso   1.00
H1946  H     0.33142   0.54240   0.83450   0.00000  Uiso   1.00
C1947  C     0.03161   0.56962   0.89056   0.00000  Uiso   1.00
H1948  H     0.05318   0.54012   0.89431   0.00000  Uiso   1.00
H1949  H     0.00616   0.56274   0.91138   0.00000  Uiso   1.00
H1950  H     0.04713   0.60183   0.90179   0.00000  Uiso   1.00
O1951  O     0.43988   0.53958   0.75000   0.00000  Uiso   1.00
O1952  O     0.56012   0.46042   0.75001   0.00000  Uiso   1.00
O1953  O     0.56012   0.53958   0.75001   0.00000  Uiso   1.00
O1954  O     0.43988   0.46042   0.75000   0.00000  Uiso   1.00
N1955  N     0.50000   0.61736   0.75000   0.00000  Uiso   1.00
N1956  N     0.50000   0.38264   0.75000   0.00000  Uiso   1.00
C1957  C     0.42071   0.49990   0.74902   0.00000  Uiso   1.00
C1958  C     0.57931   0.49982   0.75101   0.00000  Uiso   1.00
O1959  O     0.50000   0.53959   0.68573   0.00000  Uiso   1.00
O1960  O     0.50000   0.46041   0.81427   0.00000  Uiso   1.00
O1961  O     0.50000   0.53959   0.81427   0.00000  Uiso   1.00
O1962  O     0.50000   0.46041   0.68573   0.00000  Uiso   1.00
C1963  C     0.50238   0.50006   0.66519   0.00000  Uiso   1.00
C1964  C     0.49691   0.50008   0.83473   0.00000  Uiso   1.00
Cu1965 Cu    0.50000   0.54689   0.75000   0.00000  Uiso   1.00
Cu1966 Cu    0.50000   0.45311   0.75000   0.00000  Uiso   1.00
C1967  C     0.47613   0.35755   0.71967   0.00000  Uiso   1.00
C1968  C     0.52787   0.64202   0.77570   0.00000  Uiso   1.00
C1969  C     0.52380   0.35735   0.78029   0.00000  Uiso   1.00
C1970  C     0.47215   0.64222   0.72430   0.00000  Uiso   1.00
C1971  C     0.35334   0.45831   0.74396   0.00000  Uiso   1.00
C1972  C     0.64575   0.54074   0.74549   0.00000  Uiso   1.00
C1973  C     0.64700   0.45831   0.75728   0.00000  Uiso   1.00
C1974  C     0.35412   0.54079   0.75481   0.00000  Uiso   1.00
C1975  C     0.51463   0.53903   0.54747   0.00000  Uiso   1.00
C1976  C     0.49955   0.45948   0.95175   0.00000  Uiso   1.00
C1977  C     0.47959   0.54060   0.95129   0.00000  Uiso   1.00
C1978  C     0.48653   0.46174   0.54901   0.00000  Uiso   1.00
C1979  C     0.51081   0.54144   0.59274   0.00000  Uiso   1.00
C1980  C     0.48964   0.45811   0.90642   0.00000  Uiso   1.00
C1981  C     0.48635   0.54203   0.90650   0.00000  Uiso   1.00
C1982  C     0.50156   0.45840   0.59279   0.00000  Uiso   1.00
C1983  C     0.50610   0.50004   0.61691   0.00000  Uiso   1.00
C1984  C     0.49035   0.50021   0.88267   0.00000  Uiso   1.00
C1985  C     0.49750   0.50061   0.52424   0.00000  Uiso   1.00
C1986  C     0.49143   0.50028   0.97539   0.00000  Uiso   1.00
C1987  C     0.62406   0.49946   0.75140   0.00000  Uiso   1.00
C1988  C     0.37601   0.49954   0.74916   0.00000  Uiso   1.00
N1989  N     0.45688   0.37814   0.68066   0.00000  Uiso   1.00
O1990  O     0.43723   0.41670   0.68178   0.00000  Uiso   1.00
O1991  O     0.45300   0.35420   0.64465   0.00000  Uiso   1.00
N1992  N     0.56368   0.62052   0.79565   0.00000  Uiso   1.00
O1993  O     0.56126   0.59057   0.82702   0.00000  Uiso   1.00
O1994  O     0.59841   0.64038   0.79125   0.00000  Uiso   1.00
N1995  N     0.54254   0.37776   0.81941   0.00000  Uiso   1.00
O1996  O     0.56272   0.41583   0.81835   0.00000  Uiso   1.00
O1997  O     0.54521   0.35405   0.85564   0.00000  Uiso   1.00
N1998  N     0.43639   0.62092   0.70449   0.00000  Uiso   1.00
O1999  O     0.43882   0.59155   0.67267   0.00000  Uiso   1.00
O2000  O     0.40164   0.64081   0.70933   0.00000  Uiso   1.00
O2001  O     0.52880   0.57789   0.52693   0.00000  Uiso   1.00
C2002  C     0.56577   0.56782   0.50836   0.00000  Uiso   1.00
H2003  H     0.56036   0.54651   0.97836   0.00000  Uiso   1.00
H2004  H     0.58714   0.54893   0.53179   0.00000  Uiso   1.00
C2005  C     0.58534   0.61339   0.99577   0.00000  Uiso   1.00
H2006  H     0.56204   0.63683   0.97996   0.00000  Uiso   1.00
H2007  H     0.59850   0.63078   0.52579   0.00000  Uiso   1.00
C2008  C     0.61836   0.60530   0.96410   0.00000  Uiso   1.00
H2009  H     0.63979   0.57834   0.97730   0.00000  Uiso   1.00
H2010  H     0.63520   0.63786   0.95929   0.00000  Uiso   1.00
H2011  H     0.60469   0.59373   0.93179   0.00000  Uiso   1.00
O2012  O     0.51547   0.42020   0.97256   0.00000  Uiso   1.00
C2013  C     0.55764   0.42561   0.98226   0.00000  Uiso   1.00
H2014  H     0.56647   0.40278   0.51060   0.00000  Uiso   1.00
H2015  H     0.56626   0.46137   0.99265   0.00000  Uiso   1.00
C2016  C     0.58146   0.41074   0.94327   0.00000  Uiso   1.00
H2017  H     0.57371   0.37445   0.93451   0.00000  Uiso   1.00
H2018  H     0.57327   0.43324   0.91453   0.00000  Uiso   1.00
C2019  C     0.62697   0.41397   0.95411   0.00000  Uiso   1.00
H2020  H     0.63553   0.44986   0.96367   0.00000  Uiso   1.00
H2021  H     0.64319   0.40432   0.92484   0.00000  Uiso   1.00
H2022  H     0.63629   0.38981   0.98122   0.00000  Uiso   1.00
O2023  O     0.46963   0.58198   0.97100   0.00000  Uiso   1.00
C2024  C     0.43272   0.57862   0.99156   0.00000  Uiso   1.00
H2025  H     0.43709   0.55948   0.52299   0.00000  Uiso   1.00
H2026  H     0.40900   0.56071   0.97049   0.00000  Uiso   1.00
C2027  C     0.41820   0.62772   0.50125   0.00000  Uiso   1.00
H2028  H     0.44411   0.64867   0.51506   0.00000  Uiso   1.00
H2029  H     0.40636   0.64440   0.97020   0.00000  Uiso   1.00
C2030  C     0.38533   0.62793   0.53404   0.00000  Uiso   1.00
H2031  H     0.35986   0.60548   0.52234   0.00000  Uiso   1.00
H2032  H     0.37380   0.66371   0.53796   0.00000  Uiso   1.00
H2033  H     0.39780   0.61524   0.56651   0.00000  Uiso   1.00
O2034  O     0.46307   0.42599   0.53104   0.00000  Uiso   1.00
C2035  C     0.42230   0.44079   0.52370   0.00000  Uiso   1.00
H2036  H     0.40630   0.41453   0.50251   0.00000  Uiso   1.00
H2037  H     0.41965   0.47403   0.50531   0.00000  Uiso   1.00
C2038  C     0.40084   0.44437   0.56676   0.00000  Uiso   1.00
H2039  H     0.40281   0.41058   0.58417   0.00000  Uiso   1.00
H2040  H     0.41573   0.47105   0.58837   0.00000  Uiso   1.00
C2041  C     0.35642   0.45788   0.55808   0.00000  Uiso   1.00
H2042  H     0.35365   0.49046   0.53872   0.00000  Uiso   1.00
H2043  H     0.34241   0.46348   0.58966   0.00000  Uiso   1.00
H2044  H     0.33979   0.42981   0.54002   0.00000  Uiso   1.00
N2045  N     0.50859   0.58638   0.61197   0.00000  Uiso   1.00
O2046  O     0.53806   0.60145   0.63807   0.00000  Uiso   1.00
O2047  O     0.48221   0.61584   0.59506   0.00000  Uiso   1.00
N2048  N     0.47596   0.41536   0.88613   0.00000  Uiso   1.00
O2049  O     0.44742   0.41669   0.85481   0.00000  Uiso   1.00
O2050  O     0.48272   0.37606   0.90611   0.00000  Uiso   1.00
N2051  N     0.49212   0.58651   0.88733   0.00000  Uiso   1.00
O2052  O     0.46378   0.60474   0.86145   0.00000  Uiso   1.00
O2053  O     0.52043   0.61312   0.90459   0.00000  Uiso   1.00
N2054  N     0.51627   0.41444   0.60982   0.00000  Uiso   1.00
O2055  O     0.54639   0.41351   0.63937   0.00000  Uiso   1.00
O2056  O     0.50908   0.37694   0.58718   0.00000  Uiso   1.00
O2057  O     0.36824   0.41892   0.72475   0.00000  Uiso   1.00
C2058  C     0.34897   0.41391   0.68183   0.00000  Uiso   1.00
H2059  H     0.37084   0.39814   0.66036   0.00000  Uiso   1.00
H2060  H     0.33995   0.44763   0.66613   0.00000  Uiso   1.00
C2061  C     0.64588   0.38117   0.68084   0.00000  Uiso   1.00
H2062  H     0.65392   0.34946   0.70009   0.00000  Uiso   1.00
H2063  H     0.61981   0.39829   0.69520   0.00000  Uiso   1.00
C2064  C     0.63274   0.36786   0.63362   0.00000  Uiso   1.00
H2065  H     0.62554   0.39932   0.61366   0.00000  Uiso   1.00
H2066  H     0.60521   0.34605   0.63314   0.00000  Uiso   1.00
H2067  H     0.65716   0.34820   0.61853   0.00000  Uiso   1.00
O2068  O     0.62768   0.58178   0.73198   0.00000  Uiso   1.00
C2069  C     0.61750   0.57985   0.68626   0.00000  Uiso   1.00
H2070  H     0.60181   0.61275   0.67768   0.00000  Uiso   1.00
H2071  H     0.59601   0.55118   0.67792   0.00000  Uiso   1.00
C2072  C     0.65437   0.57640   0.65801   0.00000  Uiso   1.00
H2073  H     0.34018   0.60756   0.66303   0.00000  Uiso   1.00
H2074  H     0.33966   0.54540   0.66692   0.00000  Uiso   1.00
C2075  C     0.64081   0.57212   0.60955   0.00000  Uiso   1.00
H2076  H     0.62256   0.54025   0.60395   0.00000  Uiso   1.00
H2077  H     0.33441   0.56978   0.58985   0.00000  Uiso   1.00
H2078  H     0.62243   0.60261   0.59852   0.00000  Uiso   1.00
O2079  O     0.63175   0.41841   0.77509   0.00000  Uiso   1.00
C2080  C     0.65059   0.41149   0.81799   0.00000  Uiso   1.00
H2081  H     0.62872   0.39413   0.83835   0.00000  Uiso   1.00
H2082  H     0.65872   0.44453   0.83533   0.00000  Uiso   1.00
C2083  C     0.35416   0.37920   0.81825   0.00000  Uiso   1.00
H2084  H     0.34648   0.34779   0.79854   0.00000  Uiso   1.00
H2085  H     0.37987   0.39688   0.80399   0.00000  Uiso   1.00
C2086  C     0.36771   0.36510   0.86520   0.00000  Uiso   1.00
H2087  H     0.37381   0.39625   0.88580   0.00000  Uiso   1.00
H2088  H     0.39600   0.34444   0.86541   0.00000  Uiso   1.00
H2089  H     0.34396   0.34411   0.87979   0.00000  Uiso   1.00
O2090  O     0.37198   0.58201   0.76758   0.00000  Uiso   1.00
C2091  C     0.38416   0.58006   0.81286   0.00000  Uiso   1.00
H2092  H     0.39898   0.61341   0.82096   0.00000  Uiso   1.00
H2093  H     0.40706   0.55239   0.82004   0.00000  Uiso   1.00
C2094  C     0.34888   0.57423   0.84291   0.00000  Uiso   1.00
H2095  H     0.66141   0.60435   0.83925   0.00000  Uiso   1.00
H2096  H     0.66475   0.54240   0.83450   0.00000  Uiso   1.00
C2097  C     0.36494   0.56962   0.89056   0.00000  Uiso   1.00
H2098  H     0.38652   0.54012   0.89431   0.00000  Uiso   1.00
H2099  H     0.33950   0.56274   0.91138   0.00000  Uiso   1.00
H2100  H     0.38046   0.60183   0.90179   0.00000  Uiso   1.00
O2101  O     0.77321   0.53958   0.75000   0.00000  Uiso   1.00
O2102  O     0.89345   0.46042   0.75001   0.00000  Uiso   1.00
O2103  O     0.89345   0.53958   0.75001   0.00000  Uiso   1.00
O2104  O     0.77321   0.46042   0.75000   0.00000  Uiso   1.00
N2105  N     0.83333   0.61736   0.75000   0.00000  Uiso   1.00
N2106  N     0.83333   0.38264   0.75000   0.00000  Uiso   1.00
C2107  C     0.75404   0.49990   0.74902   0.00000  Uiso   1.00
C2108  C     0.91264   0.49982   0.75101   0.00000  Uiso   1.00
O2109  O     0.83333   0.53959   0.68573   0.00000  Uiso   1.00
O2110  O     0.83334   0.46041   0.81427   0.00000  Uiso   1.00
O2111  O     0.83334   0.53959   0.81427   0.00000  Uiso   1.00
O2112  O     0.83333   0.46041   0.68573   0.00000  Uiso   1.00
C2113  C     0.83571   0.50006   0.66519   0.00000  Uiso   1.00
C2114  C     0.83024   0.50008   0.83473   0.00000  Uiso   1.00
Cu2115 Cu    0.83333   0.54689   0.75000   0.00000  Uiso   1.00
Cu2116 Cu    0.83333   0.45311   0.75000   0.00000  Uiso   1.00
C2117  C     0.80946   0.35755   0.71967   0.00000  Uiso   1.00
C2118  C     0.86120   0.64202   0.77570   0.00000  Uiso   1.00
C2119  C     0.85714   0.35735   0.78029   0.00000  Uiso   1.00
C2120  C     0.80548   0.64222   0.72430   0.00000  Uiso   1.00
C2121  C     0.68668   0.45831   0.74396   0.00000  Uiso   1.00
C2122  C     0.97908   0.54074   0.74549   0.00000  Uiso   1.00
C2123  C     0.98034   0.45831   0.75728   0.00000  Uiso   1.00
C2124  C     0.68745   0.54079   0.75481   0.00000  Uiso   1.00
C2125  C     0.84796   0.53903   0.54747   0.00000  Uiso   1.00
C2126  C     0.83289   0.45948   0.95175   0.00000  Uiso   1.00
C2127  C     0.81292   0.54060   0.95129   0.00000  Uiso   1.00
C2128  C     0.81986   0.46174   0.54901   0.00000  Uiso   1.00
C2129  C     0.84415   0.54144   0.59274   0.00000  Uiso   1.00
C2130  C     0.82297   0.45811   0.90642   0.00000  Uiso   1.00
C2131  C     0.81968   0.54203   0.90650   0.00000  Uiso   1.00
C2132  C     0.83490   0.45840   0.59279   0.00000  Uiso   1.00
C2133  C     0.83943   0.50004   0.61691   0.00000  Uiso   1.00
C2134  C     0.82368   0.50021   0.88267   0.00000  Uiso   1.00
C2135  C     0.83084   0.50061   0.52424   0.00000  Uiso   1.00
C2136  C     0.82477   0.50028   0.97539   0.00000  Uiso   1.00
C2137  C     0.95740   0.49946   0.75140   0.00000  Uiso   1.00
C2138  C     0.70934   0.49954   0.74916   0.00000  Uiso   1.00
N2139  N     0.79022   0.37814   0.68066   0.00000  Uiso   1.00
O2140  O     0.77056   0.41670   0.68178   0.00000  Uiso   1.00
O2141  O     0.78633   0.35420   0.64465   0.00000  Uiso   1.00
N2142  N     0.89701   0.62052   0.79565   0.00000  Uiso   1.00
O2143  O     0.89460   0.59057   0.82702   0.00000  Uiso   1.00
O2144  O     0.93174   0.64038   0.79125   0.00000  Uiso   1.00
N2145  N     0.87587   0.37776   0.81941   0.00000  Uiso   1.00
O2146  O     0.89605   0.41583   0.81835   0.00000  Uiso   1.00
O2147  O     0.87854   0.35405   0.85564   0.00000  Uiso   1.00
N2148  N     0.76972   0.62092   0.70449   0.00000  Uiso   1.00
O2149  O     0.77215   0.59155   0.67267   0.00000  Uiso   1.00
O2150  O     0.73497   0.64081   0.70933   0.00000  Uiso   1.00
O2151  O     0.86214   0.57789   0.52693   0.00000  Uiso   1.00
C2152  C     0.89910   0.56782   0.50836   0.00000  Uiso   1.00
H2153  H     0.89369   0.54651   0.97836   0.00000  Uiso   1.00
H2154  H     0.92047   0.54893   0.53179   0.00000  Uiso   1.00
C2155  C     0.91867   0.61339   0.99577   0.00000  Uiso   1.00
H2156  H     0.89537   0.63683   0.97996   0.00000  Uiso   1.00
H2157  H     0.93183   0.63078   0.52579   0.00000  Uiso   1.00
C2158  C     0.95170   0.60530   0.96410   0.00000  Uiso   1.00
H2159  H     0.97312   0.57834   0.97730   0.00000  Uiso   1.00
H2160  H     0.96853   0.63786   0.95929   0.00000  Uiso   1.00
H2161  H     0.93802   0.59373   0.93179   0.00000  Uiso   1.00
O2162  O     0.84880   0.42020   0.97256   0.00000  Uiso   1.00
C2163  C     0.89097   0.42561   0.98226   0.00000  Uiso   1.00
H2164  H     0.89981   0.40278   0.51060   0.00000  Uiso   1.00
H2165  H     0.89959   0.46137   0.99265   0.00000  Uiso   1.00
C2166  C     0.91480   0.41074   0.94327   0.00000  Uiso   1.00
H2167  H     0.90704   0.37445   0.93451   0.00000  Uiso   1.00
H2168  H     0.90660   0.43324   0.91453   0.00000  Uiso   1.00
C2169  C     0.96030   0.41397   0.95411   0.00000  Uiso   1.00
H2170  H     0.96887   0.44986   0.96367   0.00000  Uiso   1.00
H2171  H     0.97652   0.40432   0.92484   0.00000  Uiso   1.00
H2172  H     0.96963   0.38981   0.98122   0.00000  Uiso   1.00
O2173  O     0.80296   0.58198   0.97100   0.00000  Uiso   1.00
C2174  C     0.76605   0.57862   0.99156   0.00000  Uiso   1.00
H2175  H     0.77042   0.55948   0.52299   0.00000  Uiso   1.00
H2176  H     0.74233   0.56071   0.97049   0.00000  Uiso   1.00
C2177  C     0.75153   0.62772   0.50125   0.00000  Uiso   1.00
H2178  H     0.77744   0.64867   0.51506   0.00000  Uiso   1.00
H2179  H     0.73969   0.64440   0.97020   0.00000  Uiso   1.00
C2180  C     0.71866   0.62793   0.53404   0.00000  Uiso   1.00
H2181  H     0.69319   0.60548   0.52234   0.00000  Uiso   1.00
H2182  H     0.70713   0.66371   0.53796   0.00000  Uiso   1.00
H2183  H     0.73113   0.61524   0.56651   0.00000  Uiso   1.00
O2184  O     0.79640   0.42599   0.53104   0.00000  Uiso   1.00
C2185  C     0.75563   0.44079   0.52370   0.00000  Uiso   1.00
H2186  H     0.73964   0.41453   0.50251   0.00000  Uiso   1.00
H2187  H     0.75298   0.47403   0.50531   0.00000  Uiso   1.00
C2188  C     0.73418   0.44437   0.56676   0.00000  Uiso   1.00
H2189  H     0.73615   0.41058   0.58417   0.00000  Uiso   1.00
H2190  H     0.74906   0.47105   0.58837   0.00000  Uiso   1.00
C2191  C     0.68976   0.45788   0.55808   0.00000  Uiso   1.00
H2192  H     0.68698   0.49046   0.53872   0.00000  Uiso   1.00
H2193  H     0.67574   0.46348   0.58966   0.00000  Uiso   1.00
H2194  H     0.67312   0.42981   0.54002   0.00000  Uiso   1.00
N2195  N     0.84192   0.58638   0.61197   0.00000  Uiso   1.00
O2196  O     0.87139   0.60145   0.63807   0.00000  Uiso   1.00
O2197  O     0.81554   0.61584   0.59506   0.00000  Uiso   1.00
N2198  N     0.80930   0.41536   0.88613   0.00000  Uiso   1.00
O2199  O     0.78075   0.41669   0.85481   0.00000  Uiso   1.00
O2200  O     0.81605   0.37606   0.90611   0.00000  Uiso   1.00
N2201  N     0.82546   0.58651   0.88733   0.00000  Uiso   1.00
O2202  O     0.79711   0.60474   0.86145   0.00000  Uiso   1.00
O2203  O     0.85377   0.61312   0.90459   0.00000  Uiso   1.00
N2204  N     0.84960   0.41444   0.60982   0.00000  Uiso   1.00
O2205  O     0.87972   0.41351   0.63937   0.00000  Uiso   1.00
O2206  O     0.84241   0.37694   0.58718   0.00000  Uiso   1.00
O2207  O     0.70157   0.41892   0.72475   0.00000  Uiso   1.00
C2208  C     0.68230   0.41391   0.68183   0.00000  Uiso   1.00
H2209  H     0.70417   0.39814   0.66036   0.00000  Uiso   1.00
H2210  H     0.67328   0.44763   0.66613   0.00000  Uiso   1.00
C2211  C     0.97921   0.38117   0.68084   0.00000  Uiso   1.00
H2212  H     0.98725   0.34946   0.70009   0.00000  Uiso   1.00
H2213  H     0.95314   0.39829   0.69520   0.00000  Uiso   1.00
C2214  C     0.96607   0.36786   0.63362   0.00000  Uiso   1.00
H2215  H     0.95887   0.39932   0.61366   0.00000  Uiso   1.00
H2216  H     0.93855   0.34605   0.63314   0.00000  Uiso   1.00
H2217  H     0.99050   0.34820   0.61853   0.00000  Uiso   1.00
O2218  O     0.96101   0.58178   0.73198   0.00000  Uiso   1.00
C2219  C     0.95083   0.57985   0.68626   0.00000  Uiso   1.00
H2220  H     0.93514   0.61275   0.67768   0.00000  Uiso   1.00
H2221  H     0.92935   0.55118   0.67792   0.00000  Uiso   1.00
C2222  C     0.98770   0.57640   0.65801   0.00000  Uiso   1.00
H2223  H     0.67351   0.60756   0.66303   0.00000  Uiso   1.00
H2224  H     0.67299   0.54540   0.66692   0.00000  Uiso   1.00
C2225  C     0.97415   0.57212   0.60955   0.00000  Uiso   1.00
H2226  H     0.95589   0.54025   0.60395   0.00000  Uiso   1.00
H2227  H     0.66775   0.56978   0.58985   0.00000  Uiso   1.00
H2228  H     0.95576   0.60261   0.59852   0.00000  Uiso   1.00
O2229  O     0.96508   0.41841   0.77509   0.00000  Uiso   1.00
C2230  C     0.98392   0.41149   0.81799   0.00000  Uiso   1.00
H2231  H     0.96205   0.39413   0.83835   0.00000  Uiso   1.00
H2232  H     0.99206   0.44453   0.83533   0.00000  Uiso   1.00
C2233  C     0.68749   0.37920   0.81825   0.00000  Uiso   1.00
H2234  H     0.67981   0.34779   0.79854   0.00000  Uiso   1.00
H2235  H     0.71320   0.39688   0.80399   0.00000  Uiso   1.00
C2236  C     0.70104   0.36510   0.86520   0.00000  Uiso   1.00
H2237  H     0.70715   0.39625   0.88580   0.00000  Uiso   1.00
H2238  H     0.72933   0.34444   0.86541   0.00000  Uiso   1.00
H2239  H     0.67729   0.34411   0.87979   0.00000  Uiso   1.00
O2240  O     0.70532   0.58201   0.76758   0.00000  Uiso   1.00
C2241  C     0.71749   0.58006   0.81286   0.00000  Uiso   1.00
H2242  H     0.73232   0.61341   0.82096   0.00000  Uiso   1.00
H2243  H     0.74039   0.55239   0.82004   0.00000  Uiso   1.00
C2244  C     0.68221   0.57423   0.84291   0.00000  Uiso   1.00
H2245  H     0.99475   0.60435   0.83925   0.00000  Uiso   1.00
H2246  H     0.99809   0.54240   0.83450   0.00000  Uiso   1.00
C2247  C     0.69828   0.56962   0.89056   0.00000  Uiso   1.00
H2248  H     0.71985   0.54012   0.89431   0.00000  Uiso   1.00
H2249  H     0.67283   0.56274   0.91138   0.00000  Uiso   1.00
H2250  H     0.71379   0.60183   0.90179   0.00000  Uiso   1.00
O2251  O     0.10655   0.87291   0.75000   0.00000  Uiso   1.00
O2252  O     0.22679   0.79375   0.75001   0.00000  Uiso   1.00
O2253  O     0.22679   0.87291   0.75001   0.00000  Uiso   1.00
O2254  O     0.10655   0.79375   0.75000   0.00000  Uiso   1.00
N2255  N     0.16667   0.95069   0.75000   0.00000  Uiso   1.00
N2256  N     0.16667   0.71598   0.75000   0.00000  Uiso   1.00
C2257  C     0.08737   0.83323   0.74902   0.00000  Uiso   1.00
C2258  C     0.24598   0.83315   0.75101   0.00000  Uiso   1.00
O2259  O     0.16666   0.87293   0.68573   0.00000  Uiso   1.00
O2260  O     0.16667   0.79374   0.81427   0.00000  Uiso   1.00
O2261  O     0.16667   0.87293   0.81427   0.00000  Uiso   1.00
O2262  O     0.16666   0.79374   0.68573   0.00000  Uiso   1.00
C2263  C     0.16905   0.83339   0.66519   0.00000  Uiso   1.00
C2264  C     0.16357   0.83341   0.83473   0.00000  Uiso   1.00
Cu2265 Cu    0.16667   0.88022   0.75000   0.00000  Uiso   1.00
Cu2266 Cu    0.16667   0.78645   0.75000   0.00000  Uiso   1.00
C2267  C     0.14280   0.69088   0.71967   0.00000  Uiso   1.00
C2268  C     0.19454   0.97535   0.77570   0.00000  Uiso   1.00
C2269  C     0.19047   0.69068   0.78029   0.00000  Uiso   1.00
C2270  C     0.13882   0.97556   0.72430   0.00000  Uiso   1.00
C2271  C     0.02001   0.79164   0.74396   0.00000  Uiso   1.00
C2272  C     0.31242   0.87408   0.74549   0.00000  Uiso   1.00
C2273  C     0.31367   0.79164   0.75728   0.00000  Uiso   1.00
C2274  C     0.02079   0.87413   0.75481   0.00000  Uiso   1.00
C2275  C     0.18129   0.87236   0.54747   0.00000  Uiso   1.00
C2276  C     0.16622   0.79282   0.95175   0.00000  Uiso   1.00
C2277  C     0.14626   0.87394   0.95129   0.00000  Uiso   1.00
C2278  C     0.15319   0.79508   0.54901   0.00000  Uiso   1.00
C2279  C     0.17748   0.87477   0.59274   0.00000  Uiso   1.00
C2280  C     0.15630   0.79144   0.90642   0.00000  Uiso   1.00
C2281  C     0.15301   0.87536   0.90650   0.00000  Uiso   1.00
C2282  C     0.16823   0.79174   0.59279   0.00000  Uiso   1.00
C2283  C     0.17277   0.83337   0.61691   0.00000  Uiso   1.00
C2284  C     0.15701   0.83354   0.88267   0.00000  Uiso   1.00
C2285  C     0.16417   0.83394   0.52424   0.00000  Uiso   1.00
C2286  C     0.15810   0.83361   0.97539   0.00000  Uiso   1.00
C2287  C     0.29073   0.83280   0.75140   0.00000  Uiso   1.00
C2288  C     0.04268   0.83287   0.74916   0.00000  Uiso   1.00
N2289  N     0.12355   0.71147   0.68066   0.00000  Uiso   1.00
O2290  O     0.10390   0.75004   0.68178   0.00000  Uiso   1.00
O2291  O     0.11966   0.68753   0.64465   0.00000  Uiso   1.00
N2292  N     0.23035   0.95386   0.79565   0.00000  Uiso   1.00
O2293  O     0.22793   0.92390   0.82702   0.00000  Uiso   1.00
O2294  O     0.26507   0.97371   0.79125   0.00000  Uiso   1.00
N2295  N     0.20921   0.71110   0.81941   0.00000  Uiso   1.00
O2296  O     0.22939   0.74917   0.81835   0.00000  Uiso   1.00
O2297  O     0.21187   0.68739   0.85564   0.00000  Uiso   1.00
N2298  N     0.10305   0.95425   0.70449   0.00000  Uiso   1.00
O2299  O     0.10549   0.92488   0.67267   0.00000  Uiso   1.00
O2300  O     0.06830   0.97415   0.70933   0.00000  Uiso   1.00
O2301  O     0.19547   0.91122   0.52693   0.00000  Uiso   1.00
C2302  C     0.23243   0.90116   0.50836   0.00000  Uiso   1.00
H2303  H     0.22703   0.87984   0.97836   0.00000  Uiso   1.00
H2304  H     0.25380   0.88226   0.53179   0.00000  Uiso   1.00
C2305  C     0.25200   0.94672   0.99577   0.00000  Uiso   1.00
H2306  H     0.22871   0.97017   0.97996   0.00000  Uiso   1.00
H2307  H     0.26517   0.96411   0.52579   0.00000  Uiso   1.00
C2308  C     0.28503   0.93863   0.96410   0.00000  Uiso   1.00
H2309  H     0.30645   0.91168   0.97730   0.00000  Uiso   1.00
H2310  H     0.30187   0.97119   0.95929   0.00000  Uiso   1.00
H2311  H     0.27136   0.92706   0.93179   0.00000  Uiso   1.00
O2312  O     0.18214   0.75353   0.97256   0.00000  Uiso   1.00
C2313  C     0.22431   0.75894   0.98226   0.00000  Uiso   1.00
H2314  H     0.23314   0.73611   0.51060   0.00000  Uiso   1.00
H2315  H     0.23293   0.79470   0.99265   0.00000  Uiso   1.00
C2316  C     0.24813   0.74407   0.94327   0.00000  Uiso   1.00
H2317  H     0.24038   0.70778   0.93451   0.00000  Uiso   1.00
H2318  H     0.23993   0.76657   0.91453   0.00000  Uiso   1.00
C2319  C     0.29363   0.74730   0.95411   0.00000  Uiso   1.00
H2320  H     0.30220   0.78319   0.96367   0.00000  Uiso   1.00
H2321  H     0.30986   0.73766   0.92484   0.00000  Uiso   1.00
H2322  H     0.30296   0.72314   0.98122   0.00000  Uiso   1.00
O2323  O     0.13629   0.91531   0.97100   0.00000  Uiso   1.00
C2324  C     0.09938   0.91195   0.99156   0.00000  Uiso   1.00
H2325  H     0.10376   0.89281   0.52299   0.00000  Uiso   1.00
H2326  H     0.07566   0.89405   0.97049   0.00000  Uiso   1.00
C2327  C     0.08487   0.96106   0.50125   0.00000  Uiso   1.00
H2328  H     0.11078   0.98200   0.51506   0.00000  Uiso   1.00
H2329  H     0.07303   0.97774   0.97020   0.00000  Uiso   1.00
C2330  C     0.05200   0.96126   0.53404   0.00000  Uiso   1.00
H2331  H     0.02653   0.93881   0.52234   0.00000  Uiso   1.00
H2332  H     0.04047   0.99705   0.53796   0.00000  Uiso   1.00
H2333  H     0.06447   0.94857   0.56651   0.00000  Uiso   1.00
O2334  O     0.12973   0.75932   0.53104   0.00000  Uiso   1.00
C2335  C     0.08896   0.77412   0.52370   0.00000  Uiso   1.00
H2336  H     0.07297   0.74787   0.50251   0.00000  Uiso   1.00
H2337  H     0.08631   0.80736   0.50531   0.00000  Uiso   1.00
C2338  C     0.06751   0.77771   0.56676   0.00000  Uiso   1.00
H2339  H     0.06948   0.74391   0.58417   0.00000  Uiso   1.00
H2340  H     0.08239   0.80438   0.58837   0.00000  Uiso   1.00
C2341  C     0.02309   0.79121   0.55808   0.00000  Uiso   1.00
H2342  H     0.02032   0.82380   0.53872   0.00000  Uiso   1.00
H2343  H     0.00908   0.79682   0.58966   0.00000  Uiso   1.00
H2344  H     0.00645   0.76314   0.54002   0.00000  Uiso   1.00
N2345  N     0.17525   0.91971   0.61197   0.00000  Uiso   1.00
O2346  O     0.20472   0.93478   0.63807   0.00000  Uiso   1.00
O2347  O     0.14888   0.94918   0.59506   0.00000  Uiso   1.00
N2348  N     0.14263   0.74870   0.88613   0.00000  Uiso   1.00
O2349  O     0.11408   0.75003   0.85481   0.00000  Uiso   1.00
O2350  O     0.14938   0.70940   0.90611   0.00000  Uiso   1.00
N2351  N     0.15879   0.91984   0.88733   0.00000  Uiso   1.00
O2352  O     0.13045   0.93807   0.86145   0.00000  Uiso   1.00
O2353  O     0.18710   0.94645   0.90459   0.00000  Uiso   1.00
N2354  N     0.18293   0.74778   0.60982   0.00000  Uiso   1.00
O2355  O     0.21306   0.74684   0.63937   0.00000  Uiso   1.00
O2356  O     0.17574   0.71027   0.58718   0.00000  Uiso   1.00
O2357  O     0.03491   0.75226   0.72475   0.00000  Uiso   1.00
C2358  C     0.01564   0.74725   0.68183   0.00000  Uiso   1.00
H2359  H     0.03750   0.73147   0.66036   0.00000  Uiso   1.00
H2360  H     0.00661   0.78097   0.66613   0.00000  Uiso   1.00
C2361  C     0.31254   0.71451   0.68084   0.00000  Uiso   1.00
H2362  H     0.32059   0.68279   0.70009   0.00000  Uiso   1.00
H2363  H     0.28648   0.73162   0.69520   0.00000  Uiso   1.00
C2364  C     0.29940   0.70119   0.63362   0.00000  Uiso   1.00
H2365  H     0.29221   0.73265   0.61366   0.00000  Uiso   1.00
H2366  H     0.27188   0.67938   0.63314   0.00000  Uiso   1.00
H2367  H     0.32383   0.68154   0.61853   0.00000  Uiso   1.00
O2368  O     0.29435   0.91511   0.73198   0.00000  Uiso   1.00
C2369  C     0.28417   0.91319   0.68626   0.00000  Uiso   1.00
H2370  H     0.26848   0.94608   0.67768   0.00000  Uiso   1.00
H2371  H     0.26268   0.88451   0.67792   0.00000  Uiso   1.00
C2372  C     0.32104   0.90973   0.65801   0.00000  Uiso   1.00
H2373  H     0.00684   0.94090   0.66303   0.00000  Uiso   1.00
H2374  H     0.00632   0.87873   0.66692   0.00000  Uiso   1.00
C2375  C     0.30748   0.90545   0.60955   0.00000  Uiso   1.00
H2376  H     0.28923   0.87358   0.60395   0.00000  Uiso   1.00
H2377  H     0.00108   0.90311   0.58985   0.00000  Uiso   1.00
H2378  H     0.28909   0.93594   0.59852   0.00000  Uiso   1.00
O2379  O     0.29841   0.75174   0.77509   0.00000  Uiso   1.00
C2380  C     0.31726   0.74482   0.81799   0.00000  Uiso   1.00
H2381  H     0.29539   0.72746   0.83835   0.00000  Uiso   1.00
H2382  H     0.32539   0.77786   0.83533   0.00000  Uiso   1.00
C2383  C     0.02082   0.71254   0.81825   0.00000  Uiso   1.00
H2384  H     0.01315   0.68112   0.79854   0.00000  Uiso   1.00
H2385  H     0.04654   0.73021   0.80399   0.00000  Uiso   1.00
C2386  C     0.03437   0.69844   0.86520   0.00000  Uiso   1.00
H2387  H     0.04048   0.72959   0.88580   0.00000  Uiso   1.00
H2388  H     0.06266   0.67778   0.86541   0.00000  Uiso   1.00
H2389  H     0.01062   0.67744   0.87979   0.00000  Uiso   1.00
O2390  O     0.03865   0.91535   0.76758   0.00000  Uiso   1.00
C2391  C     0.05083   0.91339   0.81286   0.00000  Uiso   1.00
H2392  H     0.06565   0.94674   0.82096   0.00000  Uiso   1.00
H2393  H     0.07372   0.88572   0.82004   0.00000  Uiso   1.00
C2394  C     0.01555   0.90756   0.84291   0.00000  Uiso   1.00
H2395  H     0.32808   0.93769   0.83925   0.00000  Uiso   1.00
H2396  H     0.33142   0.87573   0.83450   0.00000  Uiso   1.00
C2397  C     0.03161   0.90296   0.89056   0.00000  Uiso   1.00
H2398  H     0.05318   0.87346   0.89431   0.00000  Uiso   1.00
H2399  H     0.00616   0.89607   0.91138   0.00000  Uiso   1.00
H2400  H     0.04713   0.93517   0.90179   0.00000  Uiso   1.00
O2401  O     0.43988   0.87291   0.75000   0.00000  Uiso   1.00
O2402  O     0.56012   0.79375   0.75001   0.00000  Uiso   1.00
O2403  O     0.56012   0.87291   0.75001   0.00000  Uiso   1.00
O2404  O     0.43988   0.79375   0.75000   0.00000  Uiso   1.00
N2405  N     0.50000   0.95069   0.75000   0.00000  Uiso   1.00
N2406  N     0.50000   0.71598   0.75000   0.00000  Uiso   1.00
C2407  C     0.42071   0.83323   0.74902   0.00000  Uiso   1.00
C2408  C     0.57931   0.83315   0.75101   0.00000  Uiso   1.00
O2409  O     0.50000   0.87293   0.68573   0.00000  Uiso   1.00
O2410  O     0.50000   0.79374   0.81427   0.00000  Uiso   1.00
O2411  O     0.50000   0.87293   0.81427   0.00000  Uiso   1.00
O2412  O     0.50000   0.79374   0.68573   0.00000  Uiso   1.00
C2413  C     0.50238   0.83339   0.66519   0.00000  Uiso   1.00
C2414  C     0.49691   0.83341   0.83473   0.00000  Uiso   1.00
Cu2415 Cu    0.50000   0.88022   0.75000   0.00000  Uiso   1.00
Cu2416 Cu    0.50000   0.78645   0.75000   0.00000  Uiso   1.00
C2417  C     0.47613   0.69088   0.71967   0.00000  Uiso   1.00
C2418  C     0.52787   0.97535   0.77570   0.00000  Uiso   1.00
C2419  C     0.52380   0.69068   0.78029   0.00000  Uiso   1.00
C2420  C     0.47215   0.97556   0.72430   0.00000  Uiso   1.00
C2421  C     0.35334   0.79164   0.74396   0.00000  Uiso   1.00
C2422  C     0.64575   0.87408   0.74549   0.00000  Uiso   1.00
C2423  C     0.64700   0.79164   0.75728   0.00000  Uiso   1.00
C2424  C     0.35412   0.87413   0.75481   0.00000  Uiso   1.00
C2425  C     0.51463   0.87236   0.54747   0.00000  Uiso   1.00
C2426  C     0.49955   0.79282   0.95175   0.00000  Uiso   1.00
C2427  C     0.47959   0.87394   0.95129   0.00000  Uiso   1.00
C2428  C     0.48653   0.79508   0.54901   0.00000  Uiso   1.00
C2429  C     0.51081   0.87477   0.59274   0.00000  Uiso   1.00
C2430  C     0.48964   0.79144   0.90642   0.00000  Uiso   1.00
C2431  C     0.48635   0.87536   0.90650   0.00000  Uiso   1.00
C2432  C     0.50156   0.79174   0.59279   0.00000  Uiso   1.00
C2433  C     0.50610   0.83337   0.61691   0.00000  Uiso   1.00
C2434  C     0.49035   0.83354   0.88267   0.00000  Uiso   1.00
C2435  C     0.49750   0.83394   0.52424   0.00000  Uiso   1.00
C2436  C     0.49143   0.83361   0.97539   0.00000  Uiso   1.00
C2437  C     0.62406   0.83280   0.75140   0.00000  Uiso   1.00
C2438  C     0.37601   0.83287   0.74916   0.00000  Uiso   1.00
N2439  N     0.45688   0.71147   0.68066   0.00000  Uiso   1.00
O2440  O     0.43723   0.75004   0.68178   0.00000  Uiso   1.00
O2441  O     0.45300   0.68753   0.64465   0.00000  Uiso   1.00
N2442  N     0.56368   0.95386   0.79565   0.00000  Uiso   1.00
O2443  O     0.56126   0.92390   0.82702   0.00000  Uiso   1.00
O2444  O     0.59841   0.97371   0.79125   0.00000  Uiso   1.00
N2445  N     0.54254   0.71110   0.81941   0.00000  Uiso   1.00
O2446  O     0.56272   0.74917   0.81835   0.00000  Uiso   1.00
O2447  O     0.54521   0.68739   0.85564   0.00000  Uiso   1.00
N2448  N     0.43639   0.95425   0.70449   0.00000  Uiso   1.00
O2449  O     0.43882   0.92488   0.67267   0.00000  Uiso   1.00
O2450  O     0.40164   0.97415   0.70933   0.00000  Uiso   1.00
O2451  O     0.52880   0.91122   0.52693   0.00000  Uiso   1.00
C2452  C     0.56577   0.90116   0.50836   0.00000  Uiso   1.00
H2453  H     0.56036   0.87984   0.97836   0.00000  Uiso   1.00
H2454  H     0.58714   0.88226   0.53179   0.00000  Uiso   1.00
C2455  C     0.58534   0.94672   0.99577   0.00000  Uiso   1.00
H2456  H     0.56204   0.97017   0.97996   0.00000  Uiso   1.00
H2457  H     0.59850   0.96411   0.52579   0.00000  Uiso   1.00
C2458  C     0.61836   0.93863   0.96410   0.00000  Uiso   1.00
H2459  H     0.63979   0.91168   0.97730   0.00000  Uiso   1.00
H2460  H     0.63520   0.97119   0.95929   0.00000  Uiso   1.00
H2461  H     0.60469   0.92706   0.93179   0.00000  Uiso   1.00
O2462  O     0.51547   0.75353   0.97256   0.00000  Uiso   1.00
C2463  C     0.55764   0.75894   0.98226   0.00000  Uiso   1.00
H2464  H     0.56647   0.73611   0.51060   0.00000  Uiso   1.00
H2465  H     0.56626   0.79470   0.99265   0.00000  Uiso   1.00
C2466  C     0.58146   0.74407   0.94327   0.00000  Uiso   1.00
H2467  H     0.57371   0.70778   0.93451   0.00000  Uiso   1.00
H2468  H     0.57327   0.76657   0.91453   0.00000  Uiso   1.00
C2469  C     0.62697   0.74730   0.95411   0.00000  Uiso   1.00
H2470  H     0.63553   0.78319   0.96367   0.00000  Uiso   1.00
H2471  H     0.64319   0.73766   0.92484   0.00000  Uiso   1.00
H2472  H     0.63629   0.72314   0.98122   0.00000  Uiso   1.00
O2473  O     0.46963   0.91531   0.97100   0.00000  Uiso   1.00
C2474  C     0.43272   0.91195   0.99156   0.00000  Uiso   1.00
H2475  H     0.43709   0.89281   0.52299   0.00000  Uiso   1.00
H2476  H     0.40900   0.89405   0.97049   0.00000  Uiso   1.00
C2477  C     0.41820   0.96106   0.50125   0.00000  Uiso   1.00
H2478  H     0.44411   0.98200   0.51506   0.00000  Uiso   1.00
H2479  H     0.40636   0.97774   0.97020   0.00000  Uiso   1.00
C2480  C     0.38533   0.96126   0.53404   0.00000  Uiso   1.00
H2481  H     0.35986   0.93881   0.52234   0.00000  Uiso   1.00
H2482  H     0.37380   0.99705   0.53796   0.00000  Uiso   1.00
H2483  H     0.39780   0.94857   0.56651   0.00000  Uiso   1.00
O2484  O     0.46307   0.75932   0.53104   0.00000  Uiso   1.00
C2485  C     0.42230   0.77412   0.52370   0.00000  Uiso   1.00
H2486  H     0.40630   0.74787   0.50251   0.00000  Uiso   1.00
H2487  H     0.41965   0.80736   0.50531   0.00000  Uiso   1.00
C2488  C     0.40084   0.77771   0.56676   0.00000  Uiso   1.00
H2489  H     0.40281   0.74391   0.58417   0.00000  Uiso   1.00
H2490  H     0.41573   0.80438   0.58837   0.00000  Uiso   1.00
C2491  C     0.35642   0.79121   0.55808   0.00000  Uiso   1.00
H2492  H     0.35365   0.82380   0.53872   0.00000  Uiso   1.00
H2493  H     0.34241   0.79682   0.58966   0.00000  Uiso   1.00
H2494  H     0.33979   0.76314   0.54002   0.00000  Uiso   1.00
N2495  N     0.50859   0.91971   0.61197   0.00000  Uiso   1.00
O2496  O     0.53806   0.93478   0.63807   0.00000  Uiso   1.00
O2497  O     0.48221   0.94918   0.59506   0.00000  Uiso   1.00
N2498  N     0.47596   0.74870   0.88613   0.00000  Uiso   1.00
O2499  O     0.44742   0.75003   0.85481   0.00000  Uiso   1.00
O2500  O     0.48272   0.70940   0.90611   0.00000  Uiso   1.00
N2501  N     0.49212   0.91984   0.88733   0.00000  Uiso   1.00
O2502  O     0.46378   0.93807   0.86145   0.00000  Uiso   1.00
O2503  O     0.52043   0.94645   0.90459   0.00000  Uiso   1.00
N2504  N     0.51627   0.74778   0.60982   0.00000  Uiso   1.00
O2505  O     0.54639   0.74684   0.63937   0.00000  Uiso   1.00
O2506  O     0.50908   0.71027   0.58718   0.00000  Uiso   1.00
O2507  O     0.36824   0.75226   0.72475   0.00000  Uiso   1.00
C2508  C     0.34897   0.74725   0.68183   0.00000  Uiso   1.00
H2509  H     0.37084   0.73147   0.66036   0.00000  Uiso   1.00
H2510  H     0.33995   0.78097   0.66613   0.00000  Uiso   1.00
C2511  C     0.64588   0.71451   0.68084   0.00000  Uiso   1.00
H2512  H     0.65392   0.68279   0.70009   0.00000  Uiso   1.00
H2513  H     0.61981   0.73162   0.69520   0.00000  Uiso   1.00
C2514  C     0.63274   0.70119   0.63362   0.00000  Uiso   1.00
H2515  H     0.62554   0.73265   0.61366   0.00000  Uiso   1.00
H2516  H     0.60521   0.67938   0.63314   0.00000  Uiso   1.00
H2517  H     0.65716   0.68154   0.61853   0.00000  Uiso   1.00
O2518  O     0.62768   0.91511   0.73198   0.00000  Uiso   1.00
C2519  C     0.61750   0.91319   0.68626   0.00000  Uiso   1.00
H2520  H     0.60181   0.94608   0.67768   0.00000  Uiso   1.00
H2521  H     0.59601   0.88451   0.67792   0.00000  Uiso   1.00
C2522  C     0.65437   0.90973   0.65801   0.00000  Uiso   1.00
H2523  H     0.34018   0.94090   0.66303   0.00000  Uiso   1.00
H2524  H     0.33966   0.87873   0.66692   0.00000  Uiso   1.00
C2525  C     0.64081   0.90545   0.60955   0.00000  Uiso   1.00
H2526  H     0.62256   0.87358   0.60395   0.00000  Uiso   1.00
H2527  H     0.33441   0.90311   0.58985   0.00000  Uiso   1.00
H2528  H     0.62243   0.93594   0.59852   0.00000  Uiso   1.00
O2529  O     0.63175   0.75174   0.77509   0.00000  Uiso   1.00
C2530  C     0.65059   0.74482   0.81799   0.00000  Uiso   1.00
H2531  H     0.62872   0.72746   0.83835   0.00000  Uiso   1.00
H2532  H     0.65872   0.77786   0.83533   0.00000  Uiso   1.00
C2533  C     0.35416   0.71254   0.81825   0.00000  Uiso   1.00
H2534  H     0.34648   0.68112   0.79854   0.00000  Uiso   1.00
H2535  H     0.37987   0.73021   0.80399   0.00000  Uiso   1.00
C2536  C     0.36771   0.69844   0.86520   0.00000  Uiso   1.00
H2537  H     0.37381   0.72959   0.88580   0.00000  Uiso   1.00
H2538  H     0.39600   0.67778   0.86541   0.00000  Uiso   1.00
H2539  H     0.34396   0.67744   0.87979   0.00000  Uiso   1.00
O2540  O     0.37198   0.91535   0.76758   0.00000  Uiso   1.00
C2541  C     0.38416   0.91339   0.81286   0.00000  Uiso   1.00
H2542  H     0.39898   0.94674   0.82096   0.00000  Uiso   1.00
H2543  H     0.40706   0.88572   0.82004   0.00000  Uiso   1.00
C2544  C     0.34888   0.90756   0.84291   0.00000  Uiso   1.00
H2545  H     0.66141   0.93769   0.83925   0.00000  Uiso   1.00
H2546  H     0.66475   0.87573   0.83450   0.00000  Uiso   1.00
C2547  C     0.36494   0.90296   0.89056   0.00000  Uiso   1.00
H2548  H     0.38652   0.87346   0.89431   0.00000  Uiso   1.00
H2549  H     0.33950   0.89607   0.91138   0.00000  Uiso   1.00
H2550  H     0.38046   0.93517   0.90179   0.00000  Uiso   1.00
O2551  O     0.77321   0.87291   0.75000   0.00000  Uiso   1.00
O2552  O     0.89345   0.79375   0.75001   0.00000  Uiso   1.00
O2553  O     0.89345   0.87291   0.75001   0.00000  Uiso   1.00
O2554  O     0.77321   0.79375   0.75000   0.00000  Uiso   1.00
N2555  N     0.83333   0.95069   0.75000   0.00000  Uiso   1.00
N2556  N     0.83333   0.71598   0.75000   0.00000  Uiso   1.00
C2557  C     0.75404   0.83323   0.74902   0.00000  Uiso   1.00
C2558  C     0.91264   0.83315   0.75101   0.00000  Uiso   1.00
O2559  O     0.83333   0.87293   0.68573   0.00000  Uiso   1.00
O2560  O     0.83334   0.79374   0.81427   0.00000  Uiso   1.00
O2561  O     0.83334   0.87293   0.81427   0.00000  Uiso   1.00
O2562  O     0.83333   0.79374   0.68573   0.00000  Uiso   1.00
C2563  C     0.83571   0.83339   0.66519   0.00000  Uiso   1.00
C2564  C     0.83024   0.83341   0.83473   0.00000  Uiso   1.00
Cu2565 Cu    0.83333   0.88022   0.75000   0.00000  Uiso   1.00
Cu2566 Cu    0.83333   0.78645   0.75000   0.00000  Uiso   1.00
C2567  C     0.80946   0.69088   0.71967   0.00000  Uiso   1.00
C2568  C     0.86120   0.97535   0.77570   0.00000  Uiso   1.00
C2569  C     0.85714   0.69068   0.78029   0.00000  Uiso   1.00
C2570  C     0.80548   0.97556   0.72430   0.00000  Uiso   1.00
C2571  C     0.68668   0.79164   0.74396   0.00000  Uiso   1.00
C2572  C     0.97908   0.87408   0.74549   0.00000  Uiso   1.00
C2573  C     0.98034   0.79164   0.75728   0.00000  Uiso   1.00
C2574  C     0.68745   0.87413   0.75481   0.00000  Uiso   1.00
C2575  C     0.84796   0.87236   0.54747   0.00000  Uiso   1.00
C2576  C     0.83289   0.79282   0.95175   0.00000  Uiso   1.00
C2577  C     0.81292   0.87394   0.95129   0.00000  Uiso   1.00
C2578  C     0.81986   0.79508   0.54901   0.00000  Uiso   1.00
C2579  C     0.84415   0.87477   0.59274   0.00000  Uiso   1.00
C2580  C     0.82297   0.79144   0.90642   0.00000  Uiso   1.00
C2581  C     0.81968   0.87536   0.90650   0.00000  Uiso   1.00
C2582  C     0.83490   0.79174   0.59279   0.00000  Uiso   1.00
C2583  C     0.83943   0.83337   0.61691   0.00000  Uiso   1.00
C2584  C     0.82368   0.83354   0.88267   0.00000  Uiso   1.00
C2585  C     0.83084   0.83394   0.52424   0.00000  Uiso   1.00
C2586  C     0.82477   0.83361   0.97539   0.00000  Uiso   1.00
C2587  C     0.95740   0.83280   0.75140   0.00000  Uiso   1.00
C2588  C     0.70934   0.83287   0.74916   0.00000  Uiso   1.00
N2589  N     0.79022   0.71147   0.68066   0.00000  Uiso   1.00
O2590  O     0.77056   0.75004   0.68178   0.00000  Uiso   1.00
O2591  O     0.78633   0.68753   0.64465   0.00000  Uiso   1.00
N2592  N     0.89701   0.95386   0.79565   0.00000  Uiso   1.00
O2593  O     0.89460   0.92390   0.82702   0.00000  Uiso   1.00
O2594  O     0.93174   0.97371   0.79125   0.00000  Uiso   1.00
N2595  N     0.87587   0.71110   0.81941   0.00000  Uiso   1.00
O2596  O     0.89605   0.74917   0.81835   0.00000  Uiso   1.00
O2597  O     0.87854   0.68739   0.85564   0.00000  Uiso   1.00
N2598  N     0.76972   0.95425   0.70449   0.00000  Uiso   1.00
O2599  O     0.77215   0.92488   0.67267   0.00000  Uiso   1.00
O2600  O     0.73497   0.97415   0.70933   0.00000  Uiso   1.00
O2601  O     0.86214   0.91122   0.52693   0.00000  Uiso   1.00
C2602  C     0.89910   0.90116   0.50836   0.00000  Uiso   1.00
H2603  H     0.89369   0.87984   0.97836   0.00000  Uiso   1.00
H2604  H     0.92047   0.88226   0.53179   0.00000  Uiso   1.00
C2605  C     0.91867   0.94672   0.99577   0.00000  Uiso   1.00
H2606  H     0.89537   0.97017   0.97996   0.00000  Uiso   1.00
H2607  H     0.93183   0.96411   0.52579   0.00000  Uiso   1.00
C2608  C     0.95170   0.93863   0.96410   0.00000  Uiso   1.00
H2609  H     0.97312   0.91168   0.97730   0.00000  Uiso   1.00
H2610  H     0.96853   0.97119   0.95929   0.00000  Uiso   1.00
H2611  H     0.93802   0.92706   0.93179   0.00000  Uiso   1.00
O2612  O     0.84880   0.75353   0.97256   0.00000  Uiso   1.00
C2613  C     0.89097   0.75894   0.98226   0.00000  Uiso   1.00
H2614  H     0.89981   0.73611   0.51060   0.00000  Uiso   1.00
H2615  H     0.89959   0.79470   0.99265   0.00000  Uiso   1.00
C2616  C     0.91480   0.74407   0.94327   0.00000  Uiso   1.00
H2617  H     0.90704   0.70778   0.93451   0.00000  Uiso   1.00
H2618  H     0.90660   0.76657   0.91453   0.00000  Uiso   1.00
C2619  C     0.96030   0.74730   0.95411   0.00000  Uiso   1.00
H2620  H     0.96887   0.78319   0.96367   0.00000  Uiso   1.00
H2621  H     0.97652   0.73766   0.92484   0.00000  Uiso   1.00
H2622  H     0.96963   0.72314   0.98122   0.00000  Uiso   1.00
O2623  O     0.80296   0.91531   0.97100   0.00000  Uiso   1.00
C2624  C     0.76605   0.91195   0.99156   0.00000  Uiso   1.00
H2625  H     0.77042   0.89281   0.52299   0.00000  Uiso   1.00
H2626  H     0.74233   0.89405   0.97049   0.00000  Uiso   1.00
C2627  C     0.75153   0.96106   0.50125   0.00000  Uiso   1.00
H2628  H     0.77744   0.98200   0.51506   0.00000  Uiso   1.00
H2629  H     0.73969   0.97774   0.97020   0.00000  Uiso   1.00
C2630  C     0.71866   0.96126   0.53404   0.00000  Uiso   1.00
H2631  H     0.69319   0.93881   0.52234   0.00000  Uiso   1.00
H2632  H     0.70713   0.99705   0.53796   0.00000  Uiso   1.00
H2633  H     0.73113   0.94857   0.56651   0.00000  Uiso   1.00
O2634  O     0.79640   0.75932   0.53104   0.00000  Uiso   1.00
C2635  C     0.75563   0.77412   0.52370   0.00000  Uiso   1.00
H2636  H     0.73964   0.74787   0.50251   0.00000  Uiso   1.00
H2637  H     0.75298   0.80736   0.50531   0.00000  Uiso   1.00
C2638  C     0.73418   0.77771   0.56676   0.00000  Uiso   1.00
H2639  H     0.73615   0.74391   0.58417   0.00000  Uiso   1.00
H2640  H     0.74906   0.80438   0.58837   0.00000  Uiso   1.00
C2641  C     0.68976   0.79121   0.55808   0.00000  Uiso   1.00
H2642  H     0.68698   0.82380   0.53872   0.00000  Uiso   1.00
H2643  H     0.67574   0.79682   0.58966   0.00000  Uiso   1.00
H2644  H     0.67312   0.76314   0.54002   0.00000  Uiso   1.00
N2645  N     0.84192   0.91971   0.61197   0.00000  Uiso   1.00
O2646  O     0.87139   0.93478   0.63807   0.00000  Uiso   1.00
O2647  O     0.81554   0.94918   0.59506   0.00000  Uiso   1.00
N2648  N     0.80930   0.74870   0.88613   0.00000  Uiso   1.00
O2649  O     0.78075   0.75003   0.85481   0.00000  Uiso   1.00
O2650  O     0.81605   0.70940   0.90611   0.00000  Uiso   1.00
N2651  N     0.82546   0.91984   0.88733   0.00000  Uiso   1.00
O2652  O     0.79711   0.93807   0.86145   0.00000  Uiso   1.00
O2653  O     0.85377   0.94645   0.90459   0.00000  Uiso   1.00
N2654  N     0.84960   0.74778   0.60982   0.00000  Uiso   1.00
O2655  O     0.87972   0.74684   0.63937   0.00000  Uiso   1.00
O2656  O     0.84241   0.71027   0.58718   0.00000  Uiso   1.00
O2657  O     0.70157   0.75226   0.72475   0.00000  Uiso   1.00
C2658  C     0.68230   0.74725   0.68183   0.00000  Uiso   1.00
H2659  H     0.70417   0.73147   0.66036   0.00000  Uiso   1.00
H2660  H     0.67328   0.78097   0.66613   0.00000  Uiso   1.00
C2661  C     0.97921   0.71451   0.68084   0.00000  Uiso   1.00
H2662  H     0.98725   0.68279   0.70009   0.00000  Uiso   1.00
H2663  H     0.95314   0.73162   0.69520   0.00000  Uiso   1.00
C2664  C     0.96607   0.70119   0.63362   0.00000  Uiso   1.00
H2665  H     0.95887   0.73265   0.61366   0.00000  Uiso   1.00
H2666  H     0.93855   0.67938   0.63314   0.00000  Uiso   1.00
H2667  H     0.99050   0.68154   0.61853   0.00000  Uiso   1.00
O2668  O     0.96101   0.91511   0.73198   0.00000  Uiso   1.00
C2669  C     0.95083   0.91319   0.68626   0.00000  Uiso   1.00
H2670  H     0.93514   0.94608   0.67768   0.00000  Uiso   1.00
H2671  H     0.92935   0.88451   0.67792   0.00000  Uiso   1.00
C2672  C     0.98770   0.90973   0.65801   0.00000  Uiso   1.00
H2673  H     0.67351   0.94090   0.66303   0.00000  Uiso   1.00
H2674  H     0.67299   0.87873   0.66692   0.00000  Uiso   1.00
C2675  C     0.97415   0.90545   0.60955   0.00000  Uiso   1.00
H2676  H     0.95589   0.87358   0.60395   0.00000  Uiso   1.00
H2677  H     0.66775   0.90311   0.58985   0.00000  Uiso   1.00
H2678  H     0.95576   0.93594   0.59852   0.00000  Uiso   1.00
O2679  O     0.96508   0.75174   0.77509   0.00000  Uiso   1.00
C2680  C     0.98392   0.74482   0.81799   0.00000  Uiso   1.00
H2681  H     0.96205   0.72746   0.83835   0.00000  Uiso   1.00
H2682  H     0.99206   0.77786   0.83533   0.00000  Uiso   1.00
C2683  C     0.68749   0.71254   0.81825   0.00000  Uiso   1.00
H2684  H     0.67981   0.68112   0.79854   0.00000  Uiso   1.00
H2685  H     0.71320   0.73021   0.80399   0.00000  Uiso   1.00
C2686  C     0.70104   0.69844   0.86520   0.00000  Uiso   1.00
H2687  H     0.70715   0.72959   0.88580   0.00000  Uiso   1.00
H2688  H     0.72933   0.67778   0.86541   0.00000  Uiso   1.00
H2689  H     0.67729   0.67744   0.87979   0.00000  Uiso   1.00
O2690  O     0.70532   0.91535   0.76758   0.00000  Uiso   1.00
C2691  C     0.71749   0.91339   0.81286   0.00000  Uiso   1.00
H2692  H     0.73232   0.94674   0.82096   0.00000  Uiso   1.00
H2693  H     0.74039   0.88572   0.82004   0.00000  Uiso   1.00
C2694  C     0.68221   0.90756   0.84291   0.00000  Uiso   1.00
H2695  H     0.99475   0.93769   0.83925   0.00000  Uiso   1.00
H2696  H     0.99809   0.87573   0.83450   0.00000  Uiso   1.00
C2697  C     0.69828   0.90296   0.89056   0.00000  Uiso   1.00
H2698  H     0.71985   0.87346   0.89431   0.00000  Uiso   1.00
H2699  H     0.67283   0.89607   0.91138   0.00000  Uiso   1.00
H2700  H     0.71379   0.93517   0.90179   0.00000  Uiso   1.00
loop_
_geom_bond_atom_site_label_1
_geom_bond_atom_site_label_2
_geom_bond_distance
_geom_bond_site_symmetry_2
_ccdc_geom_bond_type
O1     Cu15    2.001   .     S
O1     C7      1.312   .     A
O2     Cu16    2.001   .     S
O2     C8      1.306   .     A
O3     C8      1.311   .     A
O3     Cu15    2.000   .     S
O4     C7      1.303   .     A
O4     Cu16    2.000   .     S
N5     C20     1.372   .     A
N5     C18     1.374   .     A
N5     Cu15    2.037   .     S
N6     C19     1.383   .     A
N6     C17     1.386   .     A
N6     Cu16    2.037   .     S
C7     C38     1.479   .     S
C8     C37     1.480   .     S
O9     C13     1.309   .     A
O9     Cu15    1.975   .     S
O10    C14     1.314   .     A
O10    Cu16    1.975   .     S
O11    C14     1.309   .     A
O11    Cu15    1.974   .     S
O12    Cu16    1.974   .     S
O12    C13     1.311   .     A
C13    C33     1.488   .     S
C14    C34     1.494   .     S
Cu15   Cu16    2.711   .     S
C17    N39     1.441   .     S
C17    C920    1.421   1_545 S
C18    N42     1.436   .     S
C18    C469    1.421   .     S
C19    N45     1.438   .     S
C19    C918    1.421   1_545 S
C20    N48     1.435   .     S
C20    C467    1.421   .     S
C21    C38     1.414   .     A
C21    O107    1.385   .     S
C21    C323    1.399   1_455 S
C22    C37     1.412   .     A
C22    O118    1.377   .     S
C22    C174    1.391   .     S
C23    O129    1.385   .     S
C23    C37     1.414   .     A
C23    C171    1.399   .     S
C24    O140    1.378   .     S
C24    C38     1.410   .     A
C24    C322    1.391   1_455 S
C25    C29     1.399   .     A
C25    O51     1.384   .     S
C25    C35     1.419   .     A
C26    C30     1.403   .     A
C26    C36     1.418   .     A
C26    O62     1.386   .     S
C27    C31     1.401   .     A
C27    C36     1.419   .     A
C27    O73     1.388   .     S
C28    O84     1.387   .     S
C28    C35     1.415   .     A
C28    C32     1.400   .     A
C29    C33     1.420   .     A
C29    N95     1.430   .     S
C30    C34     1.417   .     A
C30    N98     1.444   .     S
C31    N101    1.431   .     S
C31    C34     1.422   .     A
C32    N104    1.444   .     S
C32    C33     1.415   .     A
C35    C1386   1.493   1_554 S
C36    C1385   1.493   .     S
N39    O41     1.300   .     A
N39    O40     1.290   .     A
N42    O44     1.301   .     A
N42    O43     1.297   .     A
N45    O46     1.291   .     A
N45    O47     1.299   .     A
N48    O50     1.301   .     A
N48    O49     1.298   .     A
O51    C52     1.411   .     S
C52    H54     1.114   .     S
C52    H1403   1.110   1_554 S
C52    C1405   1.530   1_554 S
H53    C1402   1.110   .     S
C55    H56     1.111   .     S
C55    C58     1.523   .     S
C55    C1402   1.530   .     S
C55    H1407   1.111   .     S
H57    C1405   1.111   1_554 S
C58    H60     1.110   .     S
C58    H61     1.111   .     S
C58    H59     1.110   .     S
O62    C63     1.417   .     S
C63    H65     1.115   .     S
C63    C66     1.532   .     S
C63    H1414   1.111   .     S
H64    C1413   1.111   1_554 S
C66    H68     1.111   .     S
C66    C69     1.524   .     S
C66    H67     1.110   .     S
C69    H71     1.108   .     S
C69    H72     1.110   .     S
C69    H70     1.111   .     S
O73    C74     1.413   .     S
C74    H76     1.112   .     S
C74    H1425   1.109   .     S
C74    C1427   1.533   .     S
H75    C1424   1.109   1_554 S
C77    H78     1.112   .     S
C77    C80     1.525   .     S
C77    C1424   1.533   1_554 S
C77    H1429   1.112   1_554 S
H79    C1427   1.112   .     S
C80    H81     1.107   .     S
C80    H82     1.111   .     S
C80    H83     1.111   .     S
O84    C85     1.418   .     S
C85    H87     1.113   .     S
C85    H86     1.111   .     S
C85    C88     1.538   .     S
C88    H89     1.112   .     S
C88    C91     1.526   .     S
C88    H90     1.111   .     S
C91    H93     1.109   .     S
C91    H92     1.112   .     S
C91    H94     1.109   .     S
N95    O96     1.296   .     A
N95    O97     1.300   .     A
N98    O100    1.301   .     A
N98    O99     1.301   .     A
N101   O102    1.297   .     A
N101   O103    1.300   .     A
N104   O106    1.301   .     A
N104   O105    1.301   .     A
O107   C108    1.428   .     S
C108   H109    1.105   .     S
C108   H110    1.117   .     S
C108   C411    1.534   1_455 S
C111   H113    1.108   .     S
C111   H112    1.111   .     S
C111   C114    1.529   .     S
C111   C258    1.534   .     S
C114   H115    1.111   .     S
C114   H116    1.109   .     S
C114   H117    1.111   .     S
O118   C119    1.416   .     S
C119   C122    1.542   .     S
C119   H121    1.113   .     S
C119   H120    1.105   .     S
C122   C125    1.524   .     S
C122   H273    1.108   .     S
C122   H274    1.109   .     S
H123   C422    1.108   1_455 S
H124   C422    1.109   1_455 S
C125   H128    1.109   .     S
C125   H126    1.111   .     S
C125   H277    1.109   .     S
H127   C425    1.109   1_455 S
O129   C130    1.428   .     S
C130   H132    1.118   .     S
C130   H131    1.105   .     S
C130   C283    1.534   .     S
C133   H135    1.107   .     S
C133   C136    1.529   .     S
C133   H134    1.111   .     S
C133   C430    1.534   1_455 S
C136   H139    1.110   .     S
C136   H138    1.108   .     S
C136   H137    1.111   .     S
O140   C141    1.416   .     S
C141   H143    1.112   .     S
C141   C144    1.541   .     S
C141   H142    1.104   .     S
C144   C147    1.522   .     S
C144   H445    1.109   1_455 S
C144   H446    1.110   1_455 S
H145   C294    1.109   .     S
H146   C294    1.110   .     S
C147   H149    1.106   .     S
C147   H148    1.111   .     S
C147   H150    1.109   .     S
O151   Cu165   2.001   .     S
O151   C157    1.312   .     A
O152   Cu166   2.001   .     S
O152   C158    1.306   .     A
O153   C158    1.311   .     A
O153   Cu165   2.000   .     S
O154   C157    1.303   .     A
O154   Cu166   2.000   .     S
N155   C170    1.372   .     A
N155   C168    1.374   .     A
N155   Cu165   2.037   .     S
N156   C169    1.383   .     A
N156   C167    1.386   .     A
N156   Cu166   2.037   .     S
C157   C188    1.479   .     S
C158   C187    1.480   .     S
O159   C163    1.309   .     A
O159   Cu165   1.975   .     S
O160   C164    1.314   .     A
O160   Cu166   1.975   .     S
O161   C164    1.309   .     A
O161   Cu165   1.974   .     S
O162   Cu166   1.974   .     S
O162   C163    1.311   .     A
C163   C183    1.488   .     S
C164   C184    1.494   .     S
Cu165  Cu166   2.711   .     S
C167   N189    1.441   .     S
C167   C1070   1.421   1_545 S
C168   N192    1.436   .     S
C168   C619    1.421   .     S
C169   N195    1.438   .     S
C169   C1068   1.421   1_545 S
C170   N198    1.435   .     S
C170   C617    1.421   .     S
C171   C188    1.414   .     A
C171   O257    1.385   .     S
C172   C187    1.412   .     A
C172   O268    1.377   .     S
C172   C324    1.391   .     S
C173   O279    1.385   .     S
C173   C187    1.414   .     A
C173   C321    1.399   .     S
C174   O290    1.378   .     S
C174   C188    1.410   .     A
C175   C179    1.399   .     A
C175   O201    1.384   .     S
C175   C185    1.419   .     A
C176   C180    1.403   .     A
C176   C186    1.418   .     A
C176   O212    1.386   .     S
C177   C181    1.401   .     A
C177   C186    1.419   .     A
C177   O223    1.388   .     S
C178   O234    1.387   .     S
C178   C185    1.415   .     A
C178   C182    1.400   .     A
C179   C183    1.420   .     A
C179   N245    1.430   .     S
C180   C184    1.417   .     A
C180   N248    1.444   .     S
C181   N251    1.431   .     S
C181   C184    1.422   .     A
C182   N254    1.444   .     S
C182   C183    1.415   .     A
C185   C1536   1.493   1_554 S
C186   C1535   1.493   .     S
N189   O191    1.300   .     A
N189   O190    1.290   .     A
N192   O194    1.301   .     A
N192   O193    1.297   .     A
N195   O196    1.291   .     A
N195   O197    1.299   .     A
N198   O200    1.301   .     A
N198   O199    1.298   .     A
O201   C202    1.411   .     S
C202   H204    1.114   .     S
C202   H1553   1.110   1_554 S
C202   C1555   1.530   1_554 S
H203   C1552   1.110   .     S
C205   H206    1.111   .     S
C205   C208    1.523   .     S
C205   C1552   1.530   .     S
C205   H1557   1.111   .     S
H207   C1555   1.111   1_554 S
C208   H210    1.110   .     S
C208   H211    1.111   .     S
C208   H209    1.110   .     S
O212   C213    1.417   .     S
C213   H215    1.115   .     S
C213   C216    1.532   .     S
C213   H1564   1.111   .     S
H214   C1563   1.111   1_554 S
C216   H218    1.111   .     S
C216   C219    1.524   .     S
C216   H217    1.110   .     S
C219   H221    1.108   .     S
C219   H222    1.110   .     S
C219   H220    1.111   .     S
O223   C224    1.413   .     S
C224   H226    1.112   .     S
C224   H1575   1.109   .     S
C224   C1577   1.533   .     S
H225   C1574   1.109   1_554 S
C227   H228    1.112   .     S
C227   C230    1.525   .     S
C227   C1574   1.533   1_554 S
C227   H1579   1.112   1_554 S
H229   C1577   1.112   .     S
C230   H231    1.107   .     S
C230   H232    1.111   .     S
C230   H233    1.111   .     S
O234   C235    1.418   .     S
C235   H237    1.113   .     S
C235   H236    1.111   .     S
C235   C238    1.538   .     S
C238   H239    1.112   .     S
C238   C241    1.526   .     S
C238   H240    1.111   .     S
C241   H243    1.109   .     S
C241   H242    1.112   .     S
C241   H244    1.109   .     S
N245   O246    1.296   .     A
N245   O247    1.300   .     A
N248   O250    1.301   .     A
N248   O249    1.301   .     A
N251   O252    1.297   .     A
N251   O253    1.300   .     A
N254   O256    1.301   .     A
N254   O255    1.301   .     A
O257   C258    1.428   .     S
C258   H259    1.105   .     S
C258   H260    1.117   .     S
C261   H263    1.108   .     S
C261   H262    1.111   .     S
C261   C264    1.529   .     S
C261   C408    1.534   .     S
C264   H265    1.111   .     S
C264   H266    1.109   .     S
C264   H267    1.111   .     S
O268   C269    1.416   .     S
C269   C272    1.542   .     S
C269   H271    1.113   .     S
C269   H270    1.105   .     S
C272   C275    1.524   .     S
C272   H423    1.108   .     S
C272   H424    1.109   .     S
C275   H278    1.109   .     S
C275   H276    1.111   .     S
C275   H427    1.109   .     S
O279   C280    1.428   .     S
C280   H282    1.118   .     S
C280   H281    1.105   .     S
C280   C433    1.534   .     S
C283   H285    1.107   .     S
C283   C286    1.529   .     S
C283   H284    1.111   .     S
C286   H289    1.110   .     S
C286   H288    1.108   .     S
C286   H287    1.111   .     S
O290   C291    1.416   .     S
C291   H293    1.112   .     S
C291   C294    1.541   .     S
C291   H292    1.104   .     S
C294   C297    1.522   .     S
H295   C444    1.109   .     S
H296   C444    1.110   .     S
C297   H299    1.106   .     S
C297   H298    1.111   .     S
C297   H300    1.109   .     S
O301   Cu315   2.001   .     S
O301   C307    1.312   .     A
O302   Cu316   2.001   .     S
O302   C308    1.306   .     A
O303   C308    1.311   .     A
O303   Cu315   2.000   .     S
O304   C307    1.303   .     A
O304   Cu316   2.000   .     S
N305   C320    1.372   .     A
N305   C318    1.374   .     A
N305   Cu315   2.037   .     S
N306   C319    1.383   .     A
N306   C317    1.386   .     A
N306   Cu316   2.037   .     S
C307   C338    1.479   .     S
C308   C337    1.480   .     S
O309   C313    1.309   .     A
O309   Cu315   1.975   .     S
O310   C314    1.314   .     A
O310   Cu316   1.975   .     S
O311   C314    1.309   .     A
O311   Cu315   1.974   .     S
O312   Cu316   1.974   .     S
O312   C313    1.311   .     A
C313   C333    1.488   .     S
C314   C334    1.494   .     S
Cu315  Cu316   2.711   .     S
C317   N339    1.441   .     S
C317   C1220   1.421   1_545 S
C318   N342    1.436   .     S
C318   C769    1.421   .     S
C319   N345    1.438   .     S
C319   C1218   1.421   1_545 S
C320   N348    1.435   .     S
C320   C767    1.421   .     S
C321   C338    1.414   .     A
C321   O407    1.385   .     S
C322   C337    1.412   .     A
C322   O418    1.377   .     S
C322   C24     1.391   1_655 S
C323   O429    1.385   .     S
C323   C337    1.414   .     A
C323   C21     1.399   1_655 S
C324   O440    1.378   .     S
C324   C338    1.410   .     A
C325   C329    1.399   .     A
C325   O351    1.384   .     S
C325   C335    1.419   .     A
C326   C330    1.403   .     A
C326   C336    1.418   .     A
C326   O362    1.386   .     S
C327   C331    1.401   .     A
C327   C336    1.419   .     A
C327   O373    1.388   .     S
C328   O384    1.387   .     S
C328   C335    1.415   .     A
C328   C332    1.400   .     A
C329   C333    1.420   .     A
C329   N395    1.430   .     S
C330   C334    1.417   .     A
C330   N398    1.444   .     S
C331   N401    1.431   .     S
C331   C334    1.422   .     A
C332   N404    1.444   .     S
C332   C333    1.415   .     A
C335   C1686   1.493   1_554 S
C336   C1685   1.493   .     S
N339   O341    1.300   .     A
N339   O340    1.290   .     A
N342   O344    1.301   .     A
N342   O343    1.297   .     A
N345   O346    1.291   .     A
N345   O347    1.299   .     A
N348   O350    1.301   .     A
N348   O349    1.298   .     A
O351   C352    1.411   .     S
C352   H354    1.114   .     S
C352   H1703   1.110   1_554 S
C352   C1705   1.530   1_554 S
H353   C1702   1.110   .     S
C355   H356    1.111   .     S
C355   C358    1.523   .     S
C355   C1702   1.530   .     S
C355   H1707   1.111   .     S
H357   C1705   1.111   1_554 S
C358   H360    1.110   .     S
C358   H361    1.111   .     S
C358   H359    1.110   .     S
O362   C363    1.417   .     S
C363   H365    1.115   .     S
C363   C366    1.532   .     S
C363   H1714   1.111   .     S
H364   C1713   1.111   1_554 S
C366   H368    1.111   .     S
C366   C369    1.524   .     S
C366   H367    1.110   .     S
C369   H371    1.108   .     S
C369   H372    1.110   .     S
C369   H370    1.111   .     S
O373   C374    1.413   .     S
C374   H376    1.112   .     S
C374   H1725   1.109   .     S
C374   C1727   1.533   .     S
H375   C1724   1.109   1_554 S
C377   H378    1.112   .     S
C377   C380    1.525   .     S
C377   C1724   1.533   1_554 S
C377   H1729   1.112   1_554 S
H379   C1727   1.112   .     S
C380   H381    1.107   .     S
C380   H382    1.111   .     S
C380   H383    1.111   .     S
O384   C385    1.418   .     S
C385   H387    1.113   .     S
C385   H386    1.111   .     S
C385   C388    1.538   .     S
C388   H389    1.112   .     S
C388   C391    1.526   .     S
C388   H390    1.111   .     S
C391   H393    1.109   .     S
C391   H392    1.112   .     S
C391   H394    1.109   .     S
N395   O396    1.296   .     A
N395   O397    1.300   .     A
N398   O400    1.301   .     A
N398   O399    1.301   .     A
N401   O402    1.297   .     A
N401   O403    1.300   .     A
N404   O406    1.301   .     A
N404   O405    1.301   .     A
O407   C408    1.428   .     S
C408   H409    1.105   .     S
C408   H410    1.117   .     S
C411   H413    1.108   .     S
C411   H412    1.111   .     S
C411   C414    1.529   .     S
C411   C108    1.534   1_655 S
C414   H415    1.111   .     S
C414   H416    1.109   .     S
C414   H417    1.111   .     S
O418   C419    1.416   .     S
C419   C422    1.542   .     S
C419   H421    1.113   .     S
C419   H420    1.105   .     S
C422   C425    1.524   .     S
C422   H123    1.108   1_655 S
C422   H124    1.109   1_655 S
C425   H428    1.109   .     S
C425   H426    1.111   .     S
C425   H127    1.109   1_655 S
O429   C430    1.428   .     S
C430   H432    1.118   .     S
C430   H431    1.105   .     S
C430   C133    1.534   1_655 S
C433   H435    1.107   .     S
C433   C436    1.529   .     S
C433   H434    1.111   .     S
C436   H439    1.110   .     S
C436   H438    1.108   .     S
C436   H437    1.111   .     S
O440   C441    1.416   .     S
C441   H443    1.112   .     S
C441   C444    1.541   .     S
C441   H442    1.104   .     S
C444   C447    1.522   .     S
H445   C144    1.109   1_655 S
H446   C144    1.110   1_655 S
C447   H449    1.106   .     S
C447   H448    1.111   .     S
C447   H450    1.109   .     S
O451   Cu465   2.001   .     S
O451   C457    1.312   .     A
O452   Cu466   2.001   .     S
O452   C458    1.306   .     A
O453   C458    1.311   .     A
O453   Cu465   2.000   .     S
O454   C457    1.303   .     A
O454   Cu466   2.000   .     S
N455   C470    1.372   .     A
N455   C468    1.374   .     A
N455   Cu465   2.037   .     S
N456   C469    1.383   .     A
N456   C467    1.386   .     A
N456   Cu466   2.037   .     S
C457   C488    1.479   .     S
C458   C487    1.480   .     S
O459   C463    1.309   .     A
O459   Cu465   1.975   .     S
O460   C464    1.314   .     A
O460   Cu466   1.975   .     S
O461   C464    1.309   .     A
O461   Cu465   1.974   .     S
O462   Cu466   1.974   .     S
O462   C463    1.311   .     A
C463   C483    1.488   .     S
C464   C484    1.494   .     S
Cu465  Cu466   2.711   .     S
C467   N489    1.441   .     S
C468   N492    1.436   .     S
C468   C919    1.421   .     S
C469   N495    1.438   .     S
C470   N498    1.435   .     S
C470   C917    1.421   .     S
C471   C488    1.414   .     A
C471   O557    1.385   .     S
C471   C773    1.399   1_455 S
C472   C487    1.412   .     A
C472   O568    1.377   .     S
C472   C624    1.391   .     S
C473   O579    1.385   .     S
C473   C487    1.414   .     A
C473   C621    1.399   .     S
C474   O590    1.378   .     S
C474   C488    1.410   .     A
C474   C772    1.391   1_455 S
C475   C479    1.399   .     A
C475   O501    1.384   .     S
C475   C485    1.419   .     A
C476   C480    1.403   .     A
C476   C486    1.418   .     A
C476   O512    1.386   .     S
C477   C481    1.401   .     A
C477   C486    1.419   .     A
C477   O523    1.388   .     S
C478   O534    1.387   .     S
C478   C485    1.415   .     A
C478   C482    1.400   .     A
C479   C483    1.420   .     A
C479   N545    1.430   .     S
C480   C484    1.417   .     A
C480   N548    1.444   .     S
C481   N551    1.431   .     S
C481   C484    1.422   .     A
C482   N554    1.444   .     S
C482   C483    1.415   .     A
C485   C1836   1.493   1_554 S
C486   C1835   1.493   .     S
N489   O491    1.300   .     A
N489   O490    1.290   .     A
N492   O494    1.301   .     A
N492   O493    1.297   .     A
N495   O496    1.291   .     A
N495   O497    1.299   .     A
N498   O500    1.301   .     A
N498   O499    1.298   .     A
O501   C502    1.411   .     S
C502   H504    1.114   .     S
C502   H1853   1.110   1_554 S
C502   C1855   1.530   1_554 S
H503   C1852   1.110   .     S
C505   H506    1.111   .     S
C505   C508    1.523   .     S
C505   C1852   1.530   .     S
C505   H1857   1.111   .     S
H507   C1855   1.111   1_554 S
C508   H510    1.110   .     S
C508   H511    1.111   .     S
C508   H509    1.110   .     S
O512   C513    1.417   .     S
C513   H515    1.115   .     S
C513   C516    1.532   .     S
C513   H1864   1.111   .     S
H514   C1863   1.111   1_554 S
C516   H518    1.111   .     S
C516   C519    1.524   .     S
C516   H517    1.110   .     S
C519   H521    1.108   .     S
C519   H522    1.110   .     S
C519   H520    1.111   .     S
O523   C524    1.413   .     S
C524   H526    1.112   .     S
C524   H1875   1.109   .     S
C524   C1877   1.533   .     S
H525   C1874   1.109   1_554 S
C527   H528    1.112   .     S
C527   C530    1.525   .     S
C527   C1874   1.533   1_554 S
C527   H1879   1.112   1_554 S
H529   C1877   1.112   .     S
C530   H531    1.107   .     S
C530   H532    1.111   .     S
C530   H533    1.111   .     S
O534   C535    1.418   .     S
C535   H537    1.113   .     S
C535   H536    1.111   .     S
C535   C538    1.538   .     S
C538   H539    1.112   .     S
C538   C541    1.526   .     S
C538   H540    1.111   .     S
C541   H543    1.109   .     S
C541   H542    1.112   .     S
C541   H544    1.109   .     S
N545   O546    1.296   .     A
N545   O547    1.300   .     A
N548   O550    1.301   .     A
N548   O549    1.301   .     A
N551   O552    1.297   .     A
N551   O553    1.300   .     A
N554   O556    1.301   .     A
N554   O555    1.301   .     A
O557   C558    1.428   .     S
C558   H559    1.105   .     S
C558   H560    1.117   .     S
C558   C861    1.534   1_455 S
C561   H563    1.108   .     S
C561   H562    1.111   .     S
C561   C564    1.529   .     S
C561   C708    1.534   .     S
C564   H565    1.111   .     S
C564   H566    1.109   .     S
C564   H567    1.111   .     S
O568   C569    1.416   .     S
C569   C572    1.542   .     S
C569   H571    1.113   .     S
C569   H570    1.105   .     S
C572   C575    1.524   .     S
C572   H723    1.108   .     S
C572   H724    1.109   .     S
H573   C872    1.108   1_455 S
H574   C872    1.109   1_455 S
C575   H578    1.109   .     S
C575   H576    1.111   .     S
C575   H727    1.109   .     S
H577   C875    1.109   1_455 S
O579   C580    1.428   .     S
C580   H582    1.118   .     S
C580   H581    1.105   .     S
C580   C733    1.534   .     S
C583   H585    1.107   .     S
C583   C586    1.529   .     S
C583   H584    1.111   .     S
C583   C880    1.534   1_455 S
C586   H589    1.110   .     S
C586   H588    1.108   .     S
C586   H587    1.111   .     S
O590   C591    1.416   .     S
C591   H593    1.112   .     S
C591   C594    1.541   .     S
C591   H592    1.104   .     S
C594   C597    1.522   .     S
C594   H895    1.109   1_455 S
C594   H896    1.110   1_455 S
H595   C744    1.109   .     S
H596   C744    1.110   .     S
C597   H599    1.106   .     S
C597   H598    1.111   .     S
C597   H600    1.109   .     S
O601   Cu615   2.001   .     S
O601   C607    1.312   .     A
O602   Cu616   2.001   .     S
O602   C608    1.306   .     A
O603   C608    1.311   .     A
O603   Cu615   2.000   .     S
O604   C607    1.303   .     A
O604   Cu616   2.000   .     S
N605   C620    1.372   .     A
N605   C618    1.374   .     A
N605   Cu615   2.037   .     S
N606   C619    1.383   .     A
N606   C617    1.386   .     A
N606   Cu616   2.037   .     S
C607   C638    1.479   .     S
C608   C637    1.480   .     S
O609   C613    1.309   .     A
O609   Cu615   1.975   .     S
O610   C614    1.314   .     A
O610   Cu616   1.975   .     S
O611   C614    1.309   .     A
O611   Cu615   1.974   .     S
O612   Cu616   1.974   .     S
O612   C613    1.311   .     A
C613   C633    1.488   .     S
C614   C634    1.494   .     S
Cu615  Cu616   2.711   .     S
C617   N639    1.441   .     S
C618   N642    1.436   .     S
C618   C1069   1.421   .     S
C619   N645    1.438   .     S
C620   N648    1.435   .     S
C620   C1067   1.421   .     S
C621   C638    1.414   .     A
C621   O707    1.385   .     S
C622   C637    1.412   .     A
C622   O718    1.377   .     S
C622   C774    1.391   .     S
C623   O729    1.385   .     S
C623   C637    1.414   .     A
C623   C771    1.399   .     S
C624   O740    1.378   .     S
C624   C638    1.410   .     A
C625   C629    1.399   .     A
C625   O651    1.384   .     S
C625   C635    1.419   .     A
C626   C630    1.403   .     A
C626   C636    1.418   .     A
C626   O662    1.386   .     S
C627   C631    1.401   .     A
C627   C636    1.419   .     A
C627   O673    1.388   .     S
C628   O684    1.387   .     S
C628   C635    1.415   .     A
C628   C632    1.400   .     A
C629   C633    1.420   .     A
C629   N695    1.430   .     S
C630   C634    1.417   .     A
C630   N698    1.444   .     S
C631   N701    1.431   .     S
C631   C634    1.422   .     A
C632   N704    1.444   .     S
C632   C633    1.415   .     A
C635   C1986   1.493   1_554 S
C636   C1985   1.493   .     S
N639   O641    1.300   .     A
N639   O640    1.290   .     A
N642   O644    1.301   .     A
N642   O643    1.297   .     A
N645   O646    1.291   .     A
N645   O647    1.299   .     A
N648   O650    1.301   .     A
N648   O649    1.298   .     A
O651   C652    1.411   .     S
C652   H654    1.114   .     S
C652   H2003   1.110   1_554 S
C652   C2005   1.530   1_554 S
H653   C2002   1.110   .     S
C655   H656    1.111   .     S
C655   C658    1.523   .     S
C655   C2002   1.530   .     S
C655   H2007   1.111   .     S
H657   C2005   1.111   1_554 S
C658   H660    1.110   .     S
C658   H661    1.111   .     S
C658   H659    1.110   .     S
O662   C663    1.417   .     S
C663   H665    1.115   .     S
C663   C666    1.532   .     S
C663   H2014   1.111   .     S
H664   C2013   1.111   1_554 S
C666   H668    1.111   .     S
C666   C669    1.524   .     S
C666   H667    1.110   .     S
C669   H671    1.108   .     S
C669   H672    1.110   .     S
C669   H670    1.111   .     S
O673   C674    1.413   .     S
C674   H676    1.112   .     S
C674   H2025   1.109   .     S
C674   C2027   1.533   .     S
H675   C2024   1.109   1_554 S
C677   H678    1.112   .     S
C677   C680    1.525   .     S
C677   C2024   1.533   1_554 S
C677   H2029   1.112   1_554 S
H679   C2027   1.112   .     S
C680   H681    1.107   .     S
C680   H682    1.111   .     S
C680   H683    1.111   .     S
O684   C685    1.418   .     S
C685   H687    1.113   .     S
C685   H686    1.111   .     S
C685   C688    1.538   .     S
C688   H689    1.112   .     S
C688   C691    1.526   .     S
C688   H690    1.111   .     S
C691   H693    1.109   .     S
C691   H692    1.112   .     S
C691   H694    1.109   .     S
N695   O696    1.296   .     A
N695   O697    1.300   .     A
N698   O700    1.301   .     A
N698   O699    1.301   .     A
N701   O702    1.297   .     A
N701   O703    1.300   .     A
N704   O706    1.301   .     A
N704   O705    1.301   .     A
O707   C708    1.428   .     S
C708   H709    1.105   .     S
C708   H710    1.117   .     S
C711   H713    1.108   .     S
C711   H712    1.111   .     S
C711   C714    1.529   .     S
C711   C858    1.534   .     S
C714   H715    1.111   .     S
C714   H716    1.109   .     S
C714   H717    1.111   .     S
O718   C719    1.416   .     S
C719   C722    1.542   .     S
C719   H721    1.113   .     S
C719   H720    1.105   .     S
C722   C725    1.524   .     S
C722   H873    1.108   .     S
C722   H874    1.109   .     S
C725   H728    1.109   .     S
C725   H726    1.111   .     S
C725   H877    1.109   .     S
O729   C730    1.428   .     S
C730   H732    1.118   .     S
C730   H731    1.105   .     S
C730   C883    1.534   .     S
C733   H735    1.107   .     S
C733   C736    1.529   .     S
C733   H734    1.111   .     S
C736   H739    1.110   .     S
C736   H738    1.108   .     S
C736   H737    1.111   .     S
O740   C741    1.416   .     S
C741   H743    1.112   .     S
C741   C744    1.541   .     S
C741   H742    1.104   .     S
C744   C747    1.522   .     S
H745   C894    1.109   .     S
H746   C894    1.110   .     S
C747   H749    1.106   .     S
C747   H748    1.111   .     S
C747   H750    1.109   .     S
O751   Cu765   2.001   .     S
O751   C757    1.312   .     A
O752   Cu766   2.001   .     S
O752   C758    1.306   .     A
O753   C758    1.311   .     A
O753   Cu765   2.000   .     S
O754   C757    1.303   .     A
O754   Cu766   2.000   .     S
N755   C770    1.372   .     A
N755   C768    1.374   .     A
N755   Cu765   2.037   .     S
N756   C769    1.383   .     A
N756   C767    1.386   .     A
N756   Cu766   2.037   .     S
C757   C788    1.479   .     S
C758   C787    1.480   .     S
O759   C763    1.309   .     A
O759   Cu765   1.975   .     S
O760   C764    1.314   .     A
O760   Cu766   1.975   .     S
O761   C764    1.309   .     A
O761   Cu765   1.974   .     S
O762   Cu766   1.974   .     S
O762   C763    1.311   .     A
C763   C783    1.488   .     S
C764   C784    1.494   .     S
Cu765  Cu766   2.711   .     S
C767   N789    1.441   .     S
C768   N792    1.436   .     S
C768   C1219   1.421   .     S
C769   N795    1.438   .     S
C770   N798    1.435   .     S
C770   C1217   1.421   .     S
C771   C788    1.414   .     A
C771   O857    1.385   .     S
C772   C787    1.412   .     A
C772   O868    1.377   .     S
C772   C474    1.391   1_655 S
C773   O879    1.385   .     S
C773   C787    1.414   .     A
C773   C471    1.399   1_655 S
C774   O890    1.378   .     S
C774   C788    1.410   .     A
C775   C779    1.399   .     A
C775   O801    1.384   .     S
C775   C785    1.419   .     A
C776   C780    1.403   .     A
C776   C786    1.418   .     A
C776   O812    1.386   .     S
C777   C781    1.401   .     A
C777   C786    1.419   .     A
C777   O823    1.388   .     S
C778   O834    1.387   .     S
C778   C785    1.415   .     A
C778   C782    1.400   .     A
C779   C783    1.420   .     A
C779   N845    1.430   .     S
C780   C784    1.417   .     A
C780   N848    1.444   .     S
C781   N851    1.431   .     S
C781   C784    1.422   .     A
C782   N854    1.444   .     S
C782   C783    1.415   .     A
C785   C2136   1.493   1_554 S
C786   C2135   1.493   .     S
N789   O791    1.300   .     A
N789   O790    1.290   .     A
N792   O794    1.301   .     A
N792   O793    1.297   .     A
N795   O796    1.291   .     A
N795   O797    1.299   .     A
N798   O800    1.301   .     A
N798   O799    1.298   .     A
O801   C802    1.411   .     S
C802   H804    1.114   .     S
C802   H2153   1.110   1_554 S
C802   C2155   1.530   1_554 S
H803   C2152   1.110   .     S
C805   H806    1.111   .     S
C805   C808    1.523   .     S
C805   C2152   1.530   .     S
C805   H2157   1.111   .     S
H807   C2155   1.111   1_554 S
C808   H810    1.110   .     S
C808   H811    1.111   .     S
C808   H809    1.110   .     S
O812   C813    1.417   .     S
C813   H815    1.115   .     S
C813   C816    1.532   .     S
C813   H2164   1.111   .     S
H814   C2163   1.111   1_554 S
C816   H818    1.111   .     S
C816   C819    1.524   .     S
C816   H817    1.110   .     S
C819   H821    1.108   .     S
C819   H822    1.110   .     S
C819   H820    1.111   .     S
O823   C824    1.413   .     S
C824   H826    1.112   .     S
C824   H2175   1.109   .     S
C824   C2177   1.533   .     S
H825   C2174   1.109   1_554 S
C827   H828    1.112   .     S
C827   C830    1.525   .     S
C827   C2174   1.533   1_554 S
C827   H2179   1.112   1_554 S
H829   C2177   1.112   .     S
C830   H831    1.107   .     S
C830   H832    1.111   .     S
C830   H833    1.111   .     S
O834   C835    1.418   .     S
C835   H837    1.113   .     S
C835   H836    1.111   .     S
C835   C838    1.538   .     S
C838   H839    1.112   .     S
C838   C841    1.526   .     S
C838   H840    1.111   .     S
C841   H843    1.109   .     S
C841   H842    1.112   .     S
C841   H844    1.109   .     S
N845   O846    1.296   .     A
N845   O847    1.300   .     A
N848   O850    1.301   .     A
N848   O849    1.301   .     A
N851   O852    1.297   .     A
N851   O853    1.300   .     A
N854   O856    1.301   .     A
N854   O855    1.301   .     A
O857   C858    1.428   .     S
C858   H859    1.105   .     S
C858   H860    1.117   .     S
C861   H863    1.108   .     S
C861   H862    1.111   .     S
C861   C864    1.529   .     S
C861   C558    1.534   1_655 S
C864   H865    1.111   .     S
C864   H866    1.109   .     S
C864   H867    1.111   .     S
O868   C869    1.416   .     S
C869   C872    1.542   .     S
C869   H871    1.113   .     S
C869   H870    1.105   .     S
C872   C875    1.524   .     S
C872   H573    1.108   1_655 S
C872   H574    1.109   1_655 S
C875   H878    1.109   .     S
C875   H876    1.111   .     S
C875   H577    1.109   1_655 S
O879   C880    1.428   .     S
C880   H882    1.118   .     S
C880   H881    1.105   .     S
C880   C583    1.534   1_655 S
C883   H885    1.107   .     S
C883   C886    1.529   .     S
C883   H884    1.111   .     S
C886   H889    1.110   .     S
C886   H888    1.108   .     S
C886   H887    1.111   .     S
O890   C891    1.416   .     S
C891   H893    1.112   .     S
C891   C894    1.541   .     S
C891   H892    1.104   .     S
C894   C897    1.522   .     S
H895   C594    1.109   1_655 S
H896   C594    1.110   1_655 S
C897   H899    1.106   .     S
C897   H898    1.111   .     S
C897   H900    1.109   .     S
O901   Cu915   2.001   .     S
O901   C907    1.312   .     A
O902   Cu916   2.001   .     S
O902   C908    1.306   .     A
O903   C908    1.311   .     A
O903   Cu915   2.000   .     S
O904   C907    1.303   .     A
O904   Cu916   2.000   .     S
N905   C920    1.372   .     A
N905   C918    1.374   .     A
N905   Cu915   2.037   .     S
N906   C919    1.383   .     A
N906   C917    1.386   .     A
N906   Cu916   2.037   .     S
C907   C938    1.479   .     S
C908   C937    1.480   .     S
O909   C913    1.309   .     A
O909   Cu915   1.975   .     S
O910   C914    1.314   .     A
O910   Cu916   1.975   .     S
O911   C914    1.309   .     A
O911   Cu915   1.974   .     S
O912   Cu916   1.974   .     S
O912   C913    1.311   .     A
C913   C933    1.488   .     S
C914   C934    1.494   .     S
Cu915  Cu916   2.711   .     S
C917   N939    1.441   .     S
C918   N942    1.436   .     S
C918   C19     1.421   1_565 S
C919   N945    1.438   .     S
C920   N948    1.435   .     S
C920   C17     1.421   1_565 S
C921   C938    1.414   .     A
C921   O1007   1.385   .     S
C921   C1223   1.399   1_455 S
C922   C937    1.412   .     A
C922   O1018   1.377   .     S
C922   C1074   1.391   .     S
C923   O1029   1.385   .     S
C923   C937    1.414   .     A
C923   C1071   1.399   .     S
C924   O1040   1.378   .     S
C924   C938    1.410   .     A
C924   C1222   1.391   1_455 S
C925   C929    1.399   .     A
C925   O951    1.384   .     S
C925   C935    1.419   .     A
C926   C930    1.403   .     A
C926   C936    1.418   .     A
C926   O962    1.386   .     S
C927   C931    1.401   .     A
C927   C936    1.419   .     A
C927   O973    1.388   .     S
C928   O984    1.387   .     S
C928   C935    1.415   .     A
C928   C932    1.400   .     A
C929   C933    1.420   .     A
C929   N995    1.430   .     S
C930   C934    1.417   .     A
C930   N998    1.444   .     S
C931   N1001   1.431   .     S
C931   C934    1.422   .     A
C932   N1004   1.444   .     S
C932   C933    1.415   .     A
C935   C2286   1.493   1_554 S
C936   C2285   1.493   .     S
N939   O941    1.300   .     A
N939   O940    1.290   .     A
N942   O944    1.301   .     A
N942   O943    1.297   .     A
N945   O946    1.291   .     A
N945   O947    1.299   .     A
N948   O950    1.301   .     A
N948   O949    1.298   .     A
O951   C952    1.411   .     S
C952   H954    1.114   .     S
C952   H2303   1.110   1_554 S
C952   C2305   1.530   1_554 S
H953   C2302   1.110   .     S
C955   H956    1.111   .     S
C955   C958    1.523   .     S
C955   C2302   1.530   .     S
C955   H2307   1.111   .     S
H957   C2305   1.111   1_554 S
C958   H960    1.110   .     S
C958   H961    1.111   .     S
C958   H959    1.110   .     S
O962   C963    1.417   .     S
C963   H965    1.115   .     S
C963   C966    1.532   .     S
C963   H2314   1.111   .     S
H964   C2313   1.111   1_554 S
C966   H968    1.111   .     S
C966   C969    1.524   .     S
C966   H967    1.110   .     S
C969   H971    1.108   .     S
C969   H972    1.110   .     S
C969   H970    1.111   .     S
O973   C974    1.413   .     S
C974   H976    1.112   .     S
C974   H2325   1.109   .     S
C974   C2327   1.533   .     S
H975   C2324   1.109   1_554 S
C977   H978    1.112   .     S
C977   C980    1.525   .     S
C977   C2324   1.533   1_554 S
C977   H2329   1.112   1_554 S
H979   C2327   1.112   .     S
C980   H981    1.107   .     S
C980   H982    1.111   .     S
C980   H983    1.111   .     S
O984   C985    1.418   .     S
C985   H987    1.113   .     S
C985   H986    1.111   .     S
C985   C988    1.538   .     S
C988   H989    1.112   .     S
C988   C991    1.526   .     S
C988   H990    1.111   .     S
C991   H993    1.109   .     S
C991   H992    1.112   .     S
C991   H994    1.109   .     S
N995   O996    1.296   .     A
N995   O997    1.300   .     A
N998   O1000   1.301   .     A
N998   O999    1.301   .     A
N1001  O1002   1.297   .     A
N1001  O1003   1.300   .     A
N1004  O1006   1.301   .     A
N1004  O1005   1.301   .     A
O1007  C1008   1.428   .     S
C1008  H1009   1.105   .     S
C1008  H1010   1.117   .     S
C1008  C1311   1.534   1_455 S
C1011  H1013   1.108   .     S
C1011  H1012   1.111   .     S
C1011  C1014   1.529   .     S
C1011  C1158   1.534   .     S
C1014  H1015   1.111   .     S
C1014  H1016   1.109   .     S
C1014  H1017   1.111   .     S
O1018  C1019   1.416   .     S
C1019  C1022   1.542   .     S
C1019  H1021   1.113   .     S
C1019  H1020   1.105   .     S
C1022  C1025   1.524   .     S
C1022  H1173   1.108   .     S
C1022  H1174   1.109   .     S
H1023  C1322   1.108   1_455 S
H1024  C1322   1.109   1_455 S
C1025  H1028   1.109   .     S
C1025  H1026   1.111   .     S
C1025  H1177   1.109   .     S
H1027  C1325   1.109   1_455 S
O1029  C1030   1.428   .     S
C1030  H1032   1.118   .     S
C1030  H1031   1.105   .     S
C1030  C1183   1.534   .     S
C1033  H1035   1.107   .     S
C1033  C1036   1.529   .     S
C1033  H1034   1.111   .     S
C1033  C1330   1.534   1_455 S
C1036  H1039   1.110   .     S
C1036  H1038   1.108   .     S
C1036  H1037   1.111   .     S
O1040  C1041   1.416   .     S
C1041  H1043   1.112   .     S
C1041  C1044   1.541   .     S
C1041  H1042   1.104   .     S
C1044  C1047   1.522   .     S
C1044  H1345   1.109   1_455 S
C1044  H1346   1.110   1_455 S
H1045  C1194   1.109   .     S
H1046  C1194   1.110   .     S
C1047  H1049   1.106   .     S
C1047  H1048   1.111   .     S
C1047  H1050   1.109   .     S
O1051  Cu1065  2.001   .     S
O1051  C1057   1.312   .     A
O1052  Cu1066  2.001   .     S
O1052  C1058   1.306   .     A
O1053  C1058   1.311   .     A
O1053  Cu1065  2.000   .     S
O1054  C1057   1.303   .     A
O1054  Cu1066  2.000   .     S
N1055  C1070   1.372   .     A
N1055  C1068   1.374   .     A
N1055  Cu1065  2.037   .     S
N1056  C1069   1.383   .     A
N1056  C1067   1.386   .     A
N1056  Cu1066  2.037   .     S
C1057  C1088   1.479   .     S
C1058  C1087   1.480   .     S
O1059  C1063   1.309   .     A
O1059  Cu1065  1.975   .     S
O1060  C1064   1.314   .     A
O1060  Cu1066  1.975   .     S
O1061  C1064   1.309   .     A
O1061  Cu1065  1.974   .     S
O1062  Cu1066  1.974   .     S
O1062  C1063   1.311   .     A
C1063  C1083   1.488   .     S
C1064  C1084   1.494   .     S
Cu1065 Cu1066  2.711   .     S
C1067  N1089   1.441   .     S
C1068  N1092   1.436   .     S
C1068  C169    1.421   1_565 S
C1069  N1095   1.438   .     S
C1070  N1098   1.435   .     S
C1070  C167    1.421   1_565 S
C1071  C1088   1.414   .     A
C1071  O1157   1.385   .     S
C1072  C1087   1.412   .     A
C1072  O1168   1.377   .     S
C1072  C1224   1.391   .     S
C1073  O1179   1.385   .     S
C1073  C1087   1.414   .     A
C1073  C1221   1.399   .     S
C1074  O1190   1.378   .     S
C1074  C1088   1.410   .     A
C1075  C1079   1.399   .     A
C1075  O1101   1.384   .     S
C1075  C1085   1.419   .     A
C1076  C1080   1.403   .     A
C1076  C1086   1.418   .     A
C1076  O1112   1.386   .     S
C1077  C1081   1.401   .     A
C1077  C1086   1.419   .     A
C1077  O1123   1.388   .     S
C1078  O1134   1.387   .     S
C1078  C1085   1.415   .     A
C1078  C1082   1.400   .     A
C1079  C1083   1.420   .     A
C1079  N1145   1.430   .     S
C1080  C1084   1.417   .     A
C1080  N1148   1.444   .     S
C1081  N1151   1.431   .     S
C1081  C1084   1.422   .     A
C1082  N1154   1.444   .     S
C1082  C1083   1.415   .     A
C1085  C2436   1.493   1_554 S
C1086  C2435   1.493   .     S
N1089  O1091   1.300   .     A
N1089  O1090   1.290   .     A
N1092  O1094   1.301   .     A
N1092  O1093   1.297   .     A
N1095  O1096   1.291   .     A
N1095  O1097   1.299   .     A
N1098  O1100   1.301   .     A
N1098  O1099   1.298   .     A
O1101  C1102   1.411   .     S
C1102  H1104   1.114   .     S
C1102  H2453   1.110   1_554 S
C1102  C2455   1.530   1_554 S
H1103  C2452   1.110   .     S
C1105  H1106   1.111   .     S
C1105  C1108   1.523   .     S
C1105  C2452   1.530   .     S
C1105  H2457   1.111   .     S
H1107  C2455   1.111   1_554 S
C1108  H1110   1.110   .     S
C1108  H1111   1.111   .     S
C1108  H1109   1.110   .     S
O1112  C1113   1.417   .     S
C1113  H1115   1.115   .     S
C1113  C1116   1.532   .     S
C1113  H2464   1.111   .     S
H1114  C2463   1.111   1_554 S
C1116  H1118   1.111   .     S
C1116  C1119   1.524   .     S
C1116  H1117   1.110   .     S
C1119  H1121   1.108   .     S
C1119  H1122   1.110   .     S
C1119  H1120   1.111   .     S
O1123  C1124   1.413   .     S
C1124  H1126   1.112   .     S
C1124  H2475   1.109   .     S
C1124  C2477   1.533   .     S
H1125  C2474   1.109   1_554 S
C1127  H1128   1.112   .     S
C1127  C1130   1.525   .     S
C1127  C2474   1.533   1_554 S
C1127  H2479   1.112   1_554 S
H1129  C2477   1.112   .     S
C1130  H1131   1.107   .     S
C1130  H1132   1.111   .     S
C1130  H1133   1.111   .     S
O1134  C1135   1.418   .     S
C1135  H1137   1.113   .     S
C1135  H1136   1.111   .     S
C1135  C1138   1.538   .     S
C1138  H1139   1.112   .     S
C1138  C1141   1.526   .     S
C1138  H1140   1.111   .     S
C1141  H1143   1.109   .     S
C1141  H1142   1.112   .     S
C1141  H1144   1.109   .     S
N1145  O1146   1.296   .     A
N1145  O1147   1.300   .     A
N1148  O1150   1.301   .     A
N1148  O1149   1.301   .     A
N1151  O1152   1.297   .     A
N1151  O1153   1.300   .     A
N1154  O1156   1.301   .     A
N1154  O1155   1.301   .     A
O1157  C1158   1.428   .     S
C1158  H1159   1.105   .     S
C1158  H1160   1.117   .     S
C1161  H1163   1.108   .     S
C1161  H1162   1.111   .     S
C1161  C1164   1.529   .     S
C1161  C1308   1.534   .     S
C1164  H1165   1.111   .     S
C1164  H1166   1.109   .     S
C1164  H1167   1.111   .     S
O1168  C1169   1.416   .     S
C1169  C1172   1.542   .     S
C1169  H1171   1.113   .     S
C1169  H1170   1.105   .     S
C1172  C1175   1.524   .     S
C1172  H1323   1.108   .     S
C1172  H1324   1.109   .     S
C1175  H1178   1.109   .     S
C1175  H1176   1.111   .     S
C1175  H1327   1.109   .     S
O1179  C1180   1.428   .     S
C1180  H1182   1.118   .     S
C1180  H1181   1.105   .     S
C1180  C1333   1.534   .     S
C1183  H1185   1.107   .     S
C1183  C1186   1.529   .     S
C1183  H1184   1.111   .     S
C1186  H1189   1.110   .     S
C1186  H1188   1.108   .     S
C1186  H1187   1.111   .     S
O1190  C1191   1.416   .     S
C1191  H1193   1.112   .     S
C1191  C1194   1.541   .     S
C1191  H1192   1.104   .     S
C1194  C1197   1.522   .     S
H1195  C1344   1.109   .     S
H1196  C1344   1.110   .     S
C1197  H1199   1.106   .     S
C1197  H1198   1.111   .     S
C1197  H1200   1.109   .     S
O1201  Cu1215  2.001   .     S
O1201  C1207   1.312   .     A
O1202  Cu1216  2.001   .     S
O1202  C1208   1.306   .     A
O1203  C1208   1.311   .     A
O1203  Cu1215  2.000   .     S
O1204  C1207   1.303   .     A
O1204  Cu1216  2.000   .     S
N1205  C1220   1.372   .     A
N1205  C1218   1.374   .     A
N1205  Cu1215  2.037   .     S
N1206  C1219   1.383   .     A
N1206  C1217   1.386   .     A
N1206  Cu1216  2.037   .     S
C1207  C1238   1.479   .     S
C1208  C1237   1.480   .     S
O1209  C1213   1.309   .     A
O1209  Cu1215  1.975   .     S
O1210  C1214   1.314   .     A
O1210  Cu1216  1.975   .     S
O1211  C1214   1.309   .     A
O1211  Cu1215  1.974   .     S
O1212  Cu1216  1.974   .     S
O1212  C1213   1.311   .     A
C1213  C1233   1.488   .     S
C1214  C1234   1.494   .     S
Cu1215 Cu1216  2.711   .     S
C1217  N1239   1.441   .     S
C1218  N1242   1.436   .     S
C1218  C319    1.421   1_565 S
C1219  N1245   1.438   .     S
C1220  N1248   1.435   .     S
C1220  C317    1.421   1_565 S
C1221  C1238   1.414   .     A
C1221  O1307   1.385   .     S
C1222  C1237   1.412   .     A
C1222  O1318   1.377   .     S
C1222  C924    1.391   1_655 S
C1223  O1329   1.385   .     S
C1223  C1237   1.414   .     A
C1223  C921    1.399   1_655 S
C1224  O1340   1.378   .     S
C1224  C1238   1.410   .     A
C1225  C1229   1.399   .     A
C1225  O1251   1.384   .     S
C1225  C1235   1.419   .     A
C1226  C1230   1.403   .     A
C1226  C1236   1.418   .     A
C1226  O1262   1.386   .     S
C1227  C1231   1.401   .     A
C1227  C1236   1.419   .     A
C1227  O1273   1.388   .     S
C1228  O1284   1.387   .     S
C1228  C1235   1.415   .     A
C1228  C1232   1.400   .     A
C1229  C1233   1.420   .     A
C1229  N1295   1.430   .     S
C1230  C1234   1.417   .     A
C1230  N1298   1.444   .     S
C1231  N1301   1.431   .     S
C1231  C1234   1.422   .     A
C1232  N1304   1.444   .     S
C1232  C1233   1.415   .     A
C1235  C2586   1.493   1_554 S
C1236  C2585   1.493   .     S
N1239  O1241   1.300   .     A
N1239  O1240   1.290   .     A
N1242  O1244   1.301   .     A
N1242  O1243   1.297   .     A
N1245  O1246   1.291   .     A
N1245  O1247   1.299   .     A
N1248  O1250   1.301   .     A
N1248  O1249   1.298   .     A
O1251  C1252   1.411   .     S
C1252  H1254   1.114   .     S
C1252  H2603   1.110   1_554 S
C1252  C2605   1.530   1_554 S
H1253  C2602   1.110   .     S
C1255  H1256   1.111   .     S
C1255  C1258   1.523   .     S
C1255  C2602   1.530   .     S
C1255  H2607   1.111   .     S
H1257  C2605   1.111   1_554 S
C1258  H1260   1.110   .     S
C1258  H1261   1.111   .     S
C1258  H1259   1.110   .     S
O1262  C1263   1.417   .     S
C1263  H1265   1.115   .     S
C1263  C1266   1.532   .     S
C1263  H2614   1.111   .     S
H1264  C2613   1.111   1_554 S
C1266  H1268   1.111   .     S
C1266  C1269   1.524   .     S
C1266  H1267   1.110   .     S
C1269  H1271   1.108   .     S
C1269  H1272   1.110   .     S
C1269  H1270   1.111   .     S
O1273  C1274   1.413   .     S
C1274  H1276   1.112   .     S
C1274  H2625   1.109   .     S
C1274  C2627   1.533   .     S
H1275  C2624   1.109   1_554 S
C1277  H1278   1.112   .     S
C1277  C1280   1.525   .     S
C1277  C2624   1.533   1_554 S
C1277  H2629   1.112   1_554 S
H1279  C2627   1.112   .     S
C1280  H1281   1.107   .     S
C1280  H1282   1.111   .     S
C1280  H1283   1.111   .     S
O1284  C1285   1.418   .     S
C1285  H1287   1.113   .     S
C1285  H1286   1.111   .     S
C1285  C1288   1.538   .     S
C1288  H1289   1.112   .     S
C1288  C1291   1.526   .     S
C1288  H1290   1.111   .     S
C1291  H1293   1.109   .     S
C1291  H1292   1.112   .     S
C1291  H1294   1.109   .     S
N1295  O1296   1.296   .     A
N1295  O1297   1.300   .     A
N1298  O1300   1.301   .     A
N1298  O1299   1.301   .     A
N1301  O1302   1.297   .     A
N1301  O1303   1.300   .     A
N1304  O1306   1.301   .     A
N1304  O1305   1.301   .     A
O1307  C1308   1.428   .     S
C1308  H1309   1.105   .     S
C1308  H1310   1.117   .     S
C1311  H1313   1.108   .     S
C1311  H1312   1.111   .     S
C1311  C1314   1.529   .     S
C1311  C1008   1.534   1_655 S
C1314  H1315   1.111   .     S
C1314  H1316   1.109   .     S
C1314  H1317   1.111   .     S
O1318  C1319   1.416   .     S
C1319  C1322   1.542   .     S
C1319  H1321   1.113   .     S
C1319  H1320   1.105   .     S
C1322  C1325   1.524   .     S
C1322  H1023   1.108   1_655 S
C1322  H1024   1.109   1_655 S
C1325  H1328   1.109   .     S
C1325  H1326   1.111   .     S
C1325  H1027   1.109   1_655 S
O1329  C1330   1.428   .     S
C1330  H1332   1.118   .     S
C1330  H1331   1.105   .     S
C1330  C1033   1.534   1_655 S
C1333  H1335   1.107   .     S
C1333  C1336   1.529   .     S
C1333  H1334   1.111   .     S
C1336  H1339   1.110   .     S
C1336  H1338   1.108   .     S
C1336  H1337   1.111   .     S
O1340  C1341   1.416   .     S
C1341  H1343   1.112   .     S
C1341  C1344   1.541   .     S
C1341  H1342   1.104   .     S
C1344  C1347   1.522   .     S
H1345  C1044   1.109   1_655 S
H1346  C1044   1.110   1_655 S
C1347  H1349   1.106   .     S
C1347  H1348   1.111   .     S
C1347  H1350   1.109   .     S
O1351  Cu1365  2.001   .     S
O1351  C1357   1.312   .     A
O1352  Cu1366  2.001   .     S
O1352  C1358   1.306   .     A
O1353  C1358   1.311   .     A
O1353  Cu1365  2.000   .     S
O1354  C1357   1.303   .     A
O1354  Cu1366  2.000   .     S
N1355  C1370   1.372   .     A
N1355  C1368   1.374   .     A
N1355  Cu1365  2.037   .     S
N1356  C1369   1.383   .     A
N1356  C1367   1.386   .     A
N1356  Cu1366  2.037   .     S
C1357  C1388   1.479   .     S
C1358  C1387   1.480   .     S
O1359  C1363   1.309   .     A
O1359  Cu1365  1.975   .     S
O1360  C1364   1.314   .     A
O1360  Cu1366  1.975   .     S
O1361  C1364   1.309   .     A
O1361  Cu1365  1.974   .     S
O1362  Cu1366  1.974   .     S
O1362  C1363   1.311   .     A
C1363  C1383   1.488   .     S
C1364  C1384   1.494   .     S
Cu1365 Cu1366  2.711   .     S
C1367  N1389   1.441   .     S
C1367  C2270   1.421   1_545 S
C1368  N1392   1.436   .     S
C1368  C1819   1.421   .     S
C1369  N1395   1.438   .     S
C1369  C2268   1.421   1_545 S
C1370  N1398   1.435   .     S
C1370  C1817   1.421   .     S
C1371  C1388   1.414   .     A
C1371  O1457   1.385   .     S
C1371  C1673   1.399   1_455 S
C1372  C1387   1.412   .     A
C1372  O1468   1.377   .     S
C1372  C1524   1.391   .     S
C1373  O1479   1.385   .     S
C1373  C1387   1.414   .     A
C1373  C1521   1.399   .     S
C1374  O1490   1.378   .     S
C1374  C1388   1.410   .     A
C1374  C1672   1.391   1_455 S
C1375  C1379   1.399   .     A
C1375  O1401   1.384   .     S
C1375  C1385   1.419   .     A
C1376  C1380   1.403   .     A
C1376  C1386   1.418   .     A
C1376  O1412   1.386   .     S
C1377  C1381   1.401   .     A
C1377  C1386   1.419   .     A
C1377  O1423   1.388   .     S
C1378  O1434   1.387   .     S
C1378  C1385   1.415   .     A
C1378  C1382   1.400   .     A
C1379  C1383   1.420   .     A
C1379  N1445   1.430   .     S
C1380  C1384   1.417   .     A
C1380  N1448   1.444   .     S
C1381  N1451   1.431   .     S
C1381  C1384   1.422   .     A
C1382  N1454   1.444   .     S
C1382  C1383   1.415   .     A
C1386  C35     1.493   1_556 S
N1389  O1391   1.300   .     A
N1389  O1390   1.290   .     A
N1392  O1394   1.301   .     A
N1392  O1393   1.297   .     A
N1395  O1396   1.291   .     A
N1395  O1397   1.299   .     A
N1398  O1400   1.301   .     A
N1398  O1399   1.298   .     A
O1401  C1402   1.411   .     S
C1402  H1404   1.114   .     S
H1403  C52     1.110   1_556 S
C1405  H1406   1.111   .     S
C1405  C1408   1.523   .     S
C1405  C52     1.530   1_556 S
C1405  H57     1.111   1_556 S
C1408  H1410   1.110   .     S
C1408  H1411   1.111   .     S
C1408  H1409   1.110   .     S
O1412  C1413   1.417   .     S
C1413  H1415   1.115   .     S
C1413  C1416   1.532   .     S
C1413  H64     1.111   1_556 S
C1416  H1418   1.111   .     S
C1416  C1419   1.524   .     S
C1416  H1417   1.110   .     S
C1419  H1421   1.108   .     S
C1419  H1422   1.110   .     S
C1419  H1420   1.111   .     S
O1423  C1424   1.413   .     S
C1424  H1426   1.112   .     S
C1424  H75     1.109   1_556 S
C1424  C77     1.533   1_556 S
C1427  H1428   1.112   .     S
C1427  C1430   1.525   .     S
H1429  C77     1.112   1_556 S
C1430  H1431   1.107   .     S
C1430  H1432   1.111   .     S
C1430  H1433   1.111   .     S
O1434  C1435   1.418   .     S
C1435  H1437   1.113   .     S
C1435  H1436   1.111   .     S
C1435  C1438   1.538   .     S
C1438  H1439   1.112   .     S
C1438  C1441   1.526   .     S
C1438  H1440   1.111   .     S
C1441  H1443   1.109   .     S
C1441  H1442   1.112   .     S
C1441  H1444   1.109   .     S
N1445  O1446   1.296   .     A
N1445  O1447   1.300   .     A
N1448  O1450   1.301   .     A
N1448  O1449   1.301   .     A
N1451  O1452   1.297   .     A
N1451  O1453   1.300   .     A
N1454  O1456   1.301   .     A
N1454  O1455   1.301   .     A
O1457  C1458   1.428   .     S
C1458  H1459   1.105   .     S
C1458  H1460   1.117   .     S
C1458  C1761   1.534   1_455 S
C1461  H1463   1.108   .     S
C1461  H1462   1.111   .     S
C1461  C1464   1.529   .     S
C1461  C1608   1.534   .     S
C1464  H1465   1.111   .     S
C1464  H1466   1.109   .     S
C1464  H1467   1.111   .     S
O1468  C1469   1.416   .     S
C1469  C1472   1.542   .     S
C1469  H1471   1.113   .     S
C1469  H1470   1.105   .     S
C1472  C1475   1.524   .     S
C1472  H1623   1.108   .     S
C1472  H1624   1.109   .     S
H1473  C1772   1.108   1_455 S
H1474  C1772   1.109   1_455 S
C1475  H1478   1.109   .     S
C1475  H1476   1.111   .     S
C1475  H1627   1.109   .     S
H1477  C1775   1.109   1_455 S
O1479  C1480   1.428   .     S
C1480  H1482   1.118   .     S
C1480  H1481   1.105   .     S
C1480  C1633   1.534   .     S
C1483  H1485   1.107   .     S
C1483  C1486   1.529   .     S
C1483  H1484   1.111   .     S
C1483  C1780   1.534   1_455 S
C1486  H1489   1.110   .     S
C1486  H1488   1.108   .     S
C1486  H1487   1.111   .     S
O1490  C1491   1.416   .     S
C1491  H1493   1.112   .     S
C1491  C1494   1.541   .     S
C1491  H1492   1.104   .     S
C1494  C1497   1.522   .     S
C1494  H1795   1.109   1_455 S
C1494  H1796   1.110   1_455 S
H1495  C1644   1.109   .     S
H1496  C1644   1.110   .     S
C1497  H1499   1.106   .     S
C1497  H1498   1.111   .     S
C1497  H1500   1.109   .     S
O1501  Cu1515  2.001   .     S
O1501  C1507   1.312   .     A
O1502  Cu1516  2.001   .     S
O1502  C1508   1.306   .     A
O1503  C1508   1.311   .     A
O1503  Cu1515  2.000   .     S
O1504  C1507   1.303   .     A
O1504  Cu1516  2.000   .     S
N1505  C1520   1.372   .     A
N1505  C1518   1.374   .     A
N1505  Cu1515  2.037   .     S
N1506  C1519   1.383   .     A
N1506  C1517   1.386   .     A
N1506  Cu1516  2.037   .     S
C1507  C1538   1.479   .     S
C1508  C1537   1.480   .     S
O1509  C1513   1.309   .     A
O1509  Cu1515  1.975   .     S
O1510  C1514   1.314   .     A
O1510  Cu1516  1.975   .     S
O1511  C1514   1.309   .     A
O1511  Cu1515  1.974   .     S
O1512  Cu1516  1.974   .     S
O1512  C1513   1.311   .     A
C1513  C1533   1.488   .     S
C1514  C1534   1.494   .     S
Cu1515 Cu1516  2.711   .     S
C1517  N1539   1.441   .     S
C1517  C2420   1.421   1_545 S
C1518  N1542   1.436   .     S
C1518  C1969   1.421   .     S
C1519  N1545   1.438   .     S
C1519  C2418   1.421   1_545 S
C1520  N1548   1.435   .     S
C1520  C1967   1.421   .     S
C1521  C1538   1.414   .     A
C1521  O1607   1.385   .     S
C1522  C1537   1.412   .     A
C1522  O1618   1.377   .     S
C1522  C1674   1.391   .     S
C1523  O1629   1.385   .     S
C1523  C1537   1.414   .     A
C1523  C1671   1.399   .     S
C1524  O1640   1.378   .     S
C1524  C1538   1.410   .     A
C1525  C1529   1.399   .     A
C1525  O1551   1.384   .     S
C1525  C1535   1.419   .     A
C1526  C1530   1.403   .     A
C1526  C1536   1.418   .     A
C1526  O1562   1.386   .     S
C1527  C1531   1.401   .     A
C1527  C1536   1.419   .     A
C1527  O1573   1.388   .     S
C1528  O1584   1.387   .     S
C1528  C1535   1.415   .     A
C1528  C1532   1.400   .     A
C1529  C1533   1.420   .     A
C1529  N1595   1.430   .     S
C1530  C1534   1.417   .     A
C1530  N1598   1.444   .     S
C1531  N1601   1.431   .     S
C1531  C1534   1.422   .     A
C1532  N1604   1.444   .     S
C1532  C1533   1.415   .     A
C1536  C185    1.493   1_556 S
N1539  O1541   1.300   .     A
N1539  O1540   1.290   .     A
N1542  O1544   1.301   .     A
N1542  O1543   1.297   .     A
N1545  O1546   1.291   .     A
N1545  O1547   1.299   .     A
N1548  O1550   1.301   .     A
N1548  O1549   1.298   .     A
O1551  C1552   1.411   .     S
C1552  H1554   1.114   .     S
H1553  C202    1.110   1_556 S
C1555  H1556   1.111   .     S
C1555  C1558   1.523   .     S
C1555  C202    1.530   1_556 S
C1555  H207    1.111   1_556 S
C1558  H1560   1.110   .     S
C1558  H1561   1.111   .     S
C1558  H1559   1.110   .     S
O1562  C1563   1.417   .     S
C1563  H1565   1.115   .     S
C1563  C1566   1.532   .     S
C1563  H214    1.111   1_556 S
C1566  H1568   1.111   .     S
C1566  C1569   1.524   .     S
C1566  H1567   1.110   .     S
C1569  H1571   1.108   .     S
C1569  H1572   1.110   .     S
C1569  H1570   1.111   .     S
O1573  C1574   1.413   .     S
C1574  H1576   1.112   .     S
C1574  H225    1.109   1_556 S
C1574  C227    1.533   1_556 S
C1577  H1578   1.112   .     S
C1577  C1580   1.525   .     S
H1579  C227    1.112   1_556 S
C1580  H1581   1.107   .     S
C1580  H1582   1.111   .     S
C1580  H1583   1.111   .     S
O1584  C1585   1.418   .     S
C1585  H1587   1.113   .     S
C1585  H1586   1.111   .     S
C1585  C1588   1.538   .     S
C1588  H1589   1.112   .     S
C1588  C1591   1.526   .     S
C1588  H1590   1.111   .     S
C1591  H1593   1.109   .     S
C1591  H1592   1.112   .     S
C1591  H1594   1.109   .     S
N1595  O1596   1.296   .     A
N1595  O1597   1.300   .     A
N1598  O1600   1.301   .     A
N1598  O1599   1.301   .     A
N1601  O1602   1.297   .     A
N1601  O1603   1.300   .     A
N1604  O1606   1.301   .     A
N1604  O1605   1.301   .     A
O1607  C1608   1.428   .     S
C1608  H1609   1.105   .     S
C1608  H1610   1.117   .     S
C1611  H1613   1.108   .     S
C1611  H1612   1.111   .     S
C1611  C1614   1.529   .     S
C1611  C1758   1.534   .     S
C1614  H1615   1.111   .     S
C1614  H1616   1.109   .     S
C1614  H1617   1.111   .     S
O1618  C1619   1.416   .     S
C1619  C1622   1.542   .     S
C1619  H1621   1.113   .     S
C1619  H1620   1.105   .     S
C1622  C1625   1.524   .     S
C1622  H1773   1.108   .     S
C1622  H1774   1.109   .     S
C1625  H1628   1.109   .     S
C1625  H1626   1.111   .     S
C1625  H1777   1.109   .     S
O1629  C1630   1.428   .     S
C1630  H1632   1.118   .     S
C1630  H1631   1.105   .     S
C1630  C1783   1.534   .     S
C1633  H1635   1.107   .     S
C1633  C1636   1.529   .     S
C1633  H1634   1.111   .     S
C1636  H1639   1.110   .     S
C1636  H1638   1.108   .     S
C1636  H1637   1.111   .     S
O1640  C1641   1.416   .     S
C1641  H1643   1.112   .     S
C1641  C1644   1.541   .     S
C1641  H1642   1.104   .     S
C1644  C1647   1.522   .     S
H1645  C1794   1.109   .     S
H1646  C1794   1.110   .     S
C1647  H1649   1.106   .     S
C1647  H1648   1.111   .     S
C1647  H1650   1.109   .     S
O1651  Cu1665  2.001   .     S
O1651  C1657   1.312   .     A
O1652  Cu1666  2.001   .     S
O1652  C1658   1.306   .     A
O1653  C1658   1.311   .     A
O1653  Cu1665  2.000   .     S
O1654  C1657   1.303   .     A
O1654  Cu1666  2.000   .     S
N1655  C1670   1.372   .     A
N1655  C1668   1.374   .     A
N1655  Cu1665  2.037   .     S
N1656  C1669   1.383   .     A
N1656  C1667   1.386   .     A
N1656  Cu1666  2.037   .     S
C1657  C1688   1.479   .     S
C1658  C1687   1.480   .     S
O1659  C1663   1.309   .     A
O1659  Cu1665  1.975   .     S
O1660  C1664   1.314   .     A
O1660  Cu1666  1.975   .     S
O1661  C1664   1.309   .     A
O1661  Cu1665  1.974   .     S
O1662  Cu1666  1.974   .     S
O1662  C1663   1.311   .     A
C1663  C1683   1.488   .     S
C1664  C1684   1.494   .     S
Cu1665 Cu1666  2.711   .     S
C1667  N1689   1.441   .     S
C1667  C2570   1.421   1_545 S
C1668  N1692   1.436   .     S
C1668  C2119   1.421   .     S
C1669  N1695   1.438   .     S
C1669  C2568   1.421   1_545 S
C1670  N1698   1.435   .     S
C1670  C2117   1.421   .     S
C1671  C1688   1.414   .     A
C1671  O1757   1.385   .     S
C1672  C1687   1.412   .     A
C1672  O1768   1.377   .     S
C1672  C1374   1.391   1_655 S
C1673  O1779   1.385   .     S
C1673  C1687   1.414   .     A
C1673  C1371   1.399   1_655 S
C1674  O1790   1.378   .     S
C1674  C1688   1.410   .     A
C1675  C1679   1.399   .     A
C1675  O1701   1.384   .     S
C1675  C1685   1.419   .     A
C1676  C1680   1.403   .     A
C1676  C1686   1.418   .     A
C1676  O1712   1.386   .     S
C1677  C1681   1.401   .     A
C1677  C1686   1.419   .     A
C1677  O1723   1.388   .     S
C1678  O1734   1.387   .     S
C1678  C1685   1.415   .     A
C1678  C1682   1.400   .     A
C1679  C1683   1.420   .     A
C1679  N1745   1.430   .     S
C1680  C1684   1.417   .     A
C1680  N1748   1.444   .     S
C1681  N1751   1.431   .     S
C1681  C1684   1.422   .     A
C1682  N1754   1.444   .     S
C1682  C1683   1.415   .     A
C1686  C335    1.493   1_556 S
N1689  O1691   1.300   .     A
N1689  O1690   1.290   .     A
N1692  O1694   1.301   .     A
N1692  O1693   1.297   .     A
N1695  O1696   1.291   .     A
N1695  O1697   1.299   .     A
N1698  O1700   1.301   .     A
N1698  O1699   1.298   .     A
O1701  C1702   1.411   .     S
C1702  H1704   1.114   .     S
H1703  C352    1.110   1_556 S
C1705  H1706   1.111   .     S
C1705  C1708   1.523   .     S
C1705  C352    1.530   1_556 S
C1705  H357    1.111   1_556 S
C1708  H1710   1.110   .     S
C1708  H1711   1.111   .     S
C1708  H1709   1.110   .     S
O1712  C1713   1.417   .     S
C1713  H1715   1.115   .     S
C1713  C1716   1.532   .     S
C1713  H364    1.111   1_556 S
C1716  H1718   1.111   .     S
C1716  C1719   1.524   .     S
C1716  H1717   1.110   .     S
C1719  H1721   1.108   .     S
C1719  H1722   1.110   .     S
C1719  H1720   1.111   .     S
O1723  C1724   1.413   .     S
C1724  H1726   1.112   .     S
C1724  H375    1.109   1_556 S
C1724  C377    1.533   1_556 S
C1727  H1728   1.112   .     S
C1727  C1730   1.525   .     S
H1729  C377    1.112   1_556 S
C1730  H1731   1.107   .     S
C1730  H1732   1.111   .     S
C1730  H1733   1.111   .     S
O1734  C1735   1.418   .     S
C1735  H1737   1.113   .     S
C1735  H1736   1.111   .     S
C1735  C1738   1.538   .     S
C1738  H1739   1.112   .     S
C1738  C1741   1.526   .     S
C1738  H1740   1.111   .     S
C1741  H1743   1.109   .     S
C1741  H1742   1.112   .     S
C1741  H1744   1.109   .     S
N1745  O1746   1.296   .     A
N1745  O1747   1.300   .     A
N1748  O1750   1.301   .     A
N1748  O1749   1.301   .     A
N1751  O1752   1.297   .     A
N1751  O1753   1.300   .     A
N1754  O1756   1.301   .     A
N1754  O1755   1.301   .     A
O1757  C1758   1.428   .     S
C1758  H1759   1.105   .     S
C1758  H1760   1.117   .     S
C1761  H1763   1.108   .     S
C1761  H1762   1.111   .     S
C1761  C1764   1.529   .     S
C1761  C1458   1.534   1_655 S
C1764  H1765   1.111   .     S
C1764  H1766   1.109   .     S
C1764  H1767   1.111   .     S
O1768  C1769   1.416   .     S
C1769  C1772   1.542   .     S
C1769  H1771   1.113   .     S
C1769  H1770   1.105   .     S
C1772  C1775   1.524   .     S
C1772  H1473   1.108   1_655 S
C1772  H1474   1.109   1_655 S
C1775  H1778   1.109   .     S
C1775  H1776   1.111   .     S
C1775  H1477   1.109   1_655 S
O1779  C1780   1.428   .     S
C1780  H1782   1.118   .     S
C1780  H1781   1.105   .     S
C1780  C1483   1.534   1_655 S
C1783  H1785   1.107   .     S
C1783  C1786   1.529   .     S
C1783  H1784   1.111   .     S
C1786  H1789   1.110   .     S
C1786  H1788   1.108   .     S
C1786  H1787   1.111   .     S
O1790  C1791   1.416   .     S
C1791  H1793   1.112   .     S
C1791  C1794   1.541   .     S
C1791  H1792   1.104   .     S
C1794  C1797   1.522   .     S
H1795  C1494   1.109   1_655 S
H1796  C1494   1.110   1_655 S
C1797  H1799   1.106   .     S
C1797  H1798   1.111   .     S
C1797  H1800   1.109   .     S
O1801  Cu1815  2.001   .     S
O1801  C1807   1.312   .     A
O1802  Cu1816  2.001   .     S
O1802  C1808   1.306   .     A
O1803  C1808   1.311   .     A
O1803  Cu1815  2.000   .     S
O1804  C1807   1.303   .     A
O1804  Cu1816  2.000   .     S
N1805  C1820   1.372   .     A
N1805  C1818   1.374   .     A
N1805  Cu1815  2.037   .     S
N1806  C1819   1.383   .     A
N1806  C1817   1.386   .     A
N1806  Cu1816  2.037   .     S
C1807  C1838   1.479   .     S
C1808  C1837   1.480   .     S
O1809  C1813   1.309   .     A
O1809  Cu1815  1.975   .     S
O1810  C1814   1.314   .     A
O1810  Cu1816  1.975   .     S
O1811  C1814   1.309   .     A
O1811  Cu1815  1.974   .     S
O1812  Cu1816  1.974   .     S
O1812  C1813   1.311   .     A
C1813  C1833   1.488   .     S
C1814  C1834   1.494   .     S
Cu1815 Cu1816  2.711   .     S
C1817  N1839   1.441   .     S
C1818  N1842   1.436   .     S
C1818  C2269   1.421   .     S
C1819  N1845   1.438   .     S
C1820  N1848   1.435   .     S
C1820  C2267   1.421   .     S
C1821  C1838   1.414   .     A
C1821  O1907   1.385   .     S
C1821  C2123   1.399   1_455 S
C1822  C1837   1.412   .     A
C1822  O1918   1.377   .     S
C1822  C1974   1.391   .     S
C1823  O1929   1.385   .     S
C1823  C1837   1.414   .     A
C1823  C1971   1.399   .     S
C1824  O1940   1.378   .     S
C1824  C1838   1.410   .     A
C1824  C2122   1.391   1_455 S
C1825  C1829   1.399   .     A
C1825  O1851   1.384   .     S
C1825  C1835   1.419   .     A
C1826  C1830   1.403   .     A
C1826  C1836   1.418   .     A
C1826  O1862   1.386   .     S
C1827  C1831   1.401   .     A
C1827  C1836   1.419   .     A
C1827  O1873   1.388   .     S
C1828  O1884   1.387   .     S
C1828  C1835   1.415   .     A
C1828  C1832   1.400   .     A
C1829  C1833   1.420   .     A
C1829  N1895   1.430   .     S
C1830  C1834   1.417   .     A
C1830  N1898   1.444   .     S
C1831  N1901   1.431   .     S
C1831  C1834   1.422   .     A
C1832  N1904   1.444   .     S
C1832  C1833   1.415   .     A
C1836  C485    1.493   1_556 S
N1839  O1841   1.300   .     A
N1839  O1840   1.290   .     A
N1842  O1844   1.301   .     A
N1842  O1843   1.297   .     A
N1845  O1846   1.291   .     A
N1845  O1847   1.299   .     A
N1848  O1850   1.301   .     A
N1848  O1849   1.298   .     A
O1851  C1852   1.411   .     S
C1852  H1854   1.114   .     S
H1853  C502    1.110   1_556 S
C1855  H1856   1.111   .     S
C1855  C1858   1.523   .     S
C1855  C502    1.530   1_556 S
C1855  H507    1.111   1_556 S
C1858  H1860   1.110   .     S
C1858  H1861   1.111   .     S
C1858  H1859   1.110   .     S
O1862  C1863   1.417   .     S
C1863  H1865   1.115   .     S
C1863  C1866   1.532   .     S
C1863  H514    1.111   1_556 S
C1866  H1868   1.111   .     S
C1866  C1869   1.524   .     S
C1866  H1867   1.110   .     S
C1869  H1871   1.108   .     S
C1869  H1872   1.110   .     S
C1869  H1870   1.111   .     S
O1873  C1874   1.413   .     S
C1874  H1876   1.112   .     S
C1874  H525    1.109   1_556 S
C1874  C527    1.533   1_556 S
C1877  H1878   1.112   .     S
C1877  C1880   1.525   .     S
H1879  C527    1.112   1_556 S
C1880  H1881   1.107   .     S
C1880  H1882   1.111   .     S
C1880  H1883   1.111   .     S
O1884  C1885   1.418   .     S
C1885  H1887   1.113   .     S
C1885  H1886   1.111   .     S
C1885  C1888   1.538   .     S
C1888  H1889   1.112   .     S
C1888  C1891   1.526   .     S
C1888  H1890   1.111   .     S
C1891  H1893   1.109   .     S
C1891  H1892   1.112   .     S
C1891  H1894   1.109   .     S
N1895  O1896   1.296   .     A
N1895  O1897   1.300   .     A
N1898  O1900   1.301   .     A
N1898  O1899   1.301   .     A
N1901  O1902   1.297   .     A
N1901  O1903   1.300   .     A
N1904  O1906   1.301   .     A
N1904  O1905   1.301   .     A
O1907  C1908   1.428   .     S
C1908  H1909   1.105   .     S
C1908  H1910   1.117   .     S
C1908  C2211   1.534   1_455 S
C1911  H1913   1.108   .     S
C1911  H1912   1.111   .     S
C1911  C1914   1.529   .     S
C1911  C2058   1.534   .     S
C1914  H1915   1.111   .     S
C1914  H1916   1.109   .     S
C1914  H1917   1.111   .     S
O1918  C1919   1.416   .     S
C1919  C1922   1.542   .     S
C1919  H1921   1.113   .     S
C1919  H1920   1.105   .     S
C1922  C1925   1.524   .     S
C1922  H2073   1.108   .     S
C1922  H2074   1.109   .     S
H1923  C2222   1.108   1_455 S
H1924  C2222   1.109   1_455 S
C1925  H1928   1.109   .     S
C1925  H1926   1.111   .     S
C1925  H2077   1.109   .     S
H1927  C2225   1.109   1_455 S
O1929  C1930   1.428   .     S
C1930  H1932   1.118   .     S
C1930  H1931   1.105   .     S
C1930  C2083   1.534   .     S
C1933  H1935   1.107   .     S
C1933  C1936   1.529   .     S
C1933  H1934   1.111   .     S
C1933  C2230   1.534   1_455 S
C1936  H1939   1.110   .     S
C1936  H1938   1.108   .     S
C1936  H1937   1.111   .     S
O1940  C1941   1.416   .     S
C1941  H1943   1.112   .     S
C1941  C1944   1.541   .     S
C1941  H1942   1.104   .     S
C1944  C1947   1.522   .     S
C1944  H2245   1.109   1_455 S
C1944  H2246   1.110   1_455 S
H1945  C2094   1.109   .     S
H1946  C2094   1.110   .     S
C1947  H1949   1.106   .     S
C1947  H1948   1.111   .     S
C1947  H1950   1.109   .     S
O1951  Cu1965  2.001   .     S
O1951  C1957   1.312   .     A
O1952  Cu1966  2.001   .     S
O1952  C1958   1.306   .     A
O1953  C1958   1.311   .     A
O1953  Cu1965  2.000   .     S
O1954  C1957   1.303   .     A
O1954  Cu1966  2.000   .     S
N1955  C1970   1.372   .     A
N1955  C1968   1.374   .     A
N1955  Cu1965  2.037   .     S
N1956  C1969   1.383   .     A
N1956  C1967   1.386   .     A
N1956  Cu1966  2.037   .     S
C1957  C1988   1.479   .     S
C1958  C1987   1.480   .     S
O1959  C1963   1.309   .     A
O1959  Cu1965  1.975   .     S
O1960  C1964   1.314   .     A
O1960  Cu1966  1.975   .     S
O1961  C1964   1.309   .     A
O1961  Cu1965  1.974   .     S
O1962  Cu1966  1.974   .     S
O1962  C1963   1.311   .     A
C1963  C1983   1.488   .     S
C1964  C1984   1.494   .     S
Cu1965 Cu1966  2.711   .     S
C1967  N1989   1.441   .     S
C1968  N1992   1.436   .     S
C1968  C2419   1.421   .     S
C1969  N1995   1.438   .     S
C1970  N1998   1.435   .     S
C1970  C2417   1.421   .     S
C1971  C1988   1.414   .     A
C1971  O2057   1.385   .     S
C1972  C1987   1.412   .     A
C1972  O2068   1.377   .     S
C1972  C2124   1.391   .     S
C1973  O2079   1.385   .     S
C1973  C1987   1.414   .     A
C1973  C2121   1.399   .     S
C1974  O2090   1.378   .     S
C1974  C1988   1.410   .     A
C1975  C1979   1.399   .     A
C1975  O2001   1.384   .     S
C1975  C1985   1.419   .     A
C1976  C1980   1.403   .     A
C1976  C1986   1.418   .     A
C1976  O2012   1.386   .     S
C1977  C1981   1.401   .     A
C1977  C1986   1.419   .     A
C1977  O2023   1.388   .     S
C1978  O2034   1.387   .     S
C1978  C1985   1.415   .     A
C1978  C1982   1.400   .     A
C1979  C1983   1.420   .     A
C1979  N2045   1.430   .     S
C1980  C1984   1.417   .     A
C1980  N2048   1.444   .     S
C1981  N2051   1.431   .     S
C1981  C1984   1.422   .     A
C1982  N2054   1.444   .     S
C1982  C1983   1.415   .     A
C1986  C635    1.493   1_556 S
N1989  O1991   1.300   .     A
N1989  O1990   1.290   .     A
N1992  O1994   1.301   .     A
N1992  O1993   1.297   .     A
N1995  O1996   1.291   .     A
N1995  O1997   1.299   .     A
N1998  O2000   1.301   .     A
N1998  O1999   1.298   .     A
O2001  C2002   1.411   .     S
C2002  H2004   1.114   .     S
H2003  C652    1.110   1_556 S
C2005  H2006   1.111   .     S
C2005  C2008   1.523   .     S
C2005  C652    1.530   1_556 S
C2005  H657    1.111   1_556 S
C2008  H2010   1.110   .     S
C2008  H2011   1.111   .     S
C2008  H2009   1.110   .     S
O2012  C2013   1.417   .     S
C2013  H2015   1.115   .     S
C2013  C2016   1.532   .     S
C2013  H664    1.111   1_556 S
C2016  H2018   1.111   .     S
C2016  C2019   1.524   .     S
C2016  H2017   1.110   .     S
C2019  H2021   1.108   .     S
C2019  H2022   1.110   .     S
C2019  H2020   1.111   .     S
O2023  C2024   1.413   .     S
C2024  H2026   1.112   .     S
C2024  H675    1.109   1_556 S
C2024  C677    1.533   1_556 S
C2027  H2028   1.112   .     S
C2027  C2030   1.525   .     S
H2029  C677    1.112   1_556 S
C2030  H2031   1.107   .     S
C2030  H2032   1.111   .     S
C2030  H2033   1.111   .     S
O2034  C2035   1.418   .     S
C2035  H2037   1.113   .     S
C2035  H2036   1.111   .     S
C2035  C2038   1.538   .     S
C2038  H2039   1.112   .     S
C2038  C2041   1.526   .     S
C2038  H2040   1.111   .     S
C2041  H2043   1.109   .     S
C2041  H2042   1.112   .     S
C2041  H2044   1.109   .     S
N2045  O2046   1.296   .     A
N2045  O2047   1.300   .     A
N2048  O2050   1.301   .     A
N2048  O2049   1.301   .     A
N2051  O2052   1.297   .     A
N2051  O2053   1.300   .     A
N2054  O2056   1.301   .     A
N2054  O2055   1.301   .     A
O2057  C2058   1.428   .     S
C2058  H2059   1.105   .     S
C2058  H2060   1.117   .     S
C2061  H2063   1.108   .     S
C2061  H2062   1.111   .     S
C2061  C2064   1.529   .     S
C2061  C2208   1.534   .     S
C2064  H2065   1.111   .     S
C2064  H2066   1.109   .     S
C2064  H2067   1.111   .     S
O2068  C2069   1.416   .     S
C2069  C2072   1.542   .     S
C2069  H2071   1.113   .     S
C2069  H2070   1.105   .     S
C2072  C2075   1.524   .     S
C2072  H2223   1.108   .     S
C2072  H2224   1.109   .     S
C2075  H2078   1.109   .     S
C2075  H2076   1.111   .     S
C2075  H2227   1.109   .     S
O2079  C2080   1.428   .     S
C2080  H2082   1.118   .     S
C2080  H2081   1.105   .     S
C2080  C2233   1.534   .     S
C2083  H2085   1.107   .     S
C2083  C2086   1.529   .     S
C2083  H2084   1.111   .     S
C2086  H2089   1.110   .     S
C2086  H2088   1.108   .     S
C2086  H2087   1.111   .     S
O2090  C2091   1.416   .     S
C2091  H2093   1.112   .     S
C2091  C2094   1.541   .     S
C2091  H2092   1.104   .     S
C2094  C2097   1.522   .     S
H2095  C2244   1.109   .     S
H2096  C2244   1.110   .     S
C2097  H2099   1.106   .     S
C2097  H2098   1.111   .     S
C2097  H2100   1.109   .     S
O2101  Cu2115  2.001   .     S
O2101  C2107   1.312   .     A
O2102  Cu2116  2.001   .     S
O2102  C2108   1.306   .     A
O2103  C2108   1.311   .     A
O2103  Cu2115  2.000   .     S
O2104  C2107   1.303   .     A
O2104  Cu2116  2.000   .     S
N2105  C2120   1.372   .     A
N2105  C2118   1.374   .     A
N2105  Cu2115  2.037   .     S
N2106  C2119   1.383   .     A
N2106  C2117   1.386   .     A
N2106  Cu2116  2.037   .     S
C2107  C2138   1.479   .     S
C2108  C2137   1.480   .     S
O2109  C2113   1.309   .     A
O2109  Cu2115  1.975   .     S
O2110  C2114   1.314   .     A
O2110  Cu2116  1.975   .     S
O2111  C2114   1.309   .     A
O2111  Cu2115  1.974   .     S
O2112  Cu2116  1.974   .     S
O2112  C2113   1.311   .     A
C2113  C2133   1.488   .     S
C2114  C2134   1.494   .     S
Cu2115 Cu2116  2.711   .     S
C2117  N2139   1.441   .     S
C2118  N2142   1.436   .     S
C2118  C2569   1.421   .     S
C2119  N2145   1.438   .     S
C2120  N2148   1.435   .     S
C2120  C2567   1.421   .     S
C2121  C2138   1.414   .     A
C2121  O2207   1.385   .     S
C2122  C2137   1.412   .     A
C2122  O2218   1.377   .     S
C2122  C1824   1.391   1_655 S
C2123  O2229   1.385   .     S
C2123  C2137   1.414   .     A
C2123  C1821   1.399   1_655 S
C2124  O2240   1.378   .     S
C2124  C2138   1.410   .     A
C2125  C2129   1.399   .     A
C2125  O2151   1.384   .     S
C2125  C2135   1.419   .     A
C2126  C2130   1.403   .     A
C2126  C2136   1.418   .     A
C2126  O2162   1.386   .     S
C2127  C2131   1.401   .     A
C2127  C2136   1.419   .     A
C2127  O2173   1.388   .     S
C2128  O2184   1.387   .     S
C2128  C2135   1.415   .     A
C2128  C2132   1.400   .     A
C2129  C2133   1.420   .     A
C2129  N2195   1.430   .     S
C2130  C2134   1.417   .     A
C2130  N2198   1.444   .     S
C2131  N2201   1.431   .     S
C2131  C2134   1.422   .     A
C2132  N2204   1.444   .     S
C2132  C2133   1.415   .     A
C2136  C785    1.493   1_556 S
N2139  O2141   1.300   .     A
N2139  O2140   1.290   .     A
N2142  O2144   1.301   .     A
N2142  O2143   1.297   .     A
N2145  O2146   1.291   .     A
N2145  O2147   1.299   .     A
N2148  O2150   1.301   .     A
N2148  O2149   1.298   .     A
O2151  C2152   1.411   .     S
C2152  H2154   1.114   .     S
H2153  C802    1.110   1_556 S
C2155  H2156   1.111   .     S
C2155  C2158   1.523   .     S
C2155  C802    1.530   1_556 S
C2155  H807    1.111   1_556 S
C2158  H2160   1.110   .     S
C2158  H2161   1.111   .     S
C2158  H2159   1.110   .     S
O2162  C2163   1.417   .     S
C2163  H2165   1.115   .     S
C2163  C2166   1.532   .     S
C2163  H814    1.111   1_556 S
C2166  H2168   1.111   .     S
C2166  C2169   1.524   .     S
C2166  H2167   1.110   .     S
C2169  H2171   1.108   .     S
C2169  H2172   1.110   .     S
C2169  H2170   1.111   .     S
O2173  C2174   1.413   .     S
C2174  H2176   1.112   .     S
C2174  H825    1.109   1_556 S
C2174  C827    1.533   1_556 S
C2177  H2178   1.112   .     S
C2177  C2180   1.525   .     S
H2179  C827    1.112   1_556 S
C2180  H2181   1.107   .     S
C2180  H2182   1.111   .     S
C2180  H2183   1.111   .     S
O2184  C2185   1.418   .     S
C2185  H2187   1.113   .     S
C2185  H2186   1.111   .     S
C2185  C2188   1.538   .     S
C2188  H2189   1.112   .     S
C2188  C2191   1.526   .     S
C2188  H2190   1.111   .     S
C2191  H2193   1.109   .     S
C2191  H2192   1.112   .     S
C2191  H2194   1.109   .     S
N2195  O2196   1.296   .     A
N2195  O2197   1.300   .     A
N2198  O2200   1.301   .     A
N2198  O2199   1.301   .     A
N2201  O2202   1.297   .     A
N2201  O2203   1.300   .     A
N2204  O2206   1.301   .     A
N2204  O2205   1.301   .     A
O2207  C2208   1.428   .     S
C2208  H2209   1.105   .     S
C2208  H2210   1.117   .     S
C2211  H2213   1.108   .     S
C2211  H2212   1.111   .     S
C2211  C2214   1.529   .     S
C2211  C1908   1.534   1_655 S
C2214  H2215   1.111   .     S
C2214  H2216   1.109   .     S
C2214  H2217   1.111   .     S
O2218  C2219   1.416   .     S
C2219  C2222   1.542   .     S
C2219  H2221   1.113   .     S
C2219  H2220   1.105   .     S
C2222  C2225   1.524   .     S
C2222  H1923   1.108   1_655 S
C2222  H1924   1.109   1_655 S
C2225  H2228   1.109   .     S
C2225  H2226   1.111   .     S
C2225  H1927   1.109   1_655 S
O2229  C2230   1.428   .     S
C2230  H2232   1.118   .     S
C2230  H2231   1.105   .     S
C2230  C1933   1.534   1_655 S
C2233  H2235   1.107   .     S
C2233  C2236   1.529   .     S
C2233  H2234   1.111   .     S
C2236  H2239   1.110   .     S
C2236  H2238   1.108   .     S
C2236  H2237   1.111   .     S
O2240  C2241   1.416   .     S
C2241  H2243   1.112   .     S
C2241  C2244   1.541   .     S
C2241  H2242   1.104   .     S
C2244  C2247   1.522   .     S
H2245  C1944   1.109   1_655 S
H2246  C1944   1.110   1_655 S
C2247  H2249   1.106   .     S
C2247  H2248   1.111   .     S
C2247  H2250   1.109   .     S
O2251  Cu2265  2.001   .     S
O2251  C2257   1.312   .     A
O2252  Cu2266  2.001   .     S
O2252  C2258   1.306   .     A
O2253  C2258   1.311   .     A
O2253  Cu2265  2.000   .     S
O2254  C2257   1.303   .     A
O2254  Cu2266  2.000   .     S
N2255  C2270   1.372   .     A
N2255  C2268   1.374   .     A
N2255  Cu2265  2.037   .     S
N2256  C2269   1.383   .     A
N2256  C2267   1.386   .     A
N2256  Cu2266  2.037   .     S
C2257  C2288   1.479   .     S
C2258  C2287   1.480   .     S
O2259  C2263   1.309   .     A
O2259  Cu2265  1.975   .     S
O2260  C2264   1.314   .     A
O2260  Cu2266  1.975   .     S
O2261  C2264   1.309   .     A
O2261  Cu2265  1.974   .     S
O2262  Cu2266  1.974   .     S
O2262  C2263   1.311   .     A
C2263  C2283   1.488   .     S
C2264  C2284   1.494   .     S
Cu2265 Cu2266  2.711   .     S
C2267  N2289   1.441   .     S
C2268  N2292   1.436   .     S
C2268  C1369   1.421   1_565 S
C2269  N2295   1.438   .     S
C2270  N2298   1.435   .     S
C2270  C1367   1.421   1_565 S
C2271  C2288   1.414   .     A
C2271  O2357   1.385   .     S
C2271  C2573   1.399   1_455 S
C2272  C2287   1.412   .     A
C2272  O2368   1.377   .     S
C2272  C2424   1.391   .     S
C2273  O2379   1.385   .     S
C2273  C2287   1.414   .     A
C2273  C2421   1.399   .     S
C2274  O2390   1.378   .     S
C2274  C2288   1.410   .     A
C2274  C2572   1.391   1_455 S
C2275  C2279   1.399   .     A
C2275  O2301   1.384   .     S
C2275  C2285   1.419   .     A
C2276  C2280   1.403   .     A
C2276  C2286   1.418   .     A
C2276  O2312   1.386   .     S
C2277  C2281   1.401   .     A
C2277  C2286   1.419   .     A
C2277  O2323   1.388   .     S
C2278  O2334   1.387   .     S
C2278  C2285   1.415   .     A
C2278  C2282   1.400   .     A
C2279  C2283   1.420   .     A
C2279  N2345   1.430   .     S
C2280  C2284   1.417   .     A
C2280  N2348   1.444   .     S
C2281  N2351   1.431   .     S
C2281  C2284   1.422   .     A
C2282  N2354   1.444   .     S
C2282  C2283   1.415   .     A
C2286  C935    1.493   1_556 S
N2289  O2291   1.300   .     A
N2289  O2290   1.290   .     A
N2292  O2294   1.301   .     A
N2292  O2293   1.297   .     A
N2295  O2296   1.291   .     A
N2295  O2297   1.299   .     A
N2298  O2300   1.301   .     A
N2298  O2299   1.298   .     A
O2301  C2302   1.411   .     S
C2302  H2304   1.114   .     S
H2303  C952    1.110   1_556 S
C2305  H2306   1.111   .     S
C2305  C2308   1.523   .     S
C2305  C952    1.530   1_556 S
C2305  H957    1.111   1_556 S
C2308  H2310   1.110   .     S
C2308  H2311   1.111   .     S
C2308  H2309   1.110   .     S
O2312  C2313   1.417   .     S
C2313  H2315   1.115   .     S
C2313  C2316   1.532   .     S
C2313  H964    1.111   1_556 S
C2316  H2318   1.111   .     S
C2316  C2319   1.524   .     S
C2316  H2317   1.110   .     S
C2319  H2321   1.108   .     S
C2319  H2322   1.110   .     S
C2319  H2320   1.111   .     S
O2323  C2324   1.413   .     S
C2324  H2326   1.112   .     S
C2324  H975    1.109   1_556 S
C2324  C977    1.533   1_556 S
C2327  H2328   1.112   .     S
C2327  C2330   1.525   .     S
H2329  C977    1.112   1_556 S
C2330  H2331   1.107   .     S
C2330  H2332   1.111   .     S
C2330  H2333   1.111   .     S
O2334  C2335   1.418   .     S
C2335  H2337   1.113   .     S
C2335  H2336   1.111   .     S
C2335  C2338   1.538   .     S
C2338  H2339   1.112   .     S
C2338  C2341   1.526   .     S
C2338  H2340   1.111   .     S
C2341  H2343   1.109   .     S
C2341  H2342   1.112   .     S
C2341  H2344   1.109   .     S
N2345  O2346   1.296   .     A
N2345  O2347   1.300   .     A
N2348  O2350   1.301   .     A
N2348  O2349   1.301   .     A
N2351  O2352   1.297   .     A
N2351  O2353   1.300   .     A
N2354  O2356   1.301   .     A
N2354  O2355   1.301   .     A
O2357  C2358   1.428   .     S
C2358  H2359   1.105   .     S
C2358  H2360   1.117   .     S
C2358  C2661   1.534   1_455 S
C2361  H2363   1.108   .     S
C2361  H2362   1.111   .     S
C2361  C2364   1.529   .     S
C2361  C2508   1.534   .     S
C2364  H2365   1.111   .     S
C2364  H2366   1.109   .     S
C2364  H2367   1.111   .     S
O2368  C2369   1.416   .     S
C2369  C2372   1.542   .     S
C2369  H2371   1.113   .     S
C2369  H2370   1.105   .     S
C2372  C2375   1.524   .     S
C2372  H2523   1.108   .     S
C2372  H2524   1.109   .     S
H2373  C2672   1.108   1_455 S
H2374  C2672   1.109   1_455 S
C2375  H2378   1.109   .     S
C2375  H2376   1.111   .     S
C2375  H2527   1.109   .     S
H2377  C2675   1.109   1_455 S
O2379  C2380   1.428   .     S
C2380  H2382   1.118   .     S
C2380  H2381   1.105   .     S
C2380  C2533   1.534   .     S
C2383  H2385   1.107   .     S
C2383  C2386   1.529   .     S
C2383  H2384   1.111   .     S
C2383  C2680   1.534   1_455 S
C2386  H2389   1.110   .     S
C2386  H2388   1.108   .     S
C2386  H2387   1.111   .     S
O2390  C2391   1.416   .     S
C2391  H2393   1.112   .     S
C2391  C2394   1.541   .     S
C2391  H2392   1.104   .     S
C2394  C2397   1.522   .     S
C2394  H2695   1.109   1_455 S
C2394  H2696   1.110   1_455 S
H2395  C2544   1.109   .     S
H2396  C2544   1.110   .     S
C2397  H2399   1.106   .     S
C2397  H2398   1.111   .     S
C2397  H2400   1.109   .     S
O2401  Cu2415  2.001   .     S
O2401  C2407   1.312   .     A
O2402  Cu2416  2.001   .     S
O2402  C2408   1.306   .     A
O2403  C2408   1.311   .     A
O2403  Cu2415  2.000   .     S
O2404  C2407   1.303   .     A
O2404  Cu2416  2.000   .     S
N2405  C2420   1.372   .     A
N2405  C2418   1.374   .     A
N2405  Cu2415  2.037   .     S
N2406  C2419   1.383   .     A
N2406  C2417   1.386   .     A
N2406  Cu2416  2.037   .     S
C2407  C2438   1.479   .     S
C2408  C2437   1.480   .     S
O2409  C2413   1.309   .     A
O2409  Cu2415  1.975   .     S
O2410  C2414   1.314   .     A
O2410  Cu2416  1.975   .     S
O2411  C2414   1.309   .     A
O2411  Cu2415  1.974   .     S
O2412  Cu2416  1.974   .     S
O2412  C2413   1.311   .     A
C2413  C2433   1.488   .     S
C2414  C2434   1.494   .     S
Cu2415 Cu2416  2.711   .     S
C2417  N2439   1.441   .     S
C2418  N2442   1.436   .     S
C2418  C1519   1.421   1_565 S
C2419  N2445   1.438   .     S
C2420  N2448   1.435   .     S
C2420  C1517   1.421   1_565 S
C2421  C2438   1.414   .     A
C2421  O2507   1.385   .     S
C2422  C2437   1.412   .     A
C2422  O2518   1.377   .     S
C2422  C2574   1.391   .     S
C2423  O2529   1.385   .     S
C2423  C2437   1.414   .     A
C2423  C2571   1.399   .     S
C2424  O2540   1.378   .     S
C2424  C2438   1.410   .     A
C2425  C2429   1.399   .     A
C2425  O2451   1.384   .     S
C2425  C2435   1.419   .     A
C2426  C2430   1.403   .     A
C2426  C2436   1.418   .     A
C2426  O2462   1.386   .     S
C2427  C2431   1.401   .     A
C2427  C2436   1.419   .     A
C2427  O2473   1.388   .     S
C2428  O2484   1.387   .     S
C2428  C2435   1.415   .     A
C2428  C2432   1.400   .     A
C2429  C2433   1.420   .     A
C2429  N2495   1.430   .     S
C2430  C2434   1.417   .     A
C2430  N2498   1.444   .     S
C2431  N2501   1.431   .     S
C2431  C2434   1.422   .     A
C2432  N2504   1.444   .     S
C2432  C2433   1.415   .     A
C2436  C1085   1.493   1_556 S
N2439  O2441   1.300   .     A
N2439  O2440   1.290   .     A
N2442  O2444   1.301   .     A
N2442  O2443   1.297   .     A
N2445  O2446   1.291   .     A
N2445  O2447   1.299   .     A
N2448  O2450   1.301   .     A
N2448  O2449   1.298   .     A
O2451  C2452   1.411   .     S
C2452  H2454   1.114   .     S
H2453  C1102   1.110   1_556 S
C2455  H2456   1.111   .     S
C2455  C2458   1.523   .     S
C2455  C1102   1.530   1_556 S
C2455  H1107   1.111   1_556 S
C2458  H2460   1.110   .     S
C2458  H2461   1.111   .     S
C2458  H2459   1.110   .     S
O2462  C2463   1.417   .     S
C2463  H2465   1.115   .     S
C2463  C2466   1.532   .     S
C2463  H1114   1.111   1_556 S
C2466  H2468   1.111   .     S
C2466  C2469   1.524   .     S
C2466  H2467   1.110   .     S
C2469  H2471   1.108   .     S
C2469  H2472   1.110   .     S
C2469  H2470   1.111   .     S
O2473  C2474   1.413   .     S
C2474  H2476   1.112   .     S
C2474  H1125   1.109   1_556 S
C2474  C1127   1.533   1_556 S
C2477  H2478   1.112   .     S
C2477  C2480   1.525   .     S
H2479  C1127   1.112   1_556 S
C2480  H2481   1.107   .     S
C2480  H2482   1.111   .     S
C2480  H2483   1.111   .     S
O2484  C2485   1.418   .     S
C2485  H2487   1.113   .     S
C2485  H2486   1.111   .     S
C2485  C2488   1.538   .     S
C2488  H2489   1.112   .     S
C2488  C2491   1.526   .     S
C2488  H2490   1.111   .     S
C2491  H2493   1.109   .     S
C2491  H2492   1.112   .     S
C2491  H2494   1.109   .     S
N2495  O2496   1.296   .     A
N2495  O2497   1.300   .     A
N2498  O2500   1.301   .     A
N2498  O2499   1.301   .     A
N2501  O2502   1.297   .     A
N2501  O2503   1.300   .     A
N2504  O2506   1.301   .     A
N2504  O2505   1.301   .     A
O2507  C2508   1.428   .     S
C2508  H2509   1.105   .     S
C2508  H2510   1.117   .     S
C2511  H2513   1.108   .     S
C2511  H2512   1.111   .     S
C2511  C2514   1.529   .     S
C2511  C2658   1.534   .     S
C2514  H2515   1.111   .     S
C2514  H2516   1.109   .     S
C2514  H2517   1.111   .     S
O2518  C2519   1.416   .     S
C2519  C2522   1.542   .     S
C2519  H2521   1.113   .     S
C2519  H2520   1.105   .     S
C2522  C2525   1.524   .     S
C2522  H2673   1.108   .     S
C2522  H2674   1.109   .     S
C2525  H2528   1.109   .     S
C2525  H2526   1.111   .     S
C2525  H2677   1.109   .     S
O2529  C2530   1.428   .     S
C2530  H2532   1.118   .     S
C2530  H2531   1.105   .     S
C2530  C2683   1.534   .     S
C2533  H2535   1.107   .     S
C2533  C2536   1.529   .     S
C2533  H2534   1.111   .     S
C2536  H2539   1.110   .     S
C2536  H2538   1.108   .     S
C2536  H2537   1.111   .     S
O2540  C2541   1.416   .     S
C2541  H2543   1.112   .     S
C2541  C2544   1.541   .     S
C2541  H2542   1.104   .     S
C2544  C2547   1.522   .     S
H2545  C2694   1.109   .     S
H2546  C2694   1.110   .     S
C2547  H2549   1.106   .     S
C2547  H2548   1.111   .     S
C2547  H2550   1.109   .     S
O2551  Cu2565  2.001   .     S
O2551  C2557   1.312   .     A
O2552  Cu2566  2.001   .     S
O2552  C2558   1.306   .     A
O2553  C2558   1.311   .     A
O2553  Cu2565  2.000   .     S
O2554  C2557   1.303   .     A
O2554  Cu2566  2.000   .     S
N2555  C2570   1.372   .     A
N2555  C2568   1.374   .     A
N2555  Cu2565  2.037   .     S
N2556  C2569   1.383   .     A
N2556  C2567   1.386   .     A
N2556  Cu2566  2.037   .     S
C2557  C2588   1.479   .     S
C2558  C2587   1.480   .     S
O2559  C2563   1.309   .     A
O2559  Cu2565  1.975   .     S
O2560  C2564   1.314   .     A
O2560  Cu2566  1.975   .     S
O2561  C2564   1.309   .     A
O2561  Cu2565  1.974   .     S
O2562  Cu2566  1.974   .     S
O2562  C2563   1.311   .     A
C2563  C2583   1.488   .     S
C2564  C2584   1.494   .     S
Cu2565 Cu2566  2.711   .     S
C2567  N2589   1.441   .     S
C2568  N2592   1.436   .     S
C2568  C1669   1.421   1_565 S
C2569  N2595   1.438   .     S
C2570  N2598   1.435   .     S
C2570  C1667   1.421   1_565 S
C2571  C2588   1.414   .     A
C2571  O2657   1.385   .     S
C2572  C2587   1.412   .     A
C2572  O2668   1.377   .     S
C2572  C2274   1.391   1_655 S
C2573  O2679   1.385   .     S
C2573  C2587   1.414   .     A
C2573  C2271   1.399   1_655 S
C2574  O2690   1.378   .     S
C2574  C2588   1.410   .     A
C2575  C2579   1.399   .     A
C2575  O2601   1.384   .     S
C2575  C2585   1.419   .     A
C2576  C2580   1.403   .     A
C2576  C2586   1.418   .     A
C2576  O2612   1.386   .     S
C2577  C2581   1.401   .     A
C2577  C2586   1.419   .     A
C2577  O2623   1.388   .     S
C2578  O2634   1.387   .     S
C2578  C2585   1.415   .     A
C2578  C2582   1.400   .     A
C2579  C2583   1.420   .     A
C2579  N2645   1.430   .     S
C2580  C2584   1.417   .     A
C2580  N2648   1.444   .     S
C2581  N2651   1.431   .     S
C2581  C2584   1.422   .     A
C2582  N2654   1.444   .     S
C2582  C2583   1.415   .     A
C2586  C1235   1.493   1_556 S
N2589  O2591   1.300   .     A
N2589  O2590   1.290   .     A
N2592  O2594   1.301   .     A
N2592  O2593   1.297   .     A
N2595  O2596   1.291   .     A
N2595  O2597   1.299   .     A
N2598  O2600   1.301   .     A
N2598  O2599   1.298   .     A
O2601  C2602   1.411   .     S
C2602  H2604   1.114   .     S
H2603  C1252   1.110   1_556 S
C2605  H2606   1.111   .     S
C2605  C2608   1.523   .     S
C2605  C1252   1.530   1_556 S
C2605  H1257   1.111   1_556 S
C2608  H2610   1.110   .     S
C2608  H2611   1.111   .     S
C2608  H2609   1.110   .     S
O2612  C2613   1.417   .     S
C2613  H2615   1.115   .     S
C2613  C2616   1.532   .     S
C2613  H1264   1.111   1_556 S
C2616  H2618   1.111   .     S
C2616  C2619   1.524   .     S
C2616  H2617   1.110   .     S
C2619  H2621   1.108   .     S
C2619  H2622   1.110   .     S
C2619  H2620   1.111   .     S
O2623  C2624   1.413   .     S
C2624  H2626   1.112   .     S
C2624  H1275   1.109   1_556 S
C2624  C1277   1.533   1_556 S
C2627  H2628   1.112   .     S
C2627  C2630   1.525   .     S
H2629  C1277   1.112   1_556 S
C2630  H2631   1.107   .     S
C2630  H2632   1.111   .     S
C2630  H2633   1.111   .     S
O2634  C2635   1.418   .     S
C2635  H2637   1.113   .     S
C2635  H2636   1.111   .     S
C2635  C2638   1.538   .     S
C2638  H2639   1.112   .     S
C2638  C2641   1.526   .     S
C2638  H2640   1.111   .     S
C2641  H2643   1.109   .     S
C2641  H2642   1.112   .     S
C2641  H2644   1.109   .     S
N2645  O2646   1.296   .     A
N2645  O2647   1.300   .     A
N2648  O2650   1.301   .     A
N2648  O2649   1.301   .     A
N2651  O2652   1.297   .     A
N2651  O2653   1.300   .     A
N2654  O2656   1.301   .     A
N2654  O2655   1.301   .     A
O2657  C2658   1.428   .     S
C2658  H2659   1.105   .     S
C2658  H2660   1.117   .     S
C2661  H2663   1.108   .     S
C2661  H2662   1.111   .     S
C2661  C2664   1.529   .     S
C2661  C2358   1.534   1_655 S
C2664  H2665   1.111   .     S
C2664  H2666   1.109   .     S
C2664  H2667   1.111   .     S
O2668  C2669   1.416   .     S
C2669  C2672   1.542   .     S
C2669  H2671   1.113   .     S
C2669  H2670   1.105   .     S
C2672  C2675   1.524   .     S
C2672  H2373   1.108   1_655 S
C2672  H2374   1.109   1_655 S
C2675  H2678   1.109   .     S
C2675  H2676   1.111   .     S
C2675  H2377   1.109   1_655 S
O2679  C2680   1.428   .     S
C2680  H2682   1.118   .     S
C2680  H2681   1.105   .     S
C2680  C2383   1.534   1_655 S
C2683  H2685   1.107   .     S
C2683  C2686   1.529   .     S
C2683  H2684   1.111   .     S
C2686  H2689   1.110   .     S
C2686  H2688   1.108   .     S
C2686  H2687   1.111   .     S
O2690  C2691   1.416   .     S
C2691  H2693   1.112   .     S
C2691  C2694   1.541   .     S
C2691  H2692   1.104   .     S
C2694  C2697   1.522   .     S
H2695  C2394   1.109   1_655 S
H2696  C2394   1.110   1_655 S
C2697  H2699   1.106   .     S
C2697  H2698   1.111   .     S
C2697  H2700   1.109   .     S
