data_str_m2_o10_o16_pcu_sym.183
_audit_creation_date              2020-01-03
_audit_creation_method            'Materials Studio'
_symmetry_space_group_name_H-M    'P1'
_symmetry_Int_Tables_number       1
_symmetry_cell_setting            triclinic
loop_
_symmetry_equiv_pos_as_xyz
  x,y,z
_cell_length_a                    22.3379
_cell_length_b                    26.1853
_cell_length_c                    26.9823
_cell_angle_alpha                 94.2205
_cell_angle_beta                  79.0908
_cell_angle_gamma                 101.9488
loop_
_atom_site_label
_atom_site_type_symbol
_atom_site_fract_x
_atom_site_fract_y
_atom_site_fract_z
_atom_site_U_iso_or_equiv
_atom_site_adp_type
_atom_site_occupancy
C1     C     0.18060   0.26656   0.25288   0.00000  Uiso   1.00
C2     C     0.13595   0.17075   0.49010   0.00000  Uiso   1.00
C3     C     0.15853   0.17447   0.43716   0.00000  Uiso   1.00
C4     C     0.17973   0.18858   0.02276   0.00000  Uiso   1.00
C5     C     0.23421   0.22570   0.00565   0.00000  Uiso   1.00
C6     C     0.25095   0.23489   0.45449   0.00000  Uiso   1.00
C7     C     0.22218   0.19828   0.42175   0.00000  Uiso   1.00
C8     C     0.17477   0.16642   0.06919   0.00000  Uiso   1.00
C9     C     0.26612   0.22799   0.08662   0.00000  Uiso   1.00
C10    C     0.11711   0.15451   0.40246   0.00000  Uiso   1.00
C11    C     0.18797   0.32207   0.25158   0.00000  Uiso   1.00
C12    C     0.13417   0.16193   0.34704   0.00000  Uiso   1.00
C13    C     0.13987   0.01321   0.26293   0.00000  Uiso   1.00
C14    C     0.15094   0.06721   0.25205   0.00000  Uiso   1.00
C15    C     0.19954   0.17199   0.15377   0.00000  Uiso   1.00
C16    C     0.27579   0.24677   0.03826   0.00000  Uiso   1.00
C17    C     0.21674   0.18657   0.10143   0.00000  Uiso   1.00
C18    C     0.05752   0.12675   0.42128   0.00000  Uiso   1.00
C19    C     0.03515   0.12426   0.47281   0.00000  Uiso   1.00
C20    C     0.07209   0.14839   0.00758   0.00000  Uiso   1.00
Cu21   Cu    0.10710   0.16105   0.24436   0.00000  Uiso   1.00
Cu22   Cu    0.22623   0.17228   0.25565   0.00000  Uiso   1.00
H23    H     0.29694   0.24571   0.11236   0.00000  Uiso   1.00
H24    H     0.00403   0.20557   0.28924   0.00000  Uiso   1.00
H25    H     0.32947   0.12730   0.21057   0.00000  Uiso   1.00
H26    H     0.29627   0.25860   0.44085   0.00000  Uiso   1.00
H27    H     0.31671   0.27626   0.02581   0.00000  Uiso   1.00
H28    H     0.13836   0.13308   0.08078   0.00000  Uiso   1.00
H29    H     0.02679   0.10827   0.39585   0.00000  Uiso   1.00
H30    H     0.32043   0.10567   0.48552   0.00000  Uiso   1.00
H31    H     0.23449   0.00999   0.23686   0.00000  Uiso   1.00
N32    N     0.31574   0.18074   0.26416   0.00000  Uiso   1.00
N33    N     0.01759   0.15259   0.23584   0.00000  Uiso   1.00
O34    O     0.12797   0.23807   0.24633   0.00000  Uiso   1.00
O35    O     0.22858   0.24755   0.25587   0.00000  Uiso   1.00
O36    O     0.09181   0.15960   0.31840   0.00000  Uiso   1.00
O37    O     0.19242   0.16908   0.32793   0.00000  Uiso   1.00
O38    O     0.10476   0.08578   0.24414   0.00000  Uiso   1.00
O39    O     0.20536   0.09526   0.25367   0.00000  Uiso   1.00
O40    O     0.14092   0.16425   0.17207   0.00000  Uiso   1.00
O41    O     0.24152   0.17373   0.18161   0.00000  Uiso   1.00
S42    S     0.06438   0.31910   0.29521   0.00000  Uiso   1.00
O43    O     0.02625   0.29349   0.25660   0.00000  Uiso   1.00
O44    O     0.06773   0.27987   0.33202   0.00000  Uiso   1.00
O45    O     0.03036   0.03286   0.32743   0.00000  Uiso   1.00
H46    H     0.32856   0.03501   0.31063   0.00000  Uiso   1.00
C47    C     0.03933   0.15384   0.06036   0.00000  Uiso   1.00
H48    H     0.33102   0.12560   0.07444   0.00000  Uiso   1.00
O49    O     0.05607   0.19131   0.08765   0.00000  Uiso   1.00
C50    C     0.26509   0.16790   0.39010   0.00000  Uiso   1.00
H51    H     0.24863   0.12746   0.37900   0.00000  Uiso   1.00
O52    O     0.31979   0.18750   0.37710   0.00000  Uiso   1.00
C53    C     0.51394   0.26656   0.25288   0.00000  Uiso   1.00
C54    C     0.46929   0.17075   0.49010   0.00000  Uiso   1.00
C55    C     0.49187   0.17447   0.43716   0.00000  Uiso   1.00
C56    C     0.51307   0.18858   0.02276   0.00000  Uiso   1.00
C57    C     0.56754   0.22570   0.00565   0.00000  Uiso   1.00
C58    C     0.58428   0.23489   0.45449   0.00000  Uiso   1.00
C59    C     0.55551   0.19828   0.42175   0.00000  Uiso   1.00
C60    C     0.50811   0.16642   0.06919   0.00000  Uiso   1.00
C61    C     0.59945   0.22799   0.08662   0.00000  Uiso   1.00
C62    C     0.45044   0.15451   0.40246   0.00000  Uiso   1.00
C63    C     0.52130   0.32207   0.25158   0.00000  Uiso   1.00
C64    C     0.46750   0.16193   0.34704   0.00000  Uiso   1.00
C65    C     0.47320   0.01321   0.26293   0.00000  Uiso   1.00
C66    C     0.48427   0.06721   0.25205   0.00000  Uiso   1.00
C67    C     0.53287   0.17199   0.15377   0.00000  Uiso   1.00
C68    C     0.60912   0.24677   0.03826   0.00000  Uiso   1.00
C69    C     0.55007   0.18657   0.10143   0.00000  Uiso   1.00
C70    C     0.39086   0.12675   0.42128   0.00000  Uiso   1.00
C71    C     0.36848   0.12426   0.47281   0.00000  Uiso   1.00
C72    C     0.40543   0.14839   0.00758   0.00000  Uiso   1.00
Cu73   Cu    0.44043   0.16105   0.24436   0.00000  Uiso   1.00
Cu74   Cu    0.55957   0.17228   0.25565   0.00000  Uiso   1.00
H75    H     0.63027   0.24571   0.11236   0.00000  Uiso   1.00
H76    H     0.33736   0.20557   0.28924   0.00000  Uiso   1.00
H77    H     0.66280   0.12730   0.21057   0.00000  Uiso   1.00
H78    H     0.62960   0.25860   0.44085   0.00000  Uiso   1.00
H79    H     0.65005   0.27626   0.02581   0.00000  Uiso   1.00
H80    H     0.47169   0.13308   0.08078   0.00000  Uiso   1.00
H81    H     0.36013   0.10827   0.39585   0.00000  Uiso   1.00
H82    H     0.65377   0.10567   0.48552   0.00000  Uiso   1.00
H83    H     0.56782   0.00999   0.23686   0.00000  Uiso   1.00
N84    N     0.64908   0.18074   0.26416   0.00000  Uiso   1.00
N85    N     0.35092   0.15259   0.23584   0.00000  Uiso   1.00
O86    O     0.46131   0.23807   0.24633   0.00000  Uiso   1.00
O87    O     0.56191   0.24755   0.25587   0.00000  Uiso   1.00
O88    O     0.42515   0.15960   0.31840   0.00000  Uiso   1.00
O89    O     0.52575   0.16908   0.32793   0.00000  Uiso   1.00
O90    O     0.43809   0.08578   0.24414   0.00000  Uiso   1.00
O91    O     0.53869   0.09526   0.25367   0.00000  Uiso   1.00
O92    O     0.47425   0.16425   0.17207   0.00000  Uiso   1.00
O93    O     0.57485   0.17373   0.18161   0.00000  Uiso   1.00
S94    S     0.39771   0.31910   0.29521   0.00000  Uiso   1.00
O95    O     0.35959   0.29349   0.25660   0.00000  Uiso   1.00
O96    O     0.40106   0.27987   0.33202   0.00000  Uiso   1.00
O97    O     0.36370   0.03286   0.32743   0.00000  Uiso   1.00
H98    H     0.66189   0.03501   0.31063   0.00000  Uiso   1.00
C99    C     0.37266   0.15384   0.06036   0.00000  Uiso   1.00
H100   H     0.66436   0.12560   0.07444   0.00000  Uiso   1.00
O101   O     0.38940   0.19131   0.08765   0.00000  Uiso   1.00
C102   C     0.59843   0.16790   0.39010   0.00000  Uiso   1.00
H103   H     0.58196   0.12746   0.37900   0.00000  Uiso   1.00
O104   O     0.65312   0.18750   0.37710   0.00000  Uiso   1.00
C105   C     0.84727   0.26656   0.25288   0.00000  Uiso   1.00
C106   C     0.80262   0.17075   0.49010   0.00000  Uiso   1.00
C107   C     0.82520   0.17447   0.43716   0.00000  Uiso   1.00
C108   C     0.84640   0.18858   0.02276   0.00000  Uiso   1.00
C109   C     0.90087   0.22570   0.00565   0.00000  Uiso   1.00
C110   C     0.91761   0.23489   0.45449   0.00000  Uiso   1.00
C111   C     0.88884   0.19828   0.42175   0.00000  Uiso   1.00
C112   C     0.84144   0.16642   0.06919   0.00000  Uiso   1.00
C113   C     0.93278   0.22799   0.08662   0.00000  Uiso   1.00
C114   C     0.78377   0.15451   0.40246   0.00000  Uiso   1.00
C115   C     0.85463   0.32207   0.25158   0.00000  Uiso   1.00
C116   C     0.80084   0.16193   0.34704   0.00000  Uiso   1.00
C117   C     0.80653   0.01321   0.26293   0.00000  Uiso   1.00
C118   C     0.81760   0.06721   0.25205   0.00000  Uiso   1.00
C119   C     0.86621   0.17199   0.15377   0.00000  Uiso   1.00
C120   C     0.94246   0.24677   0.03826   0.00000  Uiso   1.00
C121   C     0.88340   0.18657   0.10143   0.00000  Uiso   1.00
C122   C     0.72419   0.12675   0.42128   0.00000  Uiso   1.00
C123   C     0.70182   0.12426   0.47281   0.00000  Uiso   1.00
C124   C     0.73876   0.14839   0.00758   0.00000  Uiso   1.00
Cu125  Cu    0.77377   0.16105   0.24436   0.00000  Uiso   1.00
Cu126  Cu    0.89290   0.17228   0.25565   0.00000  Uiso   1.00
H127   H     0.96360   0.24571   0.11236   0.00000  Uiso   1.00
H128   H     0.67069   0.20557   0.28924   0.00000  Uiso   1.00
H129   H     0.99613   0.12730   0.21057   0.00000  Uiso   1.00
H130   H     0.96294   0.25860   0.44085   0.00000  Uiso   1.00
H131   H     0.98338   0.27626   0.02581   0.00000  Uiso   1.00
H132   H     0.80503   0.13308   0.08078   0.00000  Uiso   1.00
H133   H     0.69346   0.10827   0.39585   0.00000  Uiso   1.00
H134   H     0.98710   0.10567   0.48552   0.00000  Uiso   1.00
H135   H     0.90116   0.00999   0.23686   0.00000  Uiso   1.00
N136   N     0.98241   0.18074   0.26416   0.00000  Uiso   1.00
N137   N     0.68426   0.15259   0.23584   0.00000  Uiso   1.00
O138   O     0.79464   0.23807   0.24633   0.00000  Uiso   1.00
O139   O     0.89524   0.24755   0.25587   0.00000  Uiso   1.00
O140   O     0.75848   0.15960   0.31840   0.00000  Uiso   1.00
O141   O     0.85908   0.16908   0.32793   0.00000  Uiso   1.00
O142   O     0.77142   0.08578   0.24414   0.00000  Uiso   1.00
O143   O     0.87203   0.09526   0.25367   0.00000  Uiso   1.00
O144   O     0.80758   0.16425   0.17207   0.00000  Uiso   1.00
O145   O     0.90819   0.17373   0.18161   0.00000  Uiso   1.00
S146   S     0.73105   0.31910   0.29521   0.00000  Uiso   1.00
O147   O     0.69292   0.29349   0.25660   0.00000  Uiso   1.00
O148   O     0.73440   0.27987   0.33202   0.00000  Uiso   1.00
O149   O     0.69703   0.03286   0.32743   0.00000  Uiso   1.00
H150   H     0.99523   0.03501   0.31063   0.00000  Uiso   1.00
C151   C     0.70600   0.15384   0.06036   0.00000  Uiso   1.00
H152   H     0.99769   0.12560   0.07444   0.00000  Uiso   1.00
O153   O     0.72273   0.19131   0.08765   0.00000  Uiso   1.00
C154   C     0.93176   0.16790   0.39010   0.00000  Uiso   1.00
H155   H     0.91529   0.12746   0.37900   0.00000  Uiso   1.00
O156   O     0.98646   0.18750   0.37710   0.00000  Uiso   1.00
C157   C     0.18060   0.59989   0.25288   0.00000  Uiso   1.00
C158   C     0.13595   0.50408   0.49010   0.00000  Uiso   1.00
C159   C     0.15853   0.50780   0.43716   0.00000  Uiso   1.00
C160   C     0.17973   0.52191   0.02276   0.00000  Uiso   1.00
C161   C     0.23421   0.55903   0.00565   0.00000  Uiso   1.00
C162   C     0.25095   0.56822   0.45449   0.00000  Uiso   1.00
C163   C     0.22218   0.53161   0.42175   0.00000  Uiso   1.00
C164   C     0.17477   0.49975   0.06919   0.00000  Uiso   1.00
C165   C     0.26612   0.56133   0.08662   0.00000  Uiso   1.00
C166   C     0.11711   0.48784   0.40246   0.00000  Uiso   1.00
C167   C     0.18797   0.65540   0.25158   0.00000  Uiso   1.00
C168   C     0.13417   0.49526   0.34704   0.00000  Uiso   1.00
C169   C     0.13987   0.34655   0.26293   0.00000  Uiso   1.00
C170   C     0.15094   0.40054   0.25205   0.00000  Uiso   1.00
C171   C     0.19954   0.50533   0.15377   0.00000  Uiso   1.00
C172   C     0.27579   0.58010   0.03826   0.00000  Uiso   1.00
C173   C     0.21674   0.51991   0.10143   0.00000  Uiso   1.00
C174   C     0.05752   0.46009   0.42128   0.00000  Uiso   1.00
C175   C     0.03515   0.45759   0.47281   0.00000  Uiso   1.00
C176   C     0.07209   0.48172   0.00758   0.00000  Uiso   1.00
Cu177  Cu    0.10710   0.49439   0.24436   0.00000  Uiso   1.00
Cu178  Cu    0.22623   0.50561   0.25565   0.00000  Uiso   1.00
H179   H     0.29694   0.57904   0.11236   0.00000  Uiso   1.00
H180   H     0.00403   0.53891   0.28924   0.00000  Uiso   1.00
H181   H     0.32947   0.46064   0.21057   0.00000  Uiso   1.00
H182   H     0.29627   0.59194   0.44085   0.00000  Uiso   1.00
H183   H     0.31671   0.60959   0.02581   0.00000  Uiso   1.00
H184   H     0.13836   0.46641   0.08078   0.00000  Uiso   1.00
H185   H     0.02679   0.44161   0.39585   0.00000  Uiso   1.00
H186   H     0.32043   0.43901   0.48552   0.00000  Uiso   1.00
H187   H     0.23449   0.34332   0.23686   0.00000  Uiso   1.00
N188   N     0.31574   0.51407   0.26416   0.00000  Uiso   1.00
N189   N     0.01759   0.48593   0.23584   0.00000  Uiso   1.00
O190   O     0.12797   0.57141   0.24633   0.00000  Uiso   1.00
O191   O     0.22858   0.58089   0.25587   0.00000  Uiso   1.00
O192   O     0.09181   0.49293   0.31840   0.00000  Uiso   1.00
O193   O     0.19242   0.50241   0.32793   0.00000  Uiso   1.00
O194   O     0.10476   0.41911   0.24414   0.00000  Uiso   1.00
O195   O     0.20536   0.42859   0.25367   0.00000  Uiso   1.00
O196   O     0.14092   0.49759   0.17207   0.00000  Uiso   1.00
O197   O     0.24152   0.50707   0.18161   0.00000  Uiso   1.00
S198   S     0.06438   0.65243   0.29521   0.00000  Uiso   1.00
O199   O     0.02625   0.62682   0.25660   0.00000  Uiso   1.00
O200   O     0.06773   0.61321   0.33202   0.00000  Uiso   1.00
O201   O     0.03036   0.36619   0.32743   0.00000  Uiso   1.00
H202   H     0.32856   0.36834   0.31063   0.00000  Uiso   1.00
C203   C     0.03933   0.48717   0.06036   0.00000  Uiso   1.00
H204   H     0.33102   0.45894   0.07444   0.00000  Uiso   1.00
O205   O     0.05607   0.52465   0.08765   0.00000  Uiso   1.00
C206   C     0.26509   0.50123   0.39010   0.00000  Uiso   1.00
H207   H     0.24863   0.46079   0.37900   0.00000  Uiso   1.00
O208   O     0.31979   0.52083   0.37710   0.00000  Uiso   1.00
C209   C     0.51394   0.59989   0.25288   0.00000  Uiso   1.00
C210   C     0.46929   0.50408   0.49010   0.00000  Uiso   1.00
C211   C     0.49187   0.50780   0.43716   0.00000  Uiso   1.00
C212   C     0.51307   0.52191   0.02276   0.00000  Uiso   1.00
C213   C     0.56754   0.55903   0.00565   0.00000  Uiso   1.00
C214   C     0.58428   0.56822   0.45449   0.00000  Uiso   1.00
C215   C     0.55551   0.53161   0.42175   0.00000  Uiso   1.00
C216   C     0.50811   0.49975   0.06919   0.00000  Uiso   1.00
C217   C     0.59945   0.56133   0.08662   0.00000  Uiso   1.00
C218   C     0.45044   0.48784   0.40246   0.00000  Uiso   1.00
C219   C     0.52130   0.65540   0.25158   0.00000  Uiso   1.00
C220   C     0.46750   0.49526   0.34704   0.00000  Uiso   1.00
C221   C     0.47320   0.34655   0.26293   0.00000  Uiso   1.00
C222   C     0.48427   0.40054   0.25205   0.00000  Uiso   1.00
C223   C     0.53287   0.50533   0.15377   0.00000  Uiso   1.00
C224   C     0.60912   0.58010   0.03826   0.00000  Uiso   1.00
C225   C     0.55007   0.51991   0.10143   0.00000  Uiso   1.00
C226   C     0.39086   0.46009   0.42128   0.00000  Uiso   1.00
C227   C     0.36848   0.45759   0.47281   0.00000  Uiso   1.00
C228   C     0.40543   0.48172   0.00758   0.00000  Uiso   1.00
Cu229  Cu    0.44043   0.49439   0.24436   0.00000  Uiso   1.00
Cu230  Cu    0.55957   0.50561   0.25565   0.00000  Uiso   1.00
H231   H     0.63027   0.57904   0.11236   0.00000  Uiso   1.00
H232   H     0.33736   0.53891   0.28924   0.00000  Uiso   1.00
H233   H     0.66280   0.46064   0.21057   0.00000  Uiso   1.00
H234   H     0.62960   0.59194   0.44085   0.00000  Uiso   1.00
H235   H     0.65005   0.60959   0.02581   0.00000  Uiso   1.00
H236   H     0.47169   0.46641   0.08078   0.00000  Uiso   1.00
H237   H     0.36013   0.44161   0.39585   0.00000  Uiso   1.00
H238   H     0.65377   0.43901   0.48552   0.00000  Uiso   1.00
H239   H     0.56782   0.34332   0.23686   0.00000  Uiso   1.00
N240   N     0.64908   0.51407   0.26416   0.00000  Uiso   1.00
N241   N     0.35092   0.48593   0.23584   0.00000  Uiso   1.00
O242   O     0.46131   0.57141   0.24633   0.00000  Uiso   1.00
O243   O     0.56191   0.58089   0.25587   0.00000  Uiso   1.00
O244   O     0.42515   0.49293   0.31840   0.00000  Uiso   1.00
O245   O     0.52575   0.50241   0.32793   0.00000  Uiso   1.00
O246   O     0.43809   0.41911   0.24414   0.00000  Uiso   1.00
O247   O     0.53869   0.42859   0.25367   0.00000  Uiso   1.00
O248   O     0.47425   0.49759   0.17207   0.00000  Uiso   1.00
O249   O     0.57485   0.50707   0.18161   0.00000  Uiso   1.00
S250   S     0.39771   0.65243   0.29521   0.00000  Uiso   1.00
O251   O     0.35959   0.62682   0.25660   0.00000  Uiso   1.00
O252   O     0.40106   0.61321   0.33202   0.00000  Uiso   1.00
O253   O     0.36370   0.36619   0.32743   0.00000  Uiso   1.00
H254   H     0.66189   0.36834   0.31063   0.00000  Uiso   1.00
C255   C     0.37266   0.48717   0.06036   0.00000  Uiso   1.00
H256   H     0.66436   0.45894   0.07444   0.00000  Uiso   1.00
O257   O     0.38940   0.52465   0.08765   0.00000  Uiso   1.00
C258   C     0.59843   0.50123   0.39010   0.00000  Uiso   1.00
H259   H     0.58196   0.46079   0.37900   0.00000  Uiso   1.00
O260   O     0.65312   0.52083   0.37710   0.00000  Uiso   1.00
C261   C     0.84727   0.59989   0.25288   0.00000  Uiso   1.00
C262   C     0.80262   0.50408   0.49010   0.00000  Uiso   1.00
C263   C     0.82520   0.50780   0.43716   0.00000  Uiso   1.00
C264   C     0.84640   0.52191   0.02276   0.00000  Uiso   1.00
C265   C     0.90087   0.55903   0.00565   0.00000  Uiso   1.00
C266   C     0.91761   0.56822   0.45449   0.00000  Uiso   1.00
C267   C     0.88884   0.53161   0.42175   0.00000  Uiso   1.00
C268   C     0.84144   0.49975   0.06919   0.00000  Uiso   1.00
C269   C     0.93278   0.56133   0.08662   0.00000  Uiso   1.00
C270   C     0.78377   0.48784   0.40246   0.00000  Uiso   1.00
C271   C     0.85463   0.65540   0.25158   0.00000  Uiso   1.00
C272   C     0.80084   0.49526   0.34704   0.00000  Uiso   1.00
C273   C     0.80653   0.34655   0.26293   0.00000  Uiso   1.00
C274   C     0.81760   0.40054   0.25205   0.00000  Uiso   1.00
C275   C     0.86621   0.50533   0.15377   0.00000  Uiso   1.00
C276   C     0.94246   0.58010   0.03826   0.00000  Uiso   1.00
C277   C     0.88340   0.51991   0.10143   0.00000  Uiso   1.00
C278   C     0.72419   0.46009   0.42128   0.00000  Uiso   1.00
C279   C     0.70182   0.45759   0.47281   0.00000  Uiso   1.00
C280   C     0.73876   0.48172   0.00758   0.00000  Uiso   1.00
Cu281  Cu    0.77377   0.49439   0.24436   0.00000  Uiso   1.00
Cu282  Cu    0.89290   0.50561   0.25565   0.00000  Uiso   1.00
H283   H     0.96360   0.57904   0.11236   0.00000  Uiso   1.00
H284   H     0.67069   0.53891   0.28924   0.00000  Uiso   1.00
H285   H     0.99613   0.46064   0.21057   0.00000  Uiso   1.00
H286   H     0.96294   0.59194   0.44085   0.00000  Uiso   1.00
H287   H     0.98338   0.60959   0.02581   0.00000  Uiso   1.00
H288   H     0.80503   0.46641   0.08078   0.00000  Uiso   1.00
H289   H     0.69346   0.44161   0.39585   0.00000  Uiso   1.00
H290   H     0.98710   0.43901   0.48552   0.00000  Uiso   1.00
H291   H     0.90116   0.34332   0.23686   0.00000  Uiso   1.00
N292   N     0.98241   0.51407   0.26416   0.00000  Uiso   1.00
N293   N     0.68426   0.48593   0.23584   0.00000  Uiso   1.00
O294   O     0.79464   0.57141   0.24633   0.00000  Uiso   1.00
O295   O     0.89524   0.58089   0.25587   0.00000  Uiso   1.00
O296   O     0.75848   0.49293   0.31840   0.00000  Uiso   1.00
O297   O     0.85908   0.50241   0.32793   0.00000  Uiso   1.00
O298   O     0.77142   0.41911   0.24414   0.00000  Uiso   1.00
O299   O     0.87203   0.42859   0.25367   0.00000  Uiso   1.00
O300   O     0.80758   0.49759   0.17207   0.00000  Uiso   1.00
O301   O     0.90819   0.50707   0.18161   0.00000  Uiso   1.00
S302   S     0.73105   0.65243   0.29521   0.00000  Uiso   1.00
O303   O     0.69292   0.62682   0.25660   0.00000  Uiso   1.00
O304   O     0.73440   0.61321   0.33202   0.00000  Uiso   1.00
O305   O     0.69703   0.36619   0.32743   0.00000  Uiso   1.00
H306   H     0.99523   0.36834   0.31063   0.00000  Uiso   1.00
C307   C     0.70600   0.48717   0.06036   0.00000  Uiso   1.00
H308   H     0.99769   0.45894   0.07444   0.00000  Uiso   1.00
O309   O     0.72273   0.52465   0.08765   0.00000  Uiso   1.00
C310   C     0.93176   0.50123   0.39010   0.00000  Uiso   1.00
H311   H     0.91529   0.46079   0.37900   0.00000  Uiso   1.00
O312   O     0.98646   0.52083   0.37710   0.00000  Uiso   1.00
C313   C     0.18060   0.93322   0.25288   0.00000  Uiso   1.00
C314   C     0.13595   0.83741   0.49010   0.00000  Uiso   1.00
C315   C     0.15853   0.84114   0.43716   0.00000  Uiso   1.00
C316   C     0.17973   0.85524   0.02276   0.00000  Uiso   1.00
C317   C     0.23421   0.89237   0.00565   0.00000  Uiso   1.00
C318   C     0.25095   0.90156   0.45449   0.00000  Uiso   1.00
C319   C     0.22218   0.86494   0.42175   0.00000  Uiso   1.00
C320   C     0.17477   0.83309   0.06919   0.00000  Uiso   1.00
C321   C     0.26612   0.89466   0.08662   0.00000  Uiso   1.00
C322   C     0.11711   0.82117   0.40246   0.00000  Uiso   1.00
C323   C     0.18797   0.98873   0.25158   0.00000  Uiso   1.00
C324   C     0.13417   0.82860   0.34704   0.00000  Uiso   1.00
C325   C     0.13987   0.67988   0.26293   0.00000  Uiso   1.00
C326   C     0.15094   0.73387   0.25205   0.00000  Uiso   1.00
C327   C     0.19954   0.83866   0.15377   0.00000  Uiso   1.00
C328   C     0.27579   0.91343   0.03826   0.00000  Uiso   1.00
C329   C     0.21674   0.85324   0.10143   0.00000  Uiso   1.00
C330   C     0.05752   0.79342   0.42128   0.00000  Uiso   1.00
C331   C     0.03515   0.79093   0.47281   0.00000  Uiso   1.00
C332   C     0.07209   0.81505   0.00758   0.00000  Uiso   1.00
Cu333  Cu    0.10710   0.82772   0.24436   0.00000  Uiso   1.00
Cu334  Cu    0.22623   0.83895   0.25565   0.00000  Uiso   1.00
H335   H     0.29694   0.91237   0.11236   0.00000  Uiso   1.00
H336   H     0.00403   0.87224   0.28924   0.00000  Uiso   1.00
H337   H     0.32947   0.79397   0.21057   0.00000  Uiso   1.00
H338   H     0.29627   0.92527   0.44085   0.00000  Uiso   1.00
H339   H     0.31671   0.94293   0.02581   0.00000  Uiso   1.00
H340   H     0.13836   0.79974   0.08078   0.00000  Uiso   1.00
H341   H     0.02679   0.77494   0.39585   0.00000  Uiso   1.00
H342   H     0.32043   0.77234   0.48552   0.00000  Uiso   1.00
H343   H     0.23449   0.67666   0.23686   0.00000  Uiso   1.00
N344   N     0.31574   0.84741   0.26416   0.00000  Uiso   1.00
N345   N     0.01759   0.81926   0.23584   0.00000  Uiso   1.00
O346   O     0.12797   0.90474   0.24633   0.00000  Uiso   1.00
O347   O     0.22858   0.91422   0.25587   0.00000  Uiso   1.00
O348   O     0.09181   0.82627   0.31840   0.00000  Uiso   1.00
O349   O     0.19242   0.83575   0.32793   0.00000  Uiso   1.00
O350   O     0.10476   0.75245   0.24414   0.00000  Uiso   1.00
O351   O     0.20536   0.76193   0.25367   0.00000  Uiso   1.00
O352   O     0.14092   0.83092   0.17207   0.00000  Uiso   1.00
O353   O     0.24152   0.84040   0.18161   0.00000  Uiso   1.00
S354   S     0.06438   0.98576   0.29521   0.00000  Uiso   1.00
O355   O     0.02625   0.96015   0.25660   0.00000  Uiso   1.00
O356   O     0.06773   0.94654   0.33202   0.00000  Uiso   1.00
O357   O     0.03036   0.69952   0.32743   0.00000  Uiso   1.00
H358   H     0.32856   0.70168   0.31063   0.00000  Uiso   1.00
C359   C     0.03933   0.82050   0.06036   0.00000  Uiso   1.00
H360   H     0.33102   0.79227   0.07444   0.00000  Uiso   1.00
O361   O     0.05607   0.85798   0.08765   0.00000  Uiso   1.00
C362   C     0.26509   0.83457   0.39010   0.00000  Uiso   1.00
H363   H     0.24863   0.79413   0.37900   0.00000  Uiso   1.00
O364   O     0.31979   0.85416   0.37710   0.00000  Uiso   1.00
C365   C     0.51394   0.93322   0.25288   0.00000  Uiso   1.00
C366   C     0.46929   0.83741   0.49010   0.00000  Uiso   1.00
C367   C     0.49187   0.84114   0.43716   0.00000  Uiso   1.00
C368   C     0.51307   0.85524   0.02276   0.00000  Uiso   1.00
C369   C     0.56754   0.89237   0.00565   0.00000  Uiso   1.00
C370   C     0.58428   0.90156   0.45449   0.00000  Uiso   1.00
C371   C     0.55551   0.86494   0.42175   0.00000  Uiso   1.00
C372   C     0.50811   0.83309   0.06919   0.00000  Uiso   1.00
C373   C     0.59945   0.89466   0.08662   0.00000  Uiso   1.00
C374   C     0.45044   0.82117   0.40246   0.00000  Uiso   1.00
C375   C     0.52130   0.98873   0.25158   0.00000  Uiso   1.00
C376   C     0.46750   0.82860   0.34704   0.00000  Uiso   1.00
C377   C     0.47320   0.67988   0.26293   0.00000  Uiso   1.00
C378   C     0.48427   0.73387   0.25205   0.00000  Uiso   1.00
C379   C     0.53287   0.83866   0.15377   0.00000  Uiso   1.00
C380   C     0.60912   0.91343   0.03826   0.00000  Uiso   1.00
C381   C     0.55007   0.85324   0.10143   0.00000  Uiso   1.00
C382   C     0.39086   0.79342   0.42128   0.00000  Uiso   1.00
C383   C     0.36848   0.79093   0.47281   0.00000  Uiso   1.00
C384   C     0.40543   0.81505   0.00758   0.00000  Uiso   1.00
Cu385  Cu    0.44043   0.82772   0.24436   0.00000  Uiso   1.00
Cu386  Cu    0.55957   0.83895   0.25565   0.00000  Uiso   1.00
H387   H     0.63027   0.91237   0.11236   0.00000  Uiso   1.00
H388   H     0.33736   0.87224   0.28924   0.00000  Uiso   1.00
H389   H     0.66280   0.79397   0.21057   0.00000  Uiso   1.00
H390   H     0.62960   0.92527   0.44085   0.00000  Uiso   1.00
H391   H     0.65005   0.94293   0.02581   0.00000  Uiso   1.00
H392   H     0.47169   0.79974   0.08078   0.00000  Uiso   1.00
H393   H     0.36013   0.77494   0.39585   0.00000  Uiso   1.00
H394   H     0.65377   0.77234   0.48552   0.00000  Uiso   1.00
H395   H     0.56782   0.67666   0.23686   0.00000  Uiso   1.00
N396   N     0.64908   0.84741   0.26416   0.00000  Uiso   1.00
N397   N     0.35092   0.81926   0.23584   0.00000  Uiso   1.00
O398   O     0.46131   0.90474   0.24633   0.00000  Uiso   1.00
O399   O     0.56191   0.91422   0.25587   0.00000  Uiso   1.00
O400   O     0.42515   0.82627   0.31840   0.00000  Uiso   1.00
O401   O     0.52575   0.83575   0.32793   0.00000  Uiso   1.00
O402   O     0.43809   0.75245   0.24414   0.00000  Uiso   1.00
O403   O     0.53869   0.76193   0.25367   0.00000  Uiso   1.00
O404   O     0.47425   0.83092   0.17207   0.00000  Uiso   1.00
O405   O     0.57485   0.84040   0.18161   0.00000  Uiso   1.00
S406   S     0.39771   0.98576   0.29521   0.00000  Uiso   1.00
O407   O     0.35959   0.96015   0.25660   0.00000  Uiso   1.00
O408   O     0.40106   0.94654   0.33202   0.00000  Uiso   1.00
O409   O     0.36370   0.69952   0.32743   0.00000  Uiso   1.00
H410   H     0.66189   0.70168   0.31063   0.00000  Uiso   1.00
C411   C     0.37266   0.82050   0.06036   0.00000  Uiso   1.00
H412   H     0.66436   0.79227   0.07444   0.00000  Uiso   1.00
O413   O     0.38940   0.85798   0.08765   0.00000  Uiso   1.00
C414   C     0.59843   0.83457   0.39010   0.00000  Uiso   1.00
H415   H     0.58196   0.79413   0.37900   0.00000  Uiso   1.00
O416   O     0.65312   0.85416   0.37710   0.00000  Uiso   1.00
C417   C     0.84727   0.93322   0.25288   0.00000  Uiso   1.00
C418   C     0.80262   0.83741   0.49010   0.00000  Uiso   1.00
C419   C     0.82520   0.84114   0.43716   0.00000  Uiso   1.00
C420   C     0.84640   0.85524   0.02276   0.00000  Uiso   1.00
C421   C     0.90087   0.89237   0.00565   0.00000  Uiso   1.00
C422   C     0.91761   0.90156   0.45449   0.00000  Uiso   1.00
C423   C     0.88884   0.86494   0.42175   0.00000  Uiso   1.00
C424   C     0.84144   0.83309   0.06919   0.00000  Uiso   1.00
C425   C     0.93278   0.89466   0.08662   0.00000  Uiso   1.00
C426   C     0.78377   0.82117   0.40246   0.00000  Uiso   1.00
C427   C     0.85463   0.98873   0.25158   0.00000  Uiso   1.00
C428   C     0.80084   0.82860   0.34704   0.00000  Uiso   1.00
C429   C     0.80653   0.67988   0.26293   0.00000  Uiso   1.00
C430   C     0.81760   0.73387   0.25205   0.00000  Uiso   1.00
C431   C     0.86621   0.83866   0.15377   0.00000  Uiso   1.00
C432   C     0.94246   0.91343   0.03826   0.00000  Uiso   1.00
C433   C     0.88340   0.85324   0.10143   0.00000  Uiso   1.00
C434   C     0.72419   0.79342   0.42128   0.00000  Uiso   1.00
C435   C     0.70182   0.79093   0.47281   0.00000  Uiso   1.00
C436   C     0.73876   0.81505   0.00758   0.00000  Uiso   1.00
Cu437  Cu    0.77377   0.82772   0.24436   0.00000  Uiso   1.00
Cu438  Cu    0.89290   0.83895   0.25565   0.00000  Uiso   1.00
H439   H     0.96360   0.91237   0.11236   0.00000  Uiso   1.00
H440   H     0.67069   0.87224   0.28924   0.00000  Uiso   1.00
H441   H     0.99613   0.79397   0.21057   0.00000  Uiso   1.00
H442   H     0.96294   0.92527   0.44085   0.00000  Uiso   1.00
H443   H     0.98338   0.94293   0.02581   0.00000  Uiso   1.00
H444   H     0.80503   0.79974   0.08078   0.00000  Uiso   1.00
H445   H     0.69346   0.77494   0.39585   0.00000  Uiso   1.00
H446   H     0.98710   0.77234   0.48552   0.00000  Uiso   1.00
H447   H     0.90116   0.67666   0.23686   0.00000  Uiso   1.00
N448   N     0.98241   0.84741   0.26416   0.00000  Uiso   1.00
N449   N     0.68426   0.81926   0.23584   0.00000  Uiso   1.00
O450   O     0.79464   0.90474   0.24633   0.00000  Uiso   1.00
O451   O     0.89524   0.91422   0.25587   0.00000  Uiso   1.00
O452   O     0.75848   0.82627   0.31840   0.00000  Uiso   1.00
O453   O     0.85908   0.83575   0.32793   0.00000  Uiso   1.00
O454   O     0.77142   0.75245   0.24414   0.00000  Uiso   1.00
O455   O     0.87203   0.76193   0.25367   0.00000  Uiso   1.00
O456   O     0.80758   0.83092   0.17207   0.00000  Uiso   1.00
O457   O     0.90819   0.84040   0.18161   0.00000  Uiso   1.00
S458   S     0.73105   0.98576   0.29521   0.00000  Uiso   1.00
O459   O     0.69292   0.96015   0.25660   0.00000  Uiso   1.00
O460   O     0.73440   0.94654   0.33202   0.00000  Uiso   1.00
O461   O     0.69703   0.69952   0.32743   0.00000  Uiso   1.00
H462   H     0.99523   0.70168   0.31063   0.00000  Uiso   1.00
C463   C     0.70600   0.82050   0.06036   0.00000  Uiso   1.00
H464   H     0.99769   0.79227   0.07444   0.00000  Uiso   1.00
O465   O     0.72273   0.85798   0.08765   0.00000  Uiso   1.00
C466   C     0.93176   0.83457   0.39010   0.00000  Uiso   1.00
H467   H     0.91529   0.79413   0.37900   0.00000  Uiso   1.00
O468   O     0.98646   0.85416   0.37710   0.00000  Uiso   1.00
C469   C     0.18060   0.26656   0.75288   0.00000  Uiso   1.00
C470   C     0.13595   0.17075   0.99010   0.00000  Uiso   1.00
C471   C     0.15853   0.17447   0.93716   0.00000  Uiso   1.00
C472   C     0.17973   0.18858   0.52276   0.00000  Uiso   1.00
C473   C     0.23421   0.22570   0.50565   0.00000  Uiso   1.00
C474   C     0.25095   0.23489   0.95449   0.00000  Uiso   1.00
C475   C     0.22218   0.19828   0.92175   0.00000  Uiso   1.00
C476   C     0.17477   0.16642   0.56919   0.00000  Uiso   1.00
C477   C     0.26612   0.22799   0.58662   0.00000  Uiso   1.00
C478   C     0.11711   0.15451   0.90246   0.00000  Uiso   1.00
C479   C     0.18797   0.32207   0.75158   0.00000  Uiso   1.00
C480   C     0.13417   0.16193   0.84704   0.00000  Uiso   1.00
C481   C     0.13987   0.01321   0.76293   0.00000  Uiso   1.00
C482   C     0.15094   0.06721   0.75205   0.00000  Uiso   1.00
C483   C     0.19954   0.17199   0.65377   0.00000  Uiso   1.00
C484   C     0.27579   0.24677   0.53826   0.00000  Uiso   1.00
C485   C     0.21674   0.18657   0.60143   0.00000  Uiso   1.00
C486   C     0.05752   0.12675   0.92128   0.00000  Uiso   1.00
C487   C     0.03515   0.12426   0.97281   0.00000  Uiso   1.00
C488   C     0.07209   0.14839   0.50758   0.00000  Uiso   1.00
Cu489  Cu    0.10710   0.16105   0.74436   0.00000  Uiso   1.00
Cu490  Cu    0.22623   0.17228   0.75565   0.00000  Uiso   1.00
H491   H     0.29694   0.24571   0.61236   0.00000  Uiso   1.00
H492   H     0.00403   0.20557   0.78924   0.00000  Uiso   1.00
H493   H     0.32947   0.12730   0.71057   0.00000  Uiso   1.00
H494   H     0.29627   0.25860   0.94085   0.00000  Uiso   1.00
H495   H     0.31671   0.27626   0.52581   0.00000  Uiso   1.00
H496   H     0.13836   0.13308   0.58078   0.00000  Uiso   1.00
H497   H     0.02679   0.10827   0.89585   0.00000  Uiso   1.00
H498   H     0.32043   0.10567   0.98552   0.00000  Uiso   1.00
H499   H     0.23449   0.00999   0.73686   0.00000  Uiso   1.00
N500   N     0.31574   0.18074   0.76416   0.00000  Uiso   1.00
N501   N     0.01759   0.15259   0.73584   0.00000  Uiso   1.00
O502   O     0.12797   0.23807   0.74633   0.00000  Uiso   1.00
O503   O     0.22858   0.24755   0.75587   0.00000  Uiso   1.00
O504   O     0.09181   0.15960   0.81840   0.00000  Uiso   1.00
O505   O     0.19242   0.16908   0.82793   0.00000  Uiso   1.00
O506   O     0.10476   0.08578   0.74414   0.00000  Uiso   1.00
O507   O     0.20536   0.09526   0.75367   0.00000  Uiso   1.00
O508   O     0.14092   0.16425   0.67207   0.00000  Uiso   1.00
O509   O     0.24152   0.17373   0.68161   0.00000  Uiso   1.00
S510   S     0.06438   0.31910   0.79521   0.00000  Uiso   1.00
O511   O     0.02625   0.29349   0.75660   0.00000  Uiso   1.00
O512   O     0.06773   0.27987   0.83202   0.00000  Uiso   1.00
O513   O     0.03036   0.03286   0.82743   0.00000  Uiso   1.00
H514   H     0.32856   0.03501   0.81063   0.00000  Uiso   1.00
C515   C     0.03933   0.15384   0.56036   0.00000  Uiso   1.00
H516   H     0.33102   0.12560   0.57444   0.00000  Uiso   1.00
O517   O     0.05607   0.19131   0.58765   0.00000  Uiso   1.00
C518   C     0.26509   0.16790   0.89010   0.00000  Uiso   1.00
H519   H     0.24863   0.12746   0.87900   0.00000  Uiso   1.00
O520   O     0.31979   0.18750   0.87710   0.00000  Uiso   1.00
C521   C     0.51394   0.26656   0.75288   0.00000  Uiso   1.00
C522   C     0.46929   0.17075   0.99010   0.00000  Uiso   1.00
C523   C     0.49187   0.17447   0.93716   0.00000  Uiso   1.00
C524   C     0.51307   0.18858   0.52276   0.00000  Uiso   1.00
C525   C     0.56754   0.22570   0.50565   0.00000  Uiso   1.00
C526   C     0.58428   0.23489   0.95449   0.00000  Uiso   1.00
C527   C     0.55551   0.19828   0.92175   0.00000  Uiso   1.00
C528   C     0.50811   0.16642   0.56919   0.00000  Uiso   1.00
C529   C     0.59945   0.22799   0.58662   0.00000  Uiso   1.00
C530   C     0.45044   0.15451   0.90246   0.00000  Uiso   1.00
C531   C     0.52130   0.32207   0.75158   0.00000  Uiso   1.00
C532   C     0.46750   0.16193   0.84704   0.00000  Uiso   1.00
C533   C     0.47320   0.01321   0.76293   0.00000  Uiso   1.00
C534   C     0.48427   0.06721   0.75205   0.00000  Uiso   1.00
C535   C     0.53287   0.17199   0.65377   0.00000  Uiso   1.00
C536   C     0.60912   0.24677   0.53826   0.00000  Uiso   1.00
C537   C     0.55007   0.18657   0.60143   0.00000  Uiso   1.00
C538   C     0.39086   0.12675   0.92128   0.00000  Uiso   1.00
C539   C     0.36848   0.12426   0.97281   0.00000  Uiso   1.00
C540   C     0.40543   0.14839   0.50758   0.00000  Uiso   1.00
Cu541  Cu    0.44043   0.16105   0.74436   0.00000  Uiso   1.00
Cu542  Cu    0.55957   0.17228   0.75565   0.00000  Uiso   1.00
H543   H     0.63027   0.24571   0.61236   0.00000  Uiso   1.00
H544   H     0.33736   0.20557   0.78924   0.00000  Uiso   1.00
H545   H     0.66280   0.12730   0.71057   0.00000  Uiso   1.00
H546   H     0.62960   0.25860   0.94085   0.00000  Uiso   1.00
H547   H     0.65005   0.27626   0.52581   0.00000  Uiso   1.00
H548   H     0.47169   0.13308   0.58078   0.00000  Uiso   1.00
H549   H     0.36013   0.10827   0.89585   0.00000  Uiso   1.00
H550   H     0.65377   0.10567   0.98552   0.00000  Uiso   1.00
H551   H     0.56782   0.00999   0.73686   0.00000  Uiso   1.00
N552   N     0.64908   0.18074   0.76416   0.00000  Uiso   1.00
N553   N     0.35092   0.15259   0.73584   0.00000  Uiso   1.00
O554   O     0.46131   0.23807   0.74633   0.00000  Uiso   1.00
O555   O     0.56191   0.24755   0.75587   0.00000  Uiso   1.00
O556   O     0.42515   0.15960   0.81840   0.00000  Uiso   1.00
O557   O     0.52575   0.16908   0.82793   0.00000  Uiso   1.00
O558   O     0.43809   0.08578   0.74414   0.00000  Uiso   1.00
O559   O     0.53869   0.09526   0.75367   0.00000  Uiso   1.00
O560   O     0.47425   0.16425   0.67207   0.00000  Uiso   1.00
O561   O     0.57485   0.17373   0.68161   0.00000  Uiso   1.00
S562   S     0.39771   0.31910   0.79521   0.00000  Uiso   1.00
O563   O     0.35959   0.29349   0.75660   0.00000  Uiso   1.00
O564   O     0.40106   0.27987   0.83202   0.00000  Uiso   1.00
O565   O     0.36370   0.03286   0.82743   0.00000  Uiso   1.00
H566   H     0.66189   0.03501   0.81063   0.00000  Uiso   1.00
C567   C     0.37266   0.15384   0.56036   0.00000  Uiso   1.00
H568   H     0.66436   0.12560   0.57444   0.00000  Uiso   1.00
O569   O     0.38940   0.19131   0.58765   0.00000  Uiso   1.00
C570   C     0.59843   0.16790   0.89010   0.00000  Uiso   1.00
H571   H     0.58196   0.12746   0.87900   0.00000  Uiso   1.00
O572   O     0.65312   0.18750   0.87710   0.00000  Uiso   1.00
C573   C     0.84727   0.26656   0.75288   0.00000  Uiso   1.00
C574   C     0.80262   0.17075   0.99010   0.00000  Uiso   1.00
C575   C     0.82520   0.17447   0.93716   0.00000  Uiso   1.00
C576   C     0.84640   0.18858   0.52276   0.00000  Uiso   1.00
C577   C     0.90087   0.22570   0.50565   0.00000  Uiso   1.00
C578   C     0.91761   0.23489   0.95449   0.00000  Uiso   1.00
C579   C     0.88884   0.19828   0.92175   0.00000  Uiso   1.00
C580   C     0.84144   0.16642   0.56919   0.00000  Uiso   1.00
C581   C     0.93278   0.22799   0.58662   0.00000  Uiso   1.00
C582   C     0.78377   0.15451   0.90246   0.00000  Uiso   1.00
C583   C     0.85463   0.32207   0.75158   0.00000  Uiso   1.00
C584   C     0.80084   0.16193   0.84704   0.00000  Uiso   1.00
C585   C     0.80653   0.01321   0.76293   0.00000  Uiso   1.00
C586   C     0.81760   0.06721   0.75205   0.00000  Uiso   1.00
C587   C     0.86621   0.17199   0.65377   0.00000  Uiso   1.00
C588   C     0.94246   0.24677   0.53826   0.00000  Uiso   1.00
C589   C     0.88340   0.18657   0.60143   0.00000  Uiso   1.00
C590   C     0.72419   0.12675   0.92128   0.00000  Uiso   1.00
C591   C     0.70182   0.12426   0.97281   0.00000  Uiso   1.00
C592   C     0.73876   0.14839   0.50758   0.00000  Uiso   1.00
Cu593  Cu    0.77377   0.16105   0.74436   0.00000  Uiso   1.00
Cu594  Cu    0.89290   0.17228   0.75565   0.00000  Uiso   1.00
H595   H     0.96360   0.24571   0.61236   0.00000  Uiso   1.00
H596   H     0.67069   0.20557   0.78924   0.00000  Uiso   1.00
H597   H     0.99613   0.12730   0.71057   0.00000  Uiso   1.00
H598   H     0.96294   0.25860   0.94085   0.00000  Uiso   1.00
H599   H     0.98338   0.27626   0.52581   0.00000  Uiso   1.00
H600   H     0.80503   0.13308   0.58078   0.00000  Uiso   1.00
H601   H     0.69346   0.10827   0.89585   0.00000  Uiso   1.00
H602   H     0.98710   0.10567   0.98552   0.00000  Uiso   1.00
H603   H     0.90116   0.00999   0.73686   0.00000  Uiso   1.00
N604   N     0.98241   0.18074   0.76416   0.00000  Uiso   1.00
N605   N     0.68426   0.15259   0.73584   0.00000  Uiso   1.00
O606   O     0.79464   0.23807   0.74633   0.00000  Uiso   1.00
O607   O     0.89524   0.24755   0.75587   0.00000  Uiso   1.00
O608   O     0.75848   0.15960   0.81840   0.00000  Uiso   1.00
O609   O     0.85908   0.16908   0.82793   0.00000  Uiso   1.00
O610   O     0.77142   0.08578   0.74414   0.00000  Uiso   1.00
O611   O     0.87203   0.09526   0.75367   0.00000  Uiso   1.00
O612   O     0.80758   0.16425   0.67207   0.00000  Uiso   1.00
O613   O     0.90819   0.17373   0.68161   0.00000  Uiso   1.00
S614   S     0.73105   0.31910   0.79521   0.00000  Uiso   1.00
O615   O     0.69292   0.29349   0.75660   0.00000  Uiso   1.00
O616   O     0.73440   0.27987   0.83202   0.00000  Uiso   1.00
O617   O     0.69703   0.03286   0.82743   0.00000  Uiso   1.00
H618   H     0.99523   0.03501   0.81063   0.00000  Uiso   1.00
C619   C     0.70600   0.15384   0.56036   0.00000  Uiso   1.00
H620   H     0.99769   0.12560   0.57444   0.00000  Uiso   1.00
O621   O     0.72273   0.19131   0.58765   0.00000  Uiso   1.00
C622   C     0.93176   0.16790   0.89010   0.00000  Uiso   1.00
H623   H     0.91529   0.12746   0.87900   0.00000  Uiso   1.00
O624   O     0.98646   0.18750   0.87710   0.00000  Uiso   1.00
C625   C     0.18060   0.59989   0.75288   0.00000  Uiso   1.00
C626   C     0.13595   0.50408   0.99010   0.00000  Uiso   1.00
C627   C     0.15853   0.50780   0.93716   0.00000  Uiso   1.00
C628   C     0.17973   0.52191   0.52276   0.00000  Uiso   1.00
C629   C     0.23421   0.55903   0.50565   0.00000  Uiso   1.00
C630   C     0.25095   0.56822   0.95449   0.00000  Uiso   1.00
C631   C     0.22218   0.53161   0.92175   0.00000  Uiso   1.00
C632   C     0.17477   0.49975   0.56919   0.00000  Uiso   1.00
C633   C     0.26612   0.56133   0.58662   0.00000  Uiso   1.00
C634   C     0.11711   0.48784   0.90246   0.00000  Uiso   1.00
C635   C     0.18797   0.65540   0.75158   0.00000  Uiso   1.00
C636   C     0.13417   0.49526   0.84704   0.00000  Uiso   1.00
C637   C     0.13987   0.34655   0.76293   0.00000  Uiso   1.00
C638   C     0.15094   0.40054   0.75205   0.00000  Uiso   1.00
C639   C     0.19954   0.50533   0.65377   0.00000  Uiso   1.00
C640   C     0.27579   0.58010   0.53826   0.00000  Uiso   1.00
C641   C     0.21674   0.51991   0.60143   0.00000  Uiso   1.00
C642   C     0.05752   0.46009   0.92128   0.00000  Uiso   1.00
C643   C     0.03515   0.45759   0.97281   0.00000  Uiso   1.00
C644   C     0.07209   0.48172   0.50758   0.00000  Uiso   1.00
Cu645  Cu    0.10710   0.49439   0.74436   0.00000  Uiso   1.00
Cu646  Cu    0.22623   0.50561   0.75565   0.00000  Uiso   1.00
H647   H     0.29694   0.57904   0.61236   0.00000  Uiso   1.00
H648   H     0.00403   0.53891   0.78924   0.00000  Uiso   1.00
H649   H     0.32947   0.46064   0.71057   0.00000  Uiso   1.00
H650   H     0.29627   0.59194   0.94085   0.00000  Uiso   1.00
H651   H     0.31671   0.60959   0.52581   0.00000  Uiso   1.00
H652   H     0.13836   0.46641   0.58078   0.00000  Uiso   1.00
H653   H     0.02679   0.44161   0.89585   0.00000  Uiso   1.00
H654   H     0.32043   0.43901   0.98552   0.00000  Uiso   1.00
H655   H     0.23449   0.34332   0.73686   0.00000  Uiso   1.00
N656   N     0.31574   0.51407   0.76416   0.00000  Uiso   1.00
N657   N     0.01759   0.48593   0.73584   0.00000  Uiso   1.00
O658   O     0.12797   0.57141   0.74633   0.00000  Uiso   1.00
O659   O     0.22858   0.58089   0.75587   0.00000  Uiso   1.00
O660   O     0.09181   0.49293   0.81840   0.00000  Uiso   1.00
O661   O     0.19242   0.50241   0.82793   0.00000  Uiso   1.00
O662   O     0.10476   0.41911   0.74414   0.00000  Uiso   1.00
O663   O     0.20536   0.42859   0.75367   0.00000  Uiso   1.00
O664   O     0.14092   0.49759   0.67207   0.00000  Uiso   1.00
O665   O     0.24152   0.50707   0.68161   0.00000  Uiso   1.00
S666   S     0.06438   0.65243   0.79521   0.00000  Uiso   1.00
O667   O     0.02625   0.62682   0.75660   0.00000  Uiso   1.00
O668   O     0.06773   0.61321   0.83202   0.00000  Uiso   1.00
O669   O     0.03036   0.36619   0.82743   0.00000  Uiso   1.00
H670   H     0.32856   0.36834   0.81063   0.00000  Uiso   1.00
C671   C     0.03933   0.48717   0.56036   0.00000  Uiso   1.00
H672   H     0.33102   0.45894   0.57444   0.00000  Uiso   1.00
O673   O     0.05607   0.52465   0.58765   0.00000  Uiso   1.00
C674   C     0.26509   0.50123   0.89010   0.00000  Uiso   1.00
H675   H     0.24863   0.46079   0.87900   0.00000  Uiso   1.00
O676   O     0.31979   0.52083   0.87710   0.00000  Uiso   1.00
C677   C     0.51394   0.59989   0.75288   0.00000  Uiso   1.00
C678   C     0.46929   0.50408   0.99010   0.00000  Uiso   1.00
C679   C     0.49187   0.50780   0.93716   0.00000  Uiso   1.00
C680   C     0.51307   0.52191   0.52276   0.00000  Uiso   1.00
C681   C     0.56754   0.55903   0.50565   0.00000  Uiso   1.00
C682   C     0.58428   0.56822   0.95449   0.00000  Uiso   1.00
C683   C     0.55551   0.53161   0.92175   0.00000  Uiso   1.00
C684   C     0.50811   0.49975   0.56919   0.00000  Uiso   1.00
C685   C     0.59945   0.56133   0.58662   0.00000  Uiso   1.00
C686   C     0.45044   0.48784   0.90246   0.00000  Uiso   1.00
C687   C     0.52130   0.65540   0.75158   0.00000  Uiso   1.00
C688   C     0.46750   0.49526   0.84704   0.00000  Uiso   1.00
C689   C     0.47320   0.34655   0.76293   0.00000  Uiso   1.00
C690   C     0.48427   0.40054   0.75205   0.00000  Uiso   1.00
C691   C     0.53287   0.50533   0.65377   0.00000  Uiso   1.00
C692   C     0.60912   0.58010   0.53826   0.00000  Uiso   1.00
C693   C     0.55007   0.51991   0.60143   0.00000  Uiso   1.00
C694   C     0.39086   0.46009   0.92128   0.00000  Uiso   1.00
C695   C     0.36848   0.45759   0.97281   0.00000  Uiso   1.00
C696   C     0.40543   0.48172   0.50758   0.00000  Uiso   1.00
Cu697  Cu    0.44043   0.49439   0.74436   0.00000  Uiso   1.00
Cu698  Cu    0.55957   0.50561   0.75565   0.00000  Uiso   1.00
H699   H     0.63027   0.57904   0.61236   0.00000  Uiso   1.00
H700   H     0.33736   0.53891   0.78924   0.00000  Uiso   1.00
H701   H     0.66280   0.46064   0.71057   0.00000  Uiso   1.00
H702   H     0.62960   0.59194   0.94085   0.00000  Uiso   1.00
H703   H     0.65005   0.60959   0.52581   0.00000  Uiso   1.00
H704   H     0.47169   0.46641   0.58078   0.00000  Uiso   1.00
H705   H     0.36013   0.44161   0.89585   0.00000  Uiso   1.00
H706   H     0.65377   0.43901   0.98552   0.00000  Uiso   1.00
H707   H     0.56782   0.34332   0.73686   0.00000  Uiso   1.00
N708   N     0.64908   0.51407   0.76416   0.00000  Uiso   1.00
N709   N     0.35092   0.48593   0.73584   0.00000  Uiso   1.00
O710   O     0.46131   0.57141   0.74633   0.00000  Uiso   1.00
O711   O     0.56191   0.58089   0.75587   0.00000  Uiso   1.00
O712   O     0.42515   0.49293   0.81840   0.00000  Uiso   1.00
O713   O     0.52575   0.50241   0.82793   0.00000  Uiso   1.00
O714   O     0.43809   0.41911   0.74414   0.00000  Uiso   1.00
O715   O     0.53869   0.42859   0.75367   0.00000  Uiso   1.00
O716   O     0.47425   0.49759   0.67207   0.00000  Uiso   1.00
O717   O     0.57485   0.50707   0.68161   0.00000  Uiso   1.00
S718   S     0.39771   0.65243   0.79521   0.00000  Uiso   1.00
O719   O     0.35959   0.62682   0.75660   0.00000  Uiso   1.00
O720   O     0.40106   0.61321   0.83202   0.00000  Uiso   1.00
O721   O     0.36370   0.36619   0.82743   0.00000  Uiso   1.00
H722   H     0.66189   0.36834   0.81063   0.00000  Uiso   1.00
C723   C     0.37266   0.48717   0.56036   0.00000  Uiso   1.00
H724   H     0.66436   0.45894   0.57444   0.00000  Uiso   1.00
O725   O     0.38940   0.52465   0.58765   0.00000  Uiso   1.00
C726   C     0.59843   0.50123   0.89010   0.00000  Uiso   1.00
H727   H     0.58196   0.46079   0.87900   0.00000  Uiso   1.00
O728   O     0.65312   0.52083   0.87710   0.00000  Uiso   1.00
C729   C     0.84727   0.59989   0.75288   0.00000  Uiso   1.00
C730   C     0.80262   0.50408   0.99010   0.00000  Uiso   1.00
C731   C     0.82520   0.50780   0.93716   0.00000  Uiso   1.00
C732   C     0.84640   0.52191   0.52276   0.00000  Uiso   1.00
C733   C     0.90087   0.55903   0.50565   0.00000  Uiso   1.00
C734   C     0.91761   0.56822   0.95449   0.00000  Uiso   1.00
C735   C     0.88884   0.53161   0.92175   0.00000  Uiso   1.00
C736   C     0.84144   0.49975   0.56919   0.00000  Uiso   1.00
C737   C     0.93278   0.56133   0.58662   0.00000  Uiso   1.00
C738   C     0.78377   0.48784   0.90246   0.00000  Uiso   1.00
C739   C     0.85463   0.65540   0.75158   0.00000  Uiso   1.00
C740   C     0.80084   0.49526   0.84704   0.00000  Uiso   1.00
C741   C     0.80653   0.34655   0.76293   0.00000  Uiso   1.00
C742   C     0.81760   0.40054   0.75205   0.00000  Uiso   1.00
C743   C     0.86621   0.50533   0.65377   0.00000  Uiso   1.00
C744   C     0.94246   0.58010   0.53826   0.00000  Uiso   1.00
C745   C     0.88340   0.51991   0.60143   0.00000  Uiso   1.00
C746   C     0.72419   0.46009   0.92128   0.00000  Uiso   1.00
C747   C     0.70182   0.45759   0.97281   0.00000  Uiso   1.00
C748   C     0.73876   0.48172   0.50758   0.00000  Uiso   1.00
Cu749  Cu    0.77377   0.49439   0.74436   0.00000  Uiso   1.00
Cu750  Cu    0.89290   0.50561   0.75565   0.00000  Uiso   1.00
H751   H     0.96360   0.57904   0.61236   0.00000  Uiso   1.00
H752   H     0.67069   0.53891   0.78924   0.00000  Uiso   1.00
H753   H     0.99613   0.46064   0.71057   0.00000  Uiso   1.00
H754   H     0.96294   0.59194   0.94085   0.00000  Uiso   1.00
H755   H     0.98338   0.60959   0.52581   0.00000  Uiso   1.00
H756   H     0.80503   0.46641   0.58078   0.00000  Uiso   1.00
H757   H     0.69346   0.44161   0.89585   0.00000  Uiso   1.00
H758   H     0.98710   0.43901   0.98552   0.00000  Uiso   1.00
H759   H     0.90116   0.34332   0.73686   0.00000  Uiso   1.00
N760   N     0.98241   0.51407   0.76416   0.00000  Uiso   1.00
N761   N     0.68426   0.48593   0.73584   0.00000  Uiso   1.00
O762   O     0.79464   0.57141   0.74633   0.00000  Uiso   1.00
O763   O     0.89524   0.58089   0.75587   0.00000  Uiso   1.00
O764   O     0.75848   0.49293   0.81840   0.00000  Uiso   1.00
O765   O     0.85908   0.50241   0.82793   0.00000  Uiso   1.00
O766   O     0.77142   0.41911   0.74414   0.00000  Uiso   1.00
O767   O     0.87203   0.42859   0.75367   0.00000  Uiso   1.00
O768   O     0.80758   0.49759   0.67207   0.00000  Uiso   1.00
O769   O     0.90819   0.50707   0.68161   0.00000  Uiso   1.00
S770   S     0.73105   0.65243   0.79521   0.00000  Uiso   1.00
O771   O     0.69292   0.62682   0.75660   0.00000  Uiso   1.00
O772   O     0.73440   0.61321   0.83202   0.00000  Uiso   1.00
O773   O     0.69703   0.36619   0.82743   0.00000  Uiso   1.00
H774   H     0.99523   0.36834   0.81063   0.00000  Uiso   1.00
C775   C     0.70600   0.48717   0.56036   0.00000  Uiso   1.00
H776   H     0.99769   0.45894   0.57444   0.00000  Uiso   1.00
O777   O     0.72273   0.52465   0.58765   0.00000  Uiso   1.00
C778   C     0.93176   0.50123   0.89010   0.00000  Uiso   1.00
H779   H     0.91529   0.46079   0.87900   0.00000  Uiso   1.00
O780   O     0.98646   0.52083   0.87710   0.00000  Uiso   1.00
C781   C     0.18060   0.93322   0.75288   0.00000  Uiso   1.00
C782   C     0.13595   0.83741   0.99010   0.00000  Uiso   1.00
C783   C     0.15853   0.84114   0.93716   0.00000  Uiso   1.00
C784   C     0.17973   0.85524   0.52276   0.00000  Uiso   1.00
C785   C     0.23421   0.89237   0.50565   0.00000  Uiso   1.00
C786   C     0.25095   0.90156   0.95449   0.00000  Uiso   1.00
C787   C     0.22218   0.86494   0.92175   0.00000  Uiso   1.00
C788   C     0.17477   0.83309   0.56919   0.00000  Uiso   1.00
C789   C     0.26612   0.89466   0.58662   0.00000  Uiso   1.00
C790   C     0.11711   0.82117   0.90246   0.00000  Uiso   1.00
C791   C     0.18797   0.98873   0.75158   0.00000  Uiso   1.00
C792   C     0.13417   0.82860   0.84704   0.00000  Uiso   1.00
C793   C     0.13987   0.67988   0.76293   0.00000  Uiso   1.00
C794   C     0.15094   0.73387   0.75205   0.00000  Uiso   1.00
C795   C     0.19954   0.83866   0.65377   0.00000  Uiso   1.00
C796   C     0.27579   0.91343   0.53826   0.00000  Uiso   1.00
C797   C     0.21674   0.85324   0.60143   0.00000  Uiso   1.00
C798   C     0.05752   0.79342   0.92128   0.00000  Uiso   1.00
C799   C     0.03515   0.79093   0.97281   0.00000  Uiso   1.00
C800   C     0.07209   0.81505   0.50758   0.00000  Uiso   1.00
Cu801  Cu    0.10710   0.82772   0.74436   0.00000  Uiso   1.00
Cu802  Cu    0.22623   0.83895   0.75565   0.00000  Uiso   1.00
H803   H     0.29694   0.91237   0.61236   0.00000  Uiso   1.00
H804   H     0.00403   0.87224   0.78924   0.00000  Uiso   1.00
H805   H     0.32947   0.79397   0.71057   0.00000  Uiso   1.00
H806   H     0.29627   0.92527   0.94085   0.00000  Uiso   1.00
H807   H     0.31671   0.94293   0.52581   0.00000  Uiso   1.00
H808   H     0.13836   0.79974   0.58078   0.00000  Uiso   1.00
H809   H     0.02679   0.77494   0.89585   0.00000  Uiso   1.00
H810   H     0.32043   0.77234   0.98552   0.00000  Uiso   1.00
H811   H     0.23449   0.67666   0.73686   0.00000  Uiso   1.00
N812   N     0.31574   0.84741   0.76416   0.00000  Uiso   1.00
N813   N     0.01759   0.81926   0.73584   0.00000  Uiso   1.00
O814   O     0.12797   0.90474   0.74633   0.00000  Uiso   1.00
O815   O     0.22858   0.91422   0.75587   0.00000  Uiso   1.00
O816   O     0.09181   0.82627   0.81840   0.00000  Uiso   1.00
O817   O     0.19242   0.83575   0.82793   0.00000  Uiso   1.00
O818   O     0.10476   0.75245   0.74414   0.00000  Uiso   1.00
O819   O     0.20536   0.76193   0.75367   0.00000  Uiso   1.00
O820   O     0.14092   0.83092   0.67207   0.00000  Uiso   1.00
O821   O     0.24152   0.84040   0.68161   0.00000  Uiso   1.00
S822   S     0.06438   0.98576   0.79521   0.00000  Uiso   1.00
O823   O     0.02625   0.96015   0.75660   0.00000  Uiso   1.00
O824   O     0.06773   0.94654   0.83202   0.00000  Uiso   1.00
O825   O     0.03036   0.69952   0.82743   0.00000  Uiso   1.00
H826   H     0.32856   0.70168   0.81063   0.00000  Uiso   1.00
C827   C     0.03933   0.82050   0.56036   0.00000  Uiso   1.00
H828   H     0.33102   0.79227   0.57444   0.00000  Uiso   1.00
O829   O     0.05607   0.85798   0.58765   0.00000  Uiso   1.00
C830   C     0.26509   0.83457   0.89010   0.00000  Uiso   1.00
H831   H     0.24863   0.79413   0.87900   0.00000  Uiso   1.00
O832   O     0.31979   0.85416   0.87710   0.00000  Uiso   1.00
C833   C     0.51394   0.93322   0.75288   0.00000  Uiso   1.00
C834   C     0.46929   0.83741   0.99010   0.00000  Uiso   1.00
C835   C     0.49187   0.84114   0.93716   0.00000  Uiso   1.00
C836   C     0.51307   0.85524   0.52276   0.00000  Uiso   1.00
C837   C     0.56754   0.89237   0.50565   0.00000  Uiso   1.00
C838   C     0.58428   0.90156   0.95449   0.00000  Uiso   1.00
C839   C     0.55551   0.86494   0.92175   0.00000  Uiso   1.00
C840   C     0.50811   0.83309   0.56919   0.00000  Uiso   1.00
C841   C     0.59945   0.89466   0.58662   0.00000  Uiso   1.00
C842   C     0.45044   0.82117   0.90246   0.00000  Uiso   1.00
C843   C     0.52130   0.98873   0.75158   0.00000  Uiso   1.00
C844   C     0.46750   0.82860   0.84704   0.00000  Uiso   1.00
C845   C     0.47320   0.67988   0.76293   0.00000  Uiso   1.00
C846   C     0.48427   0.73387   0.75205   0.00000  Uiso   1.00
C847   C     0.53287   0.83866   0.65377   0.00000  Uiso   1.00
C848   C     0.60912   0.91343   0.53826   0.00000  Uiso   1.00
C849   C     0.55007   0.85324   0.60143   0.00000  Uiso   1.00
C850   C     0.39086   0.79342   0.92128   0.00000  Uiso   1.00
C851   C     0.36848   0.79093   0.97281   0.00000  Uiso   1.00
C852   C     0.40543   0.81505   0.50758   0.00000  Uiso   1.00
Cu853  Cu    0.44043   0.82772   0.74436   0.00000  Uiso   1.00
Cu854  Cu    0.55957   0.83895   0.75565   0.00000  Uiso   1.00
H855   H     0.63027   0.91237   0.61236   0.00000  Uiso   1.00
H856   H     0.33736   0.87224   0.78924   0.00000  Uiso   1.00
H857   H     0.66280   0.79397   0.71057   0.00000  Uiso   1.00
H858   H     0.62960   0.92527   0.94085   0.00000  Uiso   1.00
H859   H     0.65005   0.94293   0.52581   0.00000  Uiso   1.00
H860   H     0.47169   0.79974   0.58078   0.00000  Uiso   1.00
H861   H     0.36013   0.77494   0.89585   0.00000  Uiso   1.00
H862   H     0.65377   0.77234   0.98552   0.00000  Uiso   1.00
H863   H     0.56782   0.67666   0.73686   0.00000  Uiso   1.00
N864   N     0.64908   0.84741   0.76416   0.00000  Uiso   1.00
N865   N     0.35092   0.81926   0.73584   0.00000  Uiso   1.00
O866   O     0.46131   0.90474   0.74633   0.00000  Uiso   1.00
O867   O     0.56191   0.91422   0.75587   0.00000  Uiso   1.00
O868   O     0.42515   0.82627   0.81840   0.00000  Uiso   1.00
O869   O     0.52575   0.83575   0.82793   0.00000  Uiso   1.00
O870   O     0.43809   0.75245   0.74414   0.00000  Uiso   1.00
O871   O     0.53869   0.76193   0.75367   0.00000  Uiso   1.00
O872   O     0.47425   0.83092   0.67207   0.00000  Uiso   1.00
O873   O     0.57485   0.84040   0.68161   0.00000  Uiso   1.00
S874   S     0.39771   0.98576   0.79521   0.00000  Uiso   1.00
O875   O     0.35959   0.96015   0.75660   0.00000  Uiso   1.00
O876   O     0.40106   0.94654   0.83202   0.00000  Uiso   1.00
O877   O     0.36370   0.69952   0.82743   0.00000  Uiso   1.00
H878   H     0.66189   0.70168   0.81063   0.00000  Uiso   1.00
C879   C     0.37266   0.82050   0.56036   0.00000  Uiso   1.00
H880   H     0.66436   0.79227   0.57444   0.00000  Uiso   1.00
O881   O     0.38940   0.85798   0.58765   0.00000  Uiso   1.00
C882   C     0.59843   0.83457   0.89010   0.00000  Uiso   1.00
H883   H     0.58196   0.79413   0.87900   0.00000  Uiso   1.00
O884   O     0.65312   0.85416   0.87710   0.00000  Uiso   1.00
C885   C     0.84727   0.93322   0.75288   0.00000  Uiso   1.00
C886   C     0.80262   0.83741   0.99010   0.00000  Uiso   1.00
C887   C     0.82520   0.84114   0.93716   0.00000  Uiso   1.00
C888   C     0.84640   0.85524   0.52276   0.00000  Uiso   1.00
C889   C     0.90087   0.89237   0.50565   0.00000  Uiso   1.00
C890   C     0.91761   0.90156   0.95449   0.00000  Uiso   1.00
C891   C     0.88884   0.86494   0.92175   0.00000  Uiso   1.00
C892   C     0.84144   0.83309   0.56919   0.00000  Uiso   1.00
C893   C     0.93278   0.89466   0.58662   0.00000  Uiso   1.00
C894   C     0.78377   0.82117   0.90246   0.00000  Uiso   1.00
C895   C     0.85463   0.98873   0.75158   0.00000  Uiso   1.00
C896   C     0.80084   0.82860   0.84704   0.00000  Uiso   1.00
C897   C     0.80653   0.67988   0.76293   0.00000  Uiso   1.00
C898   C     0.81760   0.73387   0.75205   0.00000  Uiso   1.00
C899   C     0.86621   0.83866   0.65377   0.00000  Uiso   1.00
C900   C     0.94246   0.91343   0.53826   0.00000  Uiso   1.00
C901   C     0.88340   0.85324   0.60143   0.00000  Uiso   1.00
C902   C     0.72419   0.79342   0.92128   0.00000  Uiso   1.00
C903   C     0.70182   0.79093   0.97281   0.00000  Uiso   1.00
C904   C     0.73876   0.81505   0.50758   0.00000  Uiso   1.00
Cu905  Cu    0.77377   0.82772   0.74436   0.00000  Uiso   1.00
Cu906  Cu    0.89290   0.83895   0.75565   0.00000  Uiso   1.00
H907   H     0.96360   0.91237   0.61236   0.00000  Uiso   1.00
H908   H     0.67069   0.87224   0.78924   0.00000  Uiso   1.00
H909   H     0.99613   0.79397   0.71057   0.00000  Uiso   1.00
H910   H     0.96294   0.92527   0.94085   0.00000  Uiso   1.00
H911   H     0.98338   0.94293   0.52581   0.00000  Uiso   1.00
H912   H     0.80503   0.79974   0.58078   0.00000  Uiso   1.00
H913   H     0.69346   0.77494   0.89585   0.00000  Uiso   1.00
H914   H     0.98710   0.77234   0.98552   0.00000  Uiso   1.00
H915   H     0.90116   0.67666   0.73686   0.00000  Uiso   1.00
N916   N     0.98241   0.84741   0.76416   0.00000  Uiso   1.00
N917   N     0.68426   0.81926   0.73584   0.00000  Uiso   1.00
O918   O     0.79464   0.90474   0.74633   0.00000  Uiso   1.00
O919   O     0.89524   0.91422   0.75587   0.00000  Uiso   1.00
O920   O     0.75848   0.82627   0.81840   0.00000  Uiso   1.00
O921   O     0.85908   0.83575   0.82793   0.00000  Uiso   1.00
O922   O     0.77142   0.75245   0.74414   0.00000  Uiso   1.00
O923   O     0.87203   0.76193   0.75367   0.00000  Uiso   1.00
O924   O     0.80758   0.83092   0.67207   0.00000  Uiso   1.00
O925   O     0.90819   0.84040   0.68161   0.00000  Uiso   1.00
S926   S     0.73105   0.98576   0.79521   0.00000  Uiso   1.00
O927   O     0.69292   0.96015   0.75660   0.00000  Uiso   1.00
O928   O     0.73440   0.94654   0.83202   0.00000  Uiso   1.00
O929   O     0.69703   0.69952   0.82743   0.00000  Uiso   1.00
H930   H     0.99523   0.70168   0.81063   0.00000  Uiso   1.00
C931   C     0.70600   0.82050   0.56036   0.00000  Uiso   1.00
H932   H     0.99769   0.79227   0.57444   0.00000  Uiso   1.00
O933   O     0.72273   0.85798   0.58765   0.00000  Uiso   1.00
C934   C     0.93176   0.83457   0.89010   0.00000  Uiso   1.00
H935   H     0.91529   0.79413   0.87900   0.00000  Uiso   1.00
O936   O     0.98646   0.85416   0.87710   0.00000  Uiso   1.00
loop_
_geom_bond_atom_site_label_1
_geom_bond_atom_site_label_2
_geom_bond_distance
_geom_bond_site_symmetry_2
_ccdc_geom_bond_type
C1     C11     1.431   .     S
C1     O34     1.291   .     A
C1     O35     1.289   .     A
C2     C3      1.425   .     A
C2     C472    1.424   .     S
C2     C488    1.428   .     S
C3     C10     1.436   .     A
C3     C7      1.425   .     A
C4     C8      1.395   .     A
C4     C5      1.415   .     A
C4     C470    1.424   1_554 S
C5     C16     1.403   .     A
C5     C474    1.385   1_554 S
C6     C7      1.396   .     A
C6     H26     1.086   .     S
C6     C473    1.385   .     S
C7     C50     1.479   .     S
C8     C17     1.397   .     A
C8     H28     1.082   .     S
C9     C17     1.398   .     A
C9     C16     1.391   .     A
C9     H23     1.083   .     S
C10    C18     1.398   .     A
C10    C12     1.488   .     S
C11    C169    1.338   .     S
C11    H187    1.088   .     S
C12    O36     1.320   .     A
C12    O37     1.286   .     A
C13    C14     1.427   .     S
C13    C323    1.338   1_545 S
C13    S354    1.776   1_545 S
C14    O38     1.286   .     A
C14    O39     1.290   .     A
C15    O41     1.300   .     A
C15    O40     1.288   .     A
C15    C17     1.449   .     S
C16    H27     1.084   .     S
C18    H29     1.081   .     S
C18    C19     1.387   .     A
C19    C488    1.397   .     S
C19    H134    1.084   1_455 S
C20    C47     1.484   .     S
C20    C487    1.397   1_554 S
C20    C470    1.428   1_554 S
Cu21   O40     1.955   .     S
Cu21   Cu22    2.689   .     S
Cu21   N33     2.021   .     S
Cu21   O36     1.964   .     S
Cu21   O34     1.973   .     S
Cu21   O38     1.960   .     S
Cu22   O37     1.955   .     S
Cu22   O35     1.960   .     S
Cu22   N32     2.021   .     S
Cu22   O39     1.973   .     S
Cu22   O41     1.964   .     S
H24    N136    1.021   1_455 S
H25    N85     1.029   .     S
H30    C71     1.084   .     S
H31    C323    1.088   1_545 S
N32    H76     1.021   .     S
N32    N85     1.294   .     S
N33    N136    1.294   1_455 S
N33    H129    1.029   1_455 S
S42    O44     1.502   .     D
S42    O43     1.502   .     D
S42    C169    1.776   .     S
S42    O201    1.683   .     S
O45    S354    1.683   1_545 S
O45    H150    0.991   1_455 S
H46    O97     0.991   .     S
C47    O49     1.221   .     D
C47    H152    1.086   1_455 S
H48    C99     1.086   .     S
C50    O52     1.218   .     D
C50    H51     1.086   .     S
C53    C63     1.431   .     S
C53    O86     1.291   .     A
C53    O87     1.289   .     A
C54    C55     1.425   .     A
C54    C524    1.424   .     S
C54    C540    1.428   .     S
C55    C62     1.436   .     A
C55    C59     1.425   .     A
C56    C60     1.395   .     A
C56    C57     1.415   .     A
C56    C522    1.424   1_554 S
C57    C68     1.403   .     A
C57    C526    1.385   1_554 S
C58    C59     1.396   .     A
C58    H78     1.086   .     S
C58    C525    1.385   .     S
C59    C102    1.479   .     S
C60    C69     1.397   .     A
C60    H80     1.082   .     S
C61    C69     1.398   .     A
C61    C68     1.391   .     A
C61    H75     1.083   .     S
C62    C70     1.398   .     A
C62    C64     1.488   .     S
C63    C221    1.338   .     S
C63    H239    1.088   .     S
C64    O88     1.320   .     A
C64    O89     1.286   .     A
C65    C66     1.427   .     S
C65    C375    1.338   1_545 S
C65    S406    1.776   1_545 S
C66    O90     1.286   .     A
C66    O91     1.290   .     A
C67    O93     1.300   .     A
C67    O92     1.288   .     A
C67    C69     1.449   .     S
C68    H79     1.084   .     S
C70    H81     1.081   .     S
C70    C71     1.387   .     A
C71    C540    1.397   .     S
C72    C99     1.484   .     S
C72    C539    1.397   1_554 S
C72    C522    1.428   1_554 S
Cu73   O92     1.955   .     S
Cu73   Cu74    2.689   .     S
Cu73   N85     2.021   .     S
Cu73   O88     1.964   .     S
Cu73   O86     1.973   .     S
Cu73   O90     1.960   .     S
Cu74   O89     1.955   .     S
Cu74   O87     1.960   .     S
Cu74   N84     2.021   .     S
Cu74   O91     1.973   .     S
Cu74   O93     1.964   .     S
H77    N137    1.029   .     S
H82    C123    1.084   .     S
H83    C375    1.088   1_545 S
N84    H128    1.021   .     S
N84    N137    1.294   .     S
S94    O96     1.502   .     D
S94    O95     1.502   .     D
S94    C221    1.776   .     S
S94    O253    1.683   .     S
O97    S406    1.683   1_545 S
H98    O149    0.991   .     S
C99    O101    1.221   .     D
H100   C151    1.086   .     S
C102   O104    1.218   .     D
C102   H103    1.086   .     S
C105   C115    1.431   .     S
C105   O138    1.291   .     A
C105   O139    1.289   .     A
C106   C107    1.425   .     A
C106   C576    1.424   .     S
C106   C592    1.428   .     S
C107   C114    1.436   .     A
C107   C111    1.425   .     A
C108   C112    1.395   .     A
C108   C109    1.415   .     A
C108   C574    1.424   1_554 S
C109   C120    1.403   .     A
C109   C578    1.385   1_554 S
C110   C111    1.396   .     A
C110   H130    1.086   .     S
C110   C577    1.385   .     S
C111   C154    1.479   .     S
C112   C121    1.397   .     A
C112   H132    1.082   .     S
C113   C121    1.398   .     A
C113   C120    1.391   .     A
C113   H127    1.083   .     S
C114   C122    1.398   .     A
C114   C116    1.488   .     S
C115   C273    1.338   .     S
C115   H291    1.088   .     S
C116   O140    1.320   .     A
C116   O141    1.286   .     A
C117   C118    1.427   .     S
C117   C427    1.338   1_545 S
C117   S458    1.776   1_545 S
C118   O142    1.286   .     A
C118   O143    1.290   .     A
C119   O145    1.300   .     A
C119   O144    1.288   .     A
C119   C121    1.449   .     S
C120   H131    1.084   .     S
C122   H133    1.081   .     S
C122   C123    1.387   .     A
C123   C592    1.397   .     S
C124   C151    1.484   .     S
C124   C591    1.397   1_554 S
C124   C574    1.428   1_554 S
Cu125  O144    1.955   .     S
Cu125  Cu126   2.689   .     S
Cu125  N137    2.021   .     S
Cu125  O140    1.964   .     S
Cu125  O138    1.973   .     S
Cu125  O142    1.960   .     S
Cu126  O141    1.955   .     S
Cu126  O139    1.960   .     S
Cu126  N136    2.021   .     S
Cu126  O143    1.973   .     S
Cu126  O145    1.964   .     S
H129   N33     1.029   1_655 S
H134   C19     1.084   1_655 S
H135   C427    1.088   1_545 S
N136   H24     1.021   1_655 S
N136   N33     1.294   1_655 S
S146   O148    1.502   .     D
S146   O147    1.502   .     D
S146   C273    1.776   .     S
S146   O305    1.683   .     S
O149   S458    1.683   1_545 S
H150   O45     0.991   1_655 S
C151   O153    1.221   .     D
H152   C47     1.086   1_655 S
C154   O156    1.218   .     D
C154   H155    1.086   .     S
C157   C167    1.431   .     S
C157   O190    1.291   .     A
C157   O191    1.289   .     A
C158   C159    1.425   .     A
C158   C628    1.424   .     S
C158   C644    1.428   .     S
C159   C166    1.436   .     A
C159   C163    1.425   .     A
C160   C164    1.395   .     A
C160   C161    1.415   .     A
C160   C626    1.424   1_554 S
C161   C172    1.403   .     A
C161   C630    1.385   1_554 S
C162   C163    1.396   .     A
C162   H182    1.086   .     S
C162   C629    1.385   .     S
C163   C206    1.479   .     S
C164   C173    1.397   .     A
C164   H184    1.082   .     S
C165   C173    1.398   .     A
C165   C172    1.391   .     A
C165   H179    1.083   .     S
C166   C174    1.398   .     A
C166   C168    1.488   .     S
C167   C325    1.338   .     S
C167   H343    1.088   .     S
C168   O192    1.320   .     A
C168   O193    1.286   .     A
C169   C170    1.427   .     S
C170   O194    1.286   .     A
C170   O195    1.290   .     A
C171   O197    1.300   .     A
C171   O196    1.288   .     A
C171   C173    1.449   .     S
C172   H183    1.084   .     S
C174   H185    1.081   .     S
C174   C175    1.387   .     A
C175   C644    1.397   .     S
C175   H290    1.084   1_455 S
C176   C203    1.484   .     S
C176   C643    1.397   1_554 S
C176   C626    1.428   1_554 S
Cu177  O196    1.955   .     S
Cu177  Cu178   2.689   .     S
Cu177  N189    2.021   .     S
Cu177  O192    1.964   .     S
Cu177  O190    1.973   .     S
Cu177  O194    1.960   .     S
Cu178  O193    1.955   .     S
Cu178  O191    1.960   .     S
Cu178  N188    2.021   .     S
Cu178  O195    1.973   .     S
Cu178  O197    1.964   .     S
H180   N292    1.021   1_455 S
H181   N241    1.029   .     S
H186   C227    1.084   .     S
N188   H232    1.021   .     S
N188   N241    1.294   .     S
N189   N292    1.294   1_455 S
N189   H285    1.029   1_455 S
S198   O200    1.502   .     D
S198   O199    1.502   .     D
S198   C325    1.776   .     S
S198   O357    1.683   .     S
O201   H306    0.991   1_455 S
H202   O253    0.991   .     S
C203   O205    1.221   .     D
C203   H308    1.086   1_455 S
H204   C255    1.086   .     S
C206   O208    1.218   .     D
C206   H207    1.086   .     S
C209   C219    1.431   .     S
C209   O242    1.291   .     A
C209   O243    1.289   .     A
C210   C211    1.425   .     A
C210   C680    1.424   .     S
C210   C696    1.428   .     S
C211   C218    1.436   .     A
C211   C215    1.425   .     A
C212   C216    1.395   .     A
C212   C213    1.415   .     A
C212   C678    1.424   1_554 S
C213   C224    1.403   .     A
C213   C682    1.385   1_554 S
C214   C215    1.396   .     A
C214   H234    1.086   .     S
C214   C681    1.385   .     S
C215   C258    1.479   .     S
C216   C225    1.397   .     A
C216   H236    1.082   .     S
C217   C225    1.398   .     A
C217   C224    1.391   .     A
C217   H231    1.083   .     S
C218   C226    1.398   .     A
C218   C220    1.488   .     S
C219   C377    1.338   .     S
C219   H395    1.088   .     S
C220   O244    1.320   .     A
C220   O245    1.286   .     A
C221   C222    1.427   .     S
C222   O246    1.286   .     A
C222   O247    1.290   .     A
C223   O249    1.300   .     A
C223   O248    1.288   .     A
C223   C225    1.449   .     S
C224   H235    1.084   .     S
C226   H237    1.081   .     S
C226   C227    1.387   .     A
C227   C696    1.397   .     S
C228   C255    1.484   .     S
C228   C695    1.397   1_554 S
C228   C678    1.428   1_554 S
Cu229  O248    1.955   .     S
Cu229  Cu230   2.689   .     S
Cu229  N241    2.021   .     S
Cu229  O244    1.964   .     S
Cu229  O242    1.973   .     S
Cu229  O246    1.960   .     S
Cu230  O245    1.955   .     S
Cu230  O243    1.960   .     S
Cu230  N240    2.021   .     S
Cu230  O247    1.973   .     S
Cu230  O249    1.964   .     S
H233   N293    1.029   .     S
H238   C279    1.084   .     S
N240   H284    1.021   .     S
N240   N293    1.294   .     S
S250   O252    1.502   .     D
S250   O251    1.502   .     D
S250   C377    1.776   .     S
S250   O409    1.683   .     S
H254   O305    0.991   .     S
C255   O257    1.221   .     D
H256   C307    1.086   .     S
C258   O260    1.218   .     D
C258   H259    1.086   .     S
C261   C271    1.431   .     S
C261   O294    1.291   .     A
C261   O295    1.289   .     A
C262   C263    1.425   .     A
C262   C732    1.424   .     S
C262   C748    1.428   .     S
C263   C270    1.436   .     A
C263   C267    1.425   .     A
C264   C268    1.395   .     A
C264   C265    1.415   .     A
C264   C730    1.424   1_554 S
C265   C276    1.403   .     A
C265   C734    1.385   1_554 S
C266   C267    1.396   .     A
C266   H286    1.086   .     S
C266   C733    1.385   .     S
C267   C310    1.479   .     S
C268   C277    1.397   .     A
C268   H288    1.082   .     S
C269   C277    1.398   .     A
C269   C276    1.391   .     A
C269   H283    1.083   .     S
C270   C278    1.398   .     A
C270   C272    1.488   .     S
C271   C429    1.338   .     S
C271   H447    1.088   .     S
C272   O296    1.320   .     A
C272   O297    1.286   .     A
C273   C274    1.427   .     S
C274   O298    1.286   .     A
C274   O299    1.290   .     A
C275   O301    1.300   .     A
C275   O300    1.288   .     A
C275   C277    1.449   .     S
C276   H287    1.084   .     S
C278   H289    1.081   .     S
C278   C279    1.387   .     A
C279   C748    1.397   .     S
C280   C307    1.484   .     S
C280   C747    1.397   1_554 S
C280   C730    1.428   1_554 S
Cu281  O300    1.955   .     S
Cu281  Cu282   2.689   .     S
Cu281  N293    2.021   .     S
Cu281  O296    1.964   .     S
Cu281  O294    1.973   .     S
Cu281  O298    1.960   .     S
Cu282  O297    1.955   .     S
Cu282  O295    1.960   .     S
Cu282  N292    2.021   .     S
Cu282  O299    1.973   .     S
Cu282  O301    1.964   .     S
H285   N189    1.029   1_655 S
H290   C175    1.084   1_655 S
N292   H180    1.021   1_655 S
N292   N189    1.294   1_655 S
S302   O304    1.502   .     D
S302   O303    1.502   .     D
S302   C429    1.776   .     S
S302   O461    1.683   .     S
H306   O201    0.991   1_655 S
C307   O309    1.221   .     D
H308   C203    1.086   1_655 S
C310   O312    1.218   .     D
C310   H311    1.086   .     S
C313   C323    1.431   .     S
C313   O346    1.291   .     A
C313   O347    1.289   .     A
C314   C315    1.425   .     A
C314   C784    1.424   .     S
C314   C800    1.428   .     S
C315   C322    1.436   .     A
C315   C319    1.425   .     A
C316   C320    1.395   .     A
C316   C317    1.415   .     A
C316   C782    1.424   1_554 S
C317   C328    1.403   .     A
C317   C786    1.385   1_554 S
C318   C319    1.396   .     A
C318   H338    1.086   .     S
C318   C785    1.385   .     S
C319   C362    1.479   .     S
C320   C329    1.397   .     A
C320   H340    1.082   .     S
C321   C329    1.398   .     A
C321   C328    1.391   .     A
C321   H335    1.083   .     S
C322   C330    1.398   .     A
C322   C324    1.488   .     S
C323   C13     1.338   1_565 S
C323   H31     1.088   1_565 S
C324   O348    1.320   .     A
C324   O349    1.286   .     A
C325   C326    1.427   .     S
C326   O350    1.286   .     A
C326   O351    1.290   .     A
C327   O353    1.300   .     A
C327   O352    1.288   .     A
C327   C329    1.449   .     S
C328   H339    1.084   .     S
C330   H341    1.081   .     S
C330   C331    1.387   .     A
C331   C800    1.397   .     S
C331   H446    1.084   1_455 S
C332   C359    1.484   .     S
C332   C799    1.397   1_554 S
C332   C782    1.428   1_554 S
Cu333  O352    1.955   .     S
Cu333  Cu334   2.689   .     S
Cu333  N345    2.021   .     S
Cu333  O348    1.964   .     S
Cu333  O346    1.973   .     S
Cu333  O350    1.960   .     S
Cu334  O349    1.955   .     S
Cu334  O347    1.960   .     S
Cu334  N344    2.021   .     S
Cu334  O351    1.973   .     S
Cu334  O353    1.964   .     S
H336   N448    1.021   1_455 S
H337   N397    1.029   .     S
H342   C383    1.084   .     S
N344   H388    1.021   .     S
N344   N397    1.294   .     S
N345   N448    1.294   1_455 S
N345   H441    1.029   1_455 S
S354   O356    1.502   .     D
S354   O355    1.502   .     D
S354   C13     1.776   1_565 S
S354   O45     1.683   1_565 S
O357   H462    0.991   1_455 S
H358   O409    0.991   .     S
C359   O361    1.221   .     D
C359   H464    1.086   1_455 S
H360   C411    1.086   .     S
C362   O364    1.218   .     D
C362   H363    1.086   .     S
C365   C375    1.431   .     S
C365   O398    1.291   .     A
C365   O399    1.289   .     A
C366   C367    1.425   .     A
C366   C836    1.424   .     S
C366   C852    1.428   .     S
C367   C374    1.436   .     A
C367   C371    1.425   .     A
C368   C372    1.395   .     A
C368   C369    1.415   .     A
C368   C834    1.424   1_554 S
C369   C380    1.403   .     A
C369   C838    1.385   1_554 S
C370   C371    1.396   .     A
C370   H390    1.086   .     S
C370   C837    1.385   .     S
C371   C414    1.479   .     S
C372   C381    1.397   .     A
C372   H392    1.082   .     S
C373   C381    1.398   .     A
C373   C380    1.391   .     A
C373   H387    1.083   .     S
C374   C382    1.398   .     A
C374   C376    1.488   .     S
C375   C65     1.338   1_565 S
C375   H83     1.088   1_565 S
C376   O400    1.320   .     A
C376   O401    1.286   .     A
C377   C378    1.427   .     S
C378   O402    1.286   .     A
C378   O403    1.290   .     A
C379   O405    1.300   .     A
C379   O404    1.288   .     A
C379   C381    1.449   .     S
C380   H391    1.084   .     S
C382   H393    1.081   .     S
C382   C383    1.387   .     A
C383   C852    1.397   .     S
C384   C411    1.484   .     S
C384   C851    1.397   1_554 S
C384   C834    1.428   1_554 S
Cu385  O404    1.955   .     S
Cu385  Cu386   2.689   .     S
Cu385  N397    2.021   .     S
Cu385  O400    1.964   .     S
Cu385  O398    1.973   .     S
Cu385  O402    1.960   .     S
Cu386  O401    1.955   .     S
Cu386  O399    1.960   .     S
Cu386  N396    2.021   .     S
Cu386  O403    1.973   .     S
Cu386  O405    1.964   .     S
H389   N449    1.029   .     S
H394   C435    1.084   .     S
N396   H440    1.021   .     S
N396   N449    1.294   .     S
S406   O408    1.502   .     D
S406   O407    1.502   .     D
S406   C65     1.776   1_565 S
S406   O97     1.683   1_565 S
H410   O461    0.991   .     S
C411   O413    1.221   .     D
H412   C463    1.086   .     S
C414   O416    1.218   .     D
C414   H415    1.086   .     S
C417   C427    1.431   .     S
C417   O450    1.291   .     A
C417   O451    1.289   .     A
C418   C419    1.425   .     A
C418   C888    1.424   .     S
C418   C904    1.428   .     S
C419   C426    1.436   .     A
C419   C423    1.425   .     A
C420   C424    1.395   .     A
C420   C421    1.415   .     A
C420   C886    1.424   1_554 S
C421   C432    1.403   .     A
C421   C890    1.385   1_554 S
C422   C423    1.396   .     A
C422   H442    1.086   .     S
C422   C889    1.385   .     S
C423   C466    1.479   .     S
C424   C433    1.397   .     A
C424   H444    1.082   .     S
C425   C433    1.398   .     A
C425   C432    1.391   .     A
C425   H439    1.083   .     S
C426   C434    1.398   .     A
C426   C428    1.488   .     S
C427   C117    1.338   1_565 S
C427   H135    1.088   1_565 S
C428   O452    1.320   .     A
C428   O453    1.286   .     A
C429   C430    1.427   .     S
C430   O454    1.286   .     A
C430   O455    1.290   .     A
C431   O457    1.300   .     A
C431   O456    1.288   .     A
C431   C433    1.449   .     S
C432   H443    1.084   .     S
C434   H445    1.081   .     S
C434   C435    1.387   .     A
C435   C904    1.397   .     S
C436   C463    1.484   .     S
C436   C903    1.397   1_554 S
C436   C886    1.428   1_554 S
Cu437  O456    1.955   .     S
Cu437  Cu438   2.689   .     S
Cu437  N449    2.021   .     S
Cu437  O452    1.964   .     S
Cu437  O450    1.973   .     S
Cu437  O454    1.960   .     S
Cu438  O453    1.955   .     S
Cu438  O451    1.960   .     S
Cu438  N448    2.021   .     S
Cu438  O455    1.973   .     S
Cu438  O457    1.964   .     S
H441   N345    1.029   1_655 S
H446   C331    1.084   1_655 S
N448   H336    1.021   1_655 S
N448   N345    1.294   1_655 S
S458   O460    1.502   .     D
S458   O459    1.502   .     D
S458   C117    1.776   1_565 S
S458   O149    1.683   1_565 S
H462   O357    0.991   1_655 S
C463   O465    1.221   .     D
H464   C359    1.086   1_655 S
C466   O468    1.218   .     D
C466   H467    1.086   .     S
C469   C479    1.431   .     S
C469   O502    1.291   .     A
C469   O503    1.289   .     A
C470   C471    1.425   .     A
C470   C4      1.424   1_556 S
C470   C20     1.428   1_556 S
C471   C478    1.436   .     A
C471   C475    1.425   .     A
C472   C476    1.395   .     A
C472   C473    1.415   .     A
C473   C484    1.403   .     A
C474   C475    1.396   .     A
C474   H494    1.086   .     S
C474   C5      1.385   1_556 S
C475   C518    1.479   .     S
C476   C485    1.397   .     A
C476   H496    1.082   .     S
C477   C485    1.398   .     A
C477   C484    1.391   .     A
C477   H491    1.083   .     S
C478   C486    1.398   .     A
C478   C480    1.488   .     S
C479   C637    1.338   .     S
C479   H655    1.088   .     S
C480   O504    1.320   .     A
C480   O505    1.286   .     A
C481   C482    1.427   .     S
C481   C791    1.338   1_545 S
C481   S822    1.776   1_545 S
C482   O506    1.286   .     A
C482   O507    1.290   .     A
C483   O509    1.300   .     A
C483   O508    1.288   .     A
C483   C485    1.449   .     S
C484   H495    1.084   .     S
C486   H497    1.081   .     S
C486   C487    1.387   .     A
C487   C20     1.397   1_556 S
C487   H602    1.084   1_455 S
C488   C515    1.484   .     S
Cu489  O508    1.955   .     S
Cu489  Cu490   2.689   .     S
Cu489  N501    2.021   .     S
Cu489  O504    1.964   .     S
Cu489  O502    1.973   .     S
Cu489  O506    1.960   .     S
Cu490  O505    1.955   .     S
Cu490  O503    1.960   .     S
Cu490  N500    2.021   .     S
Cu490  O507    1.973   .     S
Cu490  O509    1.964   .     S
H492   N604    1.021   1_455 S
H493   N553    1.029   .     S
H498   C539    1.084   .     S
H499   C791    1.088   1_545 S
N500   H544    1.021   .     S
N500   N553    1.294   .     S
N501   N604    1.294   1_455 S
N501   H597    1.029   1_455 S
S510   O512    1.502   .     D
S510   O511    1.502   .     D
S510   C637    1.776   .     S
S510   O669    1.683   .     S
O513   S822    1.683   1_545 S
O513   H618    0.991   1_455 S
H514   O565    0.991   .     S
C515   O517    1.221   .     D
C515   H620    1.086   1_455 S
H516   C567    1.086   .     S
C518   O520    1.218   .     D
C518   H519    1.086   .     S
C521   C531    1.431   .     S
C521   O554    1.291   .     A
C521   O555    1.289   .     A
C522   C523    1.425   .     A
C522   C56     1.424   1_556 S
C522   C72     1.428   1_556 S
C523   C530    1.436   .     A
C523   C527    1.425   .     A
C524   C528    1.395   .     A
C524   C525    1.415   .     A
C525   C536    1.403   .     A
C526   C527    1.396   .     A
C526   H546    1.086   .     S
C526   C57     1.385   1_556 S
C527   C570    1.479   .     S
C528   C537    1.397   .     A
C528   H548    1.082   .     S
C529   C537    1.398   .     A
C529   C536    1.391   .     A
C529   H543    1.083   .     S
C530   C538    1.398   .     A
C530   C532    1.488   .     S
C531   C689    1.338   .     S
C531   H707    1.088   .     S
C532   O556    1.320   .     A
C532   O557    1.286   .     A
C533   C534    1.427   .     S
C533   C843    1.338   1_545 S
C533   S874    1.776   1_545 S
C534   O558    1.286   .     A
C534   O559    1.290   .     A
C535   O561    1.300   .     A
C535   O560    1.288   .     A
C535   C537    1.449   .     S
C536   H547    1.084   .     S
C538   H549    1.081   .     S
C538   C539    1.387   .     A
C539   C72     1.397   1_556 S
C540   C567    1.484   .     S
Cu541  O560    1.955   .     S
Cu541  Cu542   2.689   .     S
Cu541  N553    2.021   .     S
Cu541  O556    1.964   .     S
Cu541  O554    1.973   .     S
Cu541  O558    1.960   .     S
Cu542  O557    1.955   .     S
Cu542  O555    1.960   .     S
Cu542  N552    2.021   .     S
Cu542  O559    1.973   .     S
Cu542  O561    1.964   .     S
H545   N605    1.029   .     S
H550   C591    1.084   .     S
H551   C843    1.088   1_545 S
N552   H596    1.021   .     S
N552   N605    1.294   .     S
S562   O564    1.502   .     D
S562   O563    1.502   .     D
S562   C689    1.776   .     S
S562   O721    1.683   .     S
O565   S874    1.683   1_545 S
H566   O617    0.991   .     S
C567   O569    1.221   .     D
H568   C619    1.086   .     S
C570   O572    1.218   .     D
C570   H571    1.086   .     S
C573   C583    1.431   .     S
C573   O606    1.291   .     A
C573   O607    1.289   .     A
C574   C575    1.425   .     A
C574   C108    1.424   1_556 S
C574   C124    1.428   1_556 S
C575   C582    1.436   .     A
C575   C579    1.425   .     A
C576   C580    1.395   .     A
C576   C577    1.415   .     A
C577   C588    1.403   .     A
C578   C579    1.396   .     A
C578   H598    1.086   .     S
C578   C109    1.385   1_556 S
C579   C622    1.479   .     S
C580   C589    1.397   .     A
C580   H600    1.082   .     S
C581   C589    1.398   .     A
C581   C588    1.391   .     A
C581   H595    1.083   .     S
C582   C590    1.398   .     A
C582   C584    1.488   .     S
C583   C741    1.338   .     S
C583   H759    1.088   .     S
C584   O608    1.320   .     A
C584   O609    1.286   .     A
C585   C586    1.427   .     S
C585   C895    1.338   1_545 S
C585   S926    1.776   1_545 S
C586   O610    1.286   .     A
C586   O611    1.290   .     A
C587   O613    1.300   .     A
C587   O612    1.288   .     A
C587   C589    1.449   .     S
C588   H599    1.084   .     S
C590   H601    1.081   .     S
C590   C591    1.387   .     A
C591   C124    1.397   1_556 S
C592   C619    1.484   .     S
Cu593  O612    1.955   .     S
Cu593  Cu594   2.689   .     S
Cu593  N605    2.021   .     S
Cu593  O608    1.964   .     S
Cu593  O606    1.973   .     S
Cu593  O610    1.960   .     S
Cu594  O609    1.955   .     S
Cu594  O607    1.960   .     S
Cu594  N604    2.021   .     S
Cu594  O611    1.973   .     S
Cu594  O613    1.964   .     S
H597   N501    1.029   1_655 S
H602   C487    1.084   1_655 S
H603   C895    1.088   1_545 S
N604   H492    1.021   1_655 S
N604   N501    1.294   1_655 S
S614   O616    1.502   .     D
S614   O615    1.502   .     D
S614   C741    1.776   .     S
S614   O773    1.683   .     S
O617   S926    1.683   1_545 S
H618   O513    0.991   1_655 S
C619   O621    1.221   .     D
H620   C515    1.086   1_655 S
C622   O624    1.218   .     D
C622   H623    1.086   .     S
C625   C635    1.431   .     S
C625   O658    1.291   .     A
C625   O659    1.289   .     A
C626   C627    1.425   .     A
C626   C160    1.424   1_556 S
C626   C176    1.428   1_556 S
C627   C634    1.436   .     A
C627   C631    1.425   .     A
C628   C632    1.395   .     A
C628   C629    1.415   .     A
C629   C640    1.403   .     A
C630   C631    1.396   .     A
C630   H650    1.086   .     S
C630   C161    1.385   1_556 S
C631   C674    1.479   .     S
C632   C641    1.397   .     A
C632   H652    1.082   .     S
C633   C641    1.398   .     A
C633   C640    1.391   .     A
C633   H647    1.083   .     S
C634   C642    1.398   .     A
C634   C636    1.488   .     S
C635   C793    1.338   .     S
C635   H811    1.088   .     S
C636   O660    1.320   .     A
C636   O661    1.286   .     A
C637   C638    1.427   .     S
C638   O662    1.286   .     A
C638   O663    1.290   .     A
C639   O665    1.300   .     A
C639   O664    1.288   .     A
C639   C641    1.449   .     S
C640   H651    1.084   .     S
C642   H653    1.081   .     S
C642   C643    1.387   .     A
C643   C176    1.397   1_556 S
C643   H758    1.084   1_455 S
C644   C671    1.484   .     S
Cu645  O664    1.955   .     S
Cu645  Cu646   2.689   .     S
Cu645  N657    2.021   .     S
Cu645  O660    1.964   .     S
Cu645  O658    1.973   .     S
Cu645  O662    1.960   .     S
Cu646  O661    1.955   .     S
Cu646  O659    1.960   .     S
Cu646  N656    2.021   .     S
Cu646  O663    1.973   .     S
Cu646  O665    1.964   .     S
H648   N760    1.021   1_455 S
H649   N709    1.029   .     S
H654   C695    1.084   .     S
N656   H700    1.021   .     S
N656   N709    1.294   .     S
N657   N760    1.294   1_455 S
N657   H753    1.029   1_455 S
S666   O668    1.502   .     D
S666   O667    1.502   .     D
S666   C793    1.776   .     S
S666   O825    1.683   .     S
O669   H774    0.991   1_455 S
H670   O721    0.991   .     S
C671   O673    1.221   .     D
C671   H776    1.086   1_455 S
H672   C723    1.086   .     S
C674   O676    1.218   .     D
C674   H675    1.086   .     S
C677   C687    1.431   .     S
C677   O710    1.291   .     A
C677   O711    1.289   .     A
C678   C679    1.425   .     A
C678   C212    1.424   1_556 S
C678   C228    1.428   1_556 S
C679   C686    1.436   .     A
C679   C683    1.425   .     A
C680   C684    1.395   .     A
C680   C681    1.415   .     A
C681   C692    1.403   .     A
C682   C683    1.396   .     A
C682   H702    1.086   .     S
C682   C213    1.385   1_556 S
C683   C726    1.479   .     S
C684   C693    1.397   .     A
C684   H704    1.082   .     S
C685   C693    1.398   .     A
C685   C692    1.391   .     A
C685   H699    1.083   .     S
C686   C694    1.398   .     A
C686   C688    1.488   .     S
C687   C845    1.338   .     S
C687   H863    1.088   .     S
C688   O712    1.320   .     A
C688   O713    1.286   .     A
C689   C690    1.427   .     S
C690   O714    1.286   .     A
C690   O715    1.290   .     A
C691   O717    1.300   .     A
C691   O716    1.288   .     A
C691   C693    1.449   .     S
C692   H703    1.084   .     S
C694   H705    1.081   .     S
C694   C695    1.387   .     A
C695   C228    1.397   1_556 S
C696   C723    1.484   .     S
Cu697  O716    1.955   .     S
Cu697  Cu698   2.689   .     S
Cu697  N709    2.021   .     S
Cu697  O712    1.964   .     S
Cu697  O710    1.973   .     S
Cu697  O714    1.960   .     S
Cu698  O713    1.955   .     S
Cu698  O711    1.960   .     S
Cu698  N708    2.021   .     S
Cu698  O715    1.973   .     S
Cu698  O717    1.964   .     S
H701   N761    1.029   .     S
H706   C747    1.084   .     S
N708   H752    1.021   .     S
N708   N761    1.294   .     S
S718   O720    1.502   .     D
S718   O719    1.502   .     D
S718   C845    1.776   .     S
S718   O877    1.683   .     S
H722   O773    0.991   .     S
C723   O725    1.221   .     D
H724   C775    1.086   .     S
C726   O728    1.218   .     D
C726   H727    1.086   .     S
C729   C739    1.431   .     S
C729   O762    1.291   .     A
C729   O763    1.289   .     A
C730   C731    1.425   .     A
C730   C264    1.424   1_556 S
C730   C280    1.428   1_556 S
C731   C738    1.436   .     A
C731   C735    1.425   .     A
C732   C736    1.395   .     A
C732   C733    1.415   .     A
C733   C744    1.403   .     A
C734   C735    1.396   .     A
C734   H754    1.086   .     S
C734   C265    1.385   1_556 S
C735   C778    1.479   .     S
C736   C745    1.397   .     A
C736   H756    1.082   .     S
C737   C745    1.398   .     A
C737   C744    1.391   .     A
C737   H751    1.083   .     S
C738   C746    1.398   .     A
C738   C740    1.488   .     S
C739   C897    1.338   .     S
C739   H915    1.088   .     S
C740   O764    1.320   .     A
C740   O765    1.286   .     A
C741   C742    1.427   .     S
C742   O766    1.286   .     A
C742   O767    1.290   .     A
C743   O769    1.300   .     A
C743   O768    1.288   .     A
C743   C745    1.449   .     S
C744   H755    1.084   .     S
C746   H757    1.081   .     S
C746   C747    1.387   .     A
C747   C280    1.397   1_556 S
C748   C775    1.484   .     S
Cu749  O768    1.955   .     S
Cu749  Cu750   2.689   .     S
Cu749  N761    2.021   .     S
Cu749  O764    1.964   .     S
Cu749  O762    1.973   .     S
Cu749  O766    1.960   .     S
Cu750  O765    1.955   .     S
Cu750  O763    1.960   .     S
Cu750  N760    2.021   .     S
Cu750  O767    1.973   .     S
Cu750  O769    1.964   .     S
H753   N657    1.029   1_655 S
H758   C643    1.084   1_655 S
N760   H648    1.021   1_655 S
N760   N657    1.294   1_655 S
S770   O772    1.502   .     D
S770   O771    1.502   .     D
S770   C897    1.776   .     S
S770   O929    1.683   .     S
H774   O669    0.991   1_655 S
C775   O777    1.221   .     D
H776   C671    1.086   1_655 S
C778   O780    1.218   .     D
C778   H779    1.086   .     S
C781   C791    1.431   .     S
C781   O814    1.291   .     A
C781   O815    1.289   .     A
C782   C783    1.425   .     A
C782   C316    1.424   1_556 S
C782   C332    1.428   1_556 S
C783   C790    1.436   .     A
C783   C787    1.425   .     A
C784   C788    1.395   .     A
C784   C785    1.415   .     A
C785   C796    1.403   .     A
C786   C787    1.396   .     A
C786   H806    1.086   .     S
C786   C317    1.385   1_556 S
C787   C830    1.479   .     S
C788   C797    1.397   .     A
C788   H808    1.082   .     S
C789   C797    1.398   .     A
C789   C796    1.391   .     A
C789   H803    1.083   .     S
C790   C798    1.398   .     A
C790   C792    1.488   .     S
C791   C481    1.338   1_565 S
C791   H499    1.088   1_565 S
C792   O816    1.320   .     A
C792   O817    1.286   .     A
C793   C794    1.427   .     S
C794   O818    1.286   .     A
C794   O819    1.290   .     A
C795   O821    1.300   .     A
C795   O820    1.288   .     A
C795   C797    1.449   .     S
C796   H807    1.084   .     S
C798   H809    1.081   .     S
C798   C799    1.387   .     A
C799   C332    1.397   1_556 S
C799   H914    1.084   1_455 S
C800   C827    1.484   .     S
Cu801  O820    1.955   .     S
Cu801  Cu802   2.689   .     S
Cu801  N813    2.021   .     S
Cu801  O816    1.964   .     S
Cu801  O814    1.973   .     S
Cu801  O818    1.960   .     S
Cu802  O817    1.955   .     S
Cu802  O815    1.960   .     S
Cu802  N812    2.021   .     S
Cu802  O819    1.973   .     S
Cu802  O821    1.964   .     S
H804   N916    1.021   1_455 S
H805   N865    1.029   .     S
H810   C851    1.084   .     S
N812   H856    1.021   .     S
N812   N865    1.294   .     S
N813   N916    1.294   1_455 S
N813   H909    1.029   1_455 S
S822   O824    1.502   .     D
S822   O823    1.502   .     D
S822   C481    1.776   1_565 S
S822   O513    1.683   1_565 S
O825   H930    0.991   1_455 S
H826   O877    0.991   .     S
C827   O829    1.221   .     D
C827   H932    1.086   1_455 S
H828   C879    1.086   .     S
C830   O832    1.218   .     D
C830   H831    1.086   .     S
C833   C843    1.431   .     S
C833   O866    1.291   .     A
C833   O867    1.289   .     A
C834   C835    1.425   .     A
C834   C368    1.424   1_556 S
C834   C384    1.428   1_556 S
C835   C842    1.436   .     A
C835   C839    1.425   .     A
C836   C840    1.395   .     A
C836   C837    1.415   .     A
C837   C848    1.403   .     A
C838   C839    1.396   .     A
C838   H858    1.086   .     S
C838   C369    1.385   1_556 S
C839   C882    1.479   .     S
C840   C849    1.397   .     A
C840   H860    1.082   .     S
C841   C849    1.398   .     A
C841   C848    1.391   .     A
C841   H855    1.083   .     S
C842   C850    1.398   .     A
C842   C844    1.488   .     S
C843   C533    1.338   1_565 S
C843   H551    1.088   1_565 S
C844   O868    1.320   .     A
C844   O869    1.286   .     A
C845   C846    1.427   .     S
C846   O870    1.286   .     A
C846   O871    1.290   .     A
C847   O873    1.300   .     A
C847   O872    1.288   .     A
C847   C849    1.449   .     S
C848   H859    1.084   .     S
C850   H861    1.081   .     S
C850   C851    1.387   .     A
C851   C384    1.397   1_556 S
C852   C879    1.484   .     S
Cu853  O872    1.955   .     S
Cu853  Cu854   2.689   .     S
Cu853  N865    2.021   .     S
Cu853  O868    1.964   .     S
Cu853  O866    1.973   .     S
Cu853  O870    1.960   .     S
Cu854  O869    1.955   .     S
Cu854  O867    1.960   .     S
Cu854  N864    2.021   .     S
Cu854  O871    1.973   .     S
Cu854  O873    1.964   .     S
H857   N917    1.029   .     S
H862   C903    1.084   .     S
N864   H908    1.021   .     S
N864   N917    1.294   .     S
S874   O876    1.502   .     D
S874   O875    1.502   .     D
S874   C533    1.776   1_565 S
S874   O565    1.683   1_565 S
H878   O929    0.991   .     S
C879   O881    1.221   .     D
H880   C931    1.086   .     S
C882   O884    1.218   .     D
C882   H883    1.086   .     S
C885   C895    1.431   .     S
C885   O918    1.291   .     A
C885   O919    1.289   .     A
C886   C887    1.425   .     A
C886   C420    1.424   1_556 S
C886   C436    1.428   1_556 S
C887   C894    1.436   .     A
C887   C891    1.425   .     A
C888   C892    1.395   .     A
C888   C889    1.415   .     A
C889   C900    1.403   .     A
C890   C891    1.396   .     A
C890   H910    1.086   .     S
C890   C421    1.385   1_556 S
C891   C934    1.479   .     S
C892   C901    1.397   .     A
C892   H912    1.082   .     S
C893   C901    1.398   .     A
C893   C900    1.391   .     A
C893   H907    1.083   .     S
C894   C902    1.398   .     A
C894   C896    1.488   .     S
C895   C585    1.338   1_565 S
C895   H603    1.088   1_565 S
C896   O920    1.320   .     A
C896   O921    1.286   .     A
C897   C898    1.427   .     S
C898   O922    1.286   .     A
C898   O923    1.290   .     A
C899   O925    1.300   .     A
C899   O924    1.288   .     A
C899   C901    1.449   .     S
C900   H911    1.084   .     S
C902   H913    1.081   .     S
C902   C903    1.387   .     A
C903   C436    1.397   1_556 S
C904   C931    1.484   .     S
Cu905  O924    1.955   .     S
Cu905  Cu906   2.689   .     S
Cu905  N917    2.021   .     S
Cu905  O920    1.964   .     S
Cu905  O918    1.973   .     S
Cu905  O922    1.960   .     S
Cu906  O921    1.955   .     S
Cu906  O919    1.960   .     S
Cu906  N916    2.021   .     S
Cu906  O923    1.973   .     S
Cu906  O925    1.964   .     S
H909   N813    1.029   1_655 S
H914   C799    1.084   1_655 S
N916   H804    1.021   1_655 S
N916   N813    1.294   1_655 S
S926   O928    1.502   .     D
S926   O927    1.502   .     D
S926   C585    1.776   1_565 S
S926   O617    1.683   1_565 S
H930   O825    0.991   1_655 S
C931   O933    1.221   .     D
H932   C827    1.086   1_655 S
C934   O936    1.218   .     D
C934   H935    1.086   .     S
