data_str_m2_o1_o17_pcu_sym.174
_audit_creation_date              2020-01-03
_audit_creation_method            'Materials Studio'
_symmetry_space_group_name_H-M    'P1'
_symmetry_Int_Tables_number       1
_symmetry_cell_setting            triclinic
loop_
_symmetry_equiv_pos_as_xyz
  x,y,z
_cell_length_a                    33.4126
_cell_length_b                    28.5159
_cell_length_c                    30.4019
_cell_angle_alpha                 89.9995
_cell_angle_beta                  91.0717
_cell_angle_gamma                 89.9991
loop_
_atom_site_label
_atom_site_type_symbol
_atom_site_fract_x
_atom_site_fract_y
_atom_site_fract_z
_atom_site_U_iso_or_equiv
_atom_site_adp_type
_atom_site_occupancy
C1     C     0.08730   0.16669   0.25174   0.00000  Uiso   1.00
C2     C     0.24603   0.16669   0.24826   0.00000  Uiso   1.00
C3     C     0.09380   0.16737   0.01931   0.00000  Uiso   1.00
C4     C     0.23954   0.16737   0.48069   0.00000  Uiso   1.00
C5     C     0.02102   0.12425   0.24905   0.00000  Uiso   1.00
C6     C     0.31241   0.20955   0.24660   0.00000  Uiso   1.00
C7     C     0.31231   0.12425   0.25095   0.00000  Uiso   1.00
C8     C     0.02092   0.20955   0.25339   0.00000  Uiso   1.00
C9     C     0.29071   0.16680   0.24804   0.00000  Uiso   1.00
C10    C     0.04262   0.16680   0.25196   0.00000  Uiso   1.00
C11    C     0.15180   0.02479   0.21471   0.00000  Uiso   1.00
C12    C     0.18176   0.30853   0.28519   0.00000  Uiso   1.00
C13    C     0.18153   0.02479   0.28529   0.00000  Uiso   1.00
C14    C     0.15157   0.30853   0.21481   0.00000  Uiso   1.00
C15    C     0.16654   0.16660   0.16418   0.00000  Uiso   1.00
C16    C     0.16680   0.16660   0.33582   0.00000  Uiso   1.00
C17    C     0.20378   0.17573   0.40905   0.00000  Uiso   1.00
C18    C     0.12955   0.17573   0.09095   0.00000  Uiso   1.00
C19    C     0.16808   0.16620   0.38442   0.00000  Uiso   1.00
C20    C     0.16526   0.16620   0.11559   0.00000  Uiso   1.00
C21    C     0.13300   0.15471   0.40688   0.00000  Uiso   1.00
C22    C     0.20034   0.15470   0.09312   0.00000  Uiso   1.00
C23    C     0.13144   0.16499   0.45205   0.00000  Uiso   1.00
C24    C     0.20190   0.16498   0.04795   0.00000  Uiso   1.00
C25    C     0.16720   0.16684   0.47680   0.00000  Uiso   1.00
C26    C     0.16614   0.16684   0.02320   0.00000  Uiso   1.00
C27    C     0.20395   0.16870   0.45513   0.00000  Uiso   1.00
C28    C     0.12938   0.16871   0.04487   0.00000  Uiso   1.00
C29    C     0.09509   0.17052   0.47354   0.00000  Uiso   1.00
C30    C     0.23825   0.17051   0.02646   0.00000  Uiso   1.00
Cu31   Cu    0.16667   0.21355   0.25000   0.00000  Uiso   1.00
Cu32   Cu    0.16667   0.11978   0.25000   0.00000  Uiso   1.00
H33    H     0.13950   0.04333   0.18656   0.00000  Uiso   1.00
H34    H     0.19430   0.28999   0.31323   0.00000  Uiso   1.00
H35    H     0.19383   0.04333   0.31344   0.00000  Uiso   1.00
H36    H     0.13904   0.28999   0.18677   0.00000  Uiso   1.00
N37    N     0.16667   0.28402   0.25000   0.00000  Uiso   1.00
N38    N     0.16667   0.04931   0.25000   0.00000  Uiso   1.00
O39    O     0.10655   0.20625   0.25000   0.00000  Uiso   1.00
O40    O     0.22679   0.12709   0.25001   0.00000  Uiso   1.00
O41    O     0.22679   0.20625   0.25001   0.00000  Uiso   1.00
O42    O     0.10655   0.12709   0.25000   0.00000  Uiso   1.00
O43    O     0.16666   0.20627   0.18513   0.00000  Uiso   1.00
O44    O     0.16668   0.12707   0.31487   0.00000  Uiso   1.00
O45    O     0.16668   0.20627   0.31487   0.00000  Uiso   1.00
O46    O     0.16666   0.12707   0.18513   0.00000  Uiso   1.00
O47    O     0.23348   0.20402   0.39230   0.00000  Uiso   1.00
C48    C     0.25581   0.18056   0.36041   0.00000  Uiso   1.00
H49    H     0.23986   0.18136   0.32880   0.00000  Uiso   1.00
H50    H     0.26225   0.14342   0.36895   0.00000  Uiso   1.00
C51    C     0.29452   0.20724   0.35474   0.00000  Uiso   1.00
H52    H     0.30894   0.21416   0.38713   0.00000  Uiso   1.00
H53    H     0.31536   0.18677   0.33446   0.00000  Uiso   1.00
H54    H     0.28778   0.24133   0.33860   0.00000  Uiso   1.00
O55    O     0.09985   0.20400   0.10770   0.00000  Uiso   1.00
C56    C     0.07752   0.18053   0.13959   0.00000  Uiso   1.00
H57    H     0.09347   0.18133   0.17120   0.00000  Uiso   1.00
H58    H     0.07109   0.14340   0.13104   0.00000  Uiso   1.00
C59    C     0.03881   0.20720   0.14526   0.00000  Uiso   1.00
H60    H     0.02438   0.21412   0.11287   0.00000  Uiso   1.00
H61    H     0.01797   0.18672   0.16554   0.00000  Uiso   1.00
H62    H     0.04553   0.24128   0.16140   0.00000  Uiso   1.00
O63    O     0.11088   0.11663   0.39203   0.00000  Uiso   1.00
C64    C     0.07907   0.13010   0.36389   0.00000  Uiso   1.00
H65    H     0.08541   0.11759   0.33030   0.00000  Uiso   1.00
H66    H     0.07395   0.16852   0.36211   0.00000  Uiso   1.00
C67    C     0.04140   0.10569   0.37921   0.00000  Uiso   1.00
H68    H     0.03945   0.10775   0.41554   0.00000  Uiso   1.00
H69    H     0.01470   0.12288   0.36451   0.00000  Uiso   1.00
H70    H     0.04200   0.06810   0.36965   0.00000  Uiso   1.00
O71    O     0.22244   0.11661   0.10798   0.00000  Uiso   1.00
C72    C     0.25428   0.13007   0.13609   0.00000  Uiso   1.00
H73    H     0.24797   0.11756   0.16969   0.00000  Uiso   1.00
H74    H     0.25940   0.16849   0.13787   0.00000  Uiso   1.00
C75    C     0.29193   0.10565   0.12072   0.00000  Uiso   1.00
H76    H     0.29385   0.10771   0.08439   0.00000  Uiso   1.00
H77    H     0.31865   0.12285   0.13538   0.00000  Uiso   1.00
H78    H     0.29135   0.06807   0.13029   0.00000  Uiso   1.00
I79    I     0.05003   0.21256   0.44335   0.00000  Uiso   1.00
I80    I     0.28331   0.21256   0.05665   0.00000  Uiso   1.00
I81    I     0.04137   0.13631   0.04347   0.00000  Uiso   1.00
I82    I     0.29196   0.13630   0.45652   0.00000  Uiso   1.00
O83    O     0.04060   0.08152   0.24713   0.00000  Uiso   1.00
C84    C     0.04059   0.06607   0.20291   0.00000  Uiso   1.00
H85    H     0.06571   0.08270   0.18530   0.00000  Uiso   1.00
H86    H     0.01208   0.07375   0.18511   0.00000  Uiso   1.00
C87    C     0.04568   0.01326   0.20146   0.00000  Uiso   1.00
H88    H     0.01975   0.32961   0.21698   0.00000  Uiso   1.00
H89    H     0.04751   0.00124   0.16682   0.00000  Uiso   1.00
H90    H     0.07320   0.00277   0.21954   0.00000  Uiso   1.00
O91    O     0.29288   0.25216   0.24189   0.00000  Uiso   1.00
C92    C     0.28754   0.26147   0.19646   0.00000  Uiso   1.00
H93    H     0.27046   0.23294   0.17982   0.00000  Uiso   1.00
H94    H     0.31677   0.26588   0.18042   0.00000  Uiso   1.00
C95    C     0.26419   0.30674   0.18969   0.00000  Uiso   1.00
H96    H     0.28174   0.00375   0.20217   0.00000  Uiso   1.00
H97    H     0.25786   0.31213   0.15406   0.00000  Uiso   1.00
H98    H     0.23545   0.30488   0.20709   0.00000  Uiso   1.00
O99    O     0.29274   0.08152   0.25285   0.00000  Uiso   1.00
C100   C     0.29275   0.06605   0.29707   0.00000  Uiso   1.00
H101   H     0.26765   0.08270   0.31469   0.00000  Uiso   1.00
H102   H     0.32127   0.07370   0.31486   0.00000  Uiso   1.00
C103   C     0.28762   0.01325   0.29850   0.00000  Uiso   1.00
H104   H     0.31356   0.32958   0.28300   0.00000  Uiso   1.00
H105   H     0.28577   0.00122   0.33314   0.00000  Uiso   1.00
H106   H     0.26011   0.00278   0.28041   0.00000  Uiso   1.00
O107   O     0.04045   0.25216   0.25809   0.00000  Uiso   1.00
C108   C     0.04580   0.26149   0.30352   0.00000  Uiso   1.00
H109   H     0.06290   0.23297   0.32015   0.00000  Uiso   1.00
H110   H     0.01657   0.26588   0.31957   0.00000  Uiso   1.00
C111   C     0.06913   0.30677   0.31027   0.00000  Uiso   1.00
H112   H     0.05156   0.00376   0.29779   0.00000  Uiso   1.00
H113   H     0.07546   0.31217   0.34590   0.00000  Uiso   1.00
H114   H     0.09786   0.30492   0.29286   0.00000  Uiso   1.00
C115   C     0.42064   0.16669   0.25174   0.00000  Uiso   1.00
C116   C     0.57936   0.16669   0.24826   0.00000  Uiso   1.00
C117   C     0.42713   0.16737   0.01931   0.00000  Uiso   1.00
C118   C     0.57287   0.16737   0.48069   0.00000  Uiso   1.00
C119   C     0.35435   0.12425   0.24905   0.00000  Uiso   1.00
C120   C     0.64575   0.20955   0.24660   0.00000  Uiso   1.00
C121   C     0.64565   0.12425   0.25095   0.00000  Uiso   1.00
C122   C     0.35425   0.20955   0.25339   0.00000  Uiso   1.00
C123   C     0.62404   0.16680   0.24804   0.00000  Uiso   1.00
C124   C     0.37596   0.16680   0.25196   0.00000  Uiso   1.00
C125   C     0.48514   0.02479   0.21471   0.00000  Uiso   1.00
C126   C     0.51509   0.30853   0.28519   0.00000  Uiso   1.00
C127   C     0.51486   0.02479   0.28529   0.00000  Uiso   1.00
C128   C     0.48491   0.30853   0.21481   0.00000  Uiso   1.00
C129   C     0.49987   0.16660   0.16418   0.00000  Uiso   1.00
C130   C     0.50013   0.16660   0.33582   0.00000  Uiso   1.00
C131   C     0.53711   0.17573   0.40905   0.00000  Uiso   1.00
C132   C     0.46289   0.17573   0.09095   0.00000  Uiso   1.00
C133   C     0.50141   0.16620   0.38442   0.00000  Uiso   1.00
C134   C     0.49859   0.16620   0.11559   0.00000  Uiso   1.00
C135   C     0.46633   0.15471   0.40688   0.00000  Uiso   1.00
C136   C     0.53367   0.15470   0.09312   0.00000  Uiso   1.00
C137   C     0.46478   0.16499   0.45205   0.00000  Uiso   1.00
C138   C     0.53523   0.16498   0.04795   0.00000  Uiso   1.00
C139   C     0.50053   0.16684   0.47680   0.00000  Uiso   1.00
C140   C     0.49947   0.16684   0.02320   0.00000  Uiso   1.00
C141   C     0.53729   0.16870   0.45513   0.00000  Uiso   1.00
C142   C     0.46272   0.16871   0.04487   0.00000  Uiso   1.00
C143   C     0.42842   0.17052   0.47354   0.00000  Uiso   1.00
C144   C     0.57159   0.17051   0.02646   0.00000  Uiso   1.00
Cu145  Cu    0.50000   0.21355   0.25000   0.00000  Uiso   1.00
Cu146  Cu    0.50000   0.11978   0.25000   0.00000  Uiso   1.00
H147   H     0.47283   0.04333   0.18656   0.00000  Uiso   1.00
H148   H     0.52763   0.28999   0.31323   0.00000  Uiso   1.00
H149   H     0.52717   0.04333   0.31344   0.00000  Uiso   1.00
H150   H     0.47237   0.28999   0.18677   0.00000  Uiso   1.00
N151   N     0.50000   0.28402   0.25000   0.00000  Uiso   1.00
N152   N     0.50000   0.04931   0.25000   0.00000  Uiso   1.00
O153   O     0.43988   0.20625   0.25000   0.00000  Uiso   1.00
O154   O     0.56012   0.12709   0.25001   0.00000  Uiso   1.00
O155   O     0.56012   0.20625   0.25001   0.00000  Uiso   1.00
O156   O     0.43988   0.12709   0.25000   0.00000  Uiso   1.00
O157   O     0.49999   0.20627   0.18513   0.00000  Uiso   1.00
O158   O     0.50001   0.12707   0.31487   0.00000  Uiso   1.00
O159   O     0.50001   0.20627   0.31487   0.00000  Uiso   1.00
O160   O     0.49999   0.12707   0.18513   0.00000  Uiso   1.00
O161   O     0.56682   0.20402   0.39230   0.00000  Uiso   1.00
C162   C     0.58914   0.18056   0.36041   0.00000  Uiso   1.00
H163   H     0.57319   0.18136   0.32880   0.00000  Uiso   1.00
H164   H     0.59558   0.14342   0.36895   0.00000  Uiso   1.00
C165   C     0.62785   0.20724   0.35474   0.00000  Uiso   1.00
H166   H     0.64227   0.21416   0.38713   0.00000  Uiso   1.00
H167   H     0.64869   0.18677   0.33446   0.00000  Uiso   1.00
H168   H     0.62112   0.24133   0.33860   0.00000  Uiso   1.00
O169   O     0.43318   0.20400   0.10770   0.00000  Uiso   1.00
C170   C     0.41086   0.18053   0.13959   0.00000  Uiso   1.00
H171   H     0.42681   0.18133   0.17120   0.00000  Uiso   1.00
H172   H     0.40443   0.14340   0.13104   0.00000  Uiso   1.00
C173   C     0.37214   0.20720   0.14526   0.00000  Uiso   1.00
H174   H     0.35772   0.21412   0.11287   0.00000  Uiso   1.00
H175   H     0.35130   0.18672   0.16554   0.00000  Uiso   1.00
H176   H     0.37887   0.24128   0.16140   0.00000  Uiso   1.00
O177   O     0.44421   0.11663   0.39203   0.00000  Uiso   1.00
C178   C     0.41241   0.13010   0.36389   0.00000  Uiso   1.00
H179   H     0.41874   0.11759   0.33030   0.00000  Uiso   1.00
H180   H     0.40729   0.16852   0.36211   0.00000  Uiso   1.00
C181   C     0.37474   0.10569   0.37921   0.00000  Uiso   1.00
H182   H     0.37278   0.10775   0.41554   0.00000  Uiso   1.00
H183   H     0.34803   0.12288   0.36451   0.00000  Uiso   1.00
H184   H     0.37533   0.06810   0.36965   0.00000  Uiso   1.00
O185   O     0.55578   0.11661   0.10798   0.00000  Uiso   1.00
C186   C     0.58761   0.13007   0.13609   0.00000  Uiso   1.00
H187   H     0.58130   0.11756   0.16969   0.00000  Uiso   1.00
H188   H     0.59273   0.16849   0.13787   0.00000  Uiso   1.00
C189   C     0.62526   0.10565   0.12072   0.00000  Uiso   1.00
H190   H     0.62718   0.10771   0.08439   0.00000  Uiso   1.00
H191   H     0.65199   0.12285   0.13538   0.00000  Uiso   1.00
H192   H     0.62468   0.06807   0.13029   0.00000  Uiso   1.00
I193   I     0.38336   0.21256   0.44335   0.00000  Uiso   1.00
I194   I     0.61664   0.21256   0.05665   0.00000  Uiso   1.00
I195   I     0.37471   0.13631   0.04347   0.00000  Uiso   1.00
I196   I     0.62529   0.13630   0.45652   0.00000  Uiso   1.00
O197   O     0.37393   0.08152   0.24713   0.00000  Uiso   1.00
C198   C     0.37392   0.06607   0.20291   0.00000  Uiso   1.00
H199   H     0.39904   0.08270   0.18530   0.00000  Uiso   1.00
H200   H     0.34541   0.07375   0.18511   0.00000  Uiso   1.00
C201   C     0.37902   0.01326   0.20146   0.00000  Uiso   1.00
H202   H     0.35308   0.32961   0.21698   0.00000  Uiso   1.00
H203   H     0.38084   0.00124   0.16682   0.00000  Uiso   1.00
H204   H     0.40653   0.00277   0.21954   0.00000  Uiso   1.00
O205   O     0.62622   0.25216   0.24189   0.00000  Uiso   1.00
C206   C     0.62087   0.26147   0.19646   0.00000  Uiso   1.00
H207   H     0.60379   0.23294   0.17982   0.00000  Uiso   1.00
H208   H     0.65010   0.26588   0.18042   0.00000  Uiso   1.00
C209   C     0.59752   0.30674   0.18969   0.00000  Uiso   1.00
H210   H     0.61507   0.00375   0.20217   0.00000  Uiso   1.00
H211   H     0.59119   0.31213   0.15406   0.00000  Uiso   1.00
H212   H     0.56879   0.30488   0.20709   0.00000  Uiso   1.00
O213   O     0.62607   0.08152   0.25285   0.00000  Uiso   1.00
C214   C     0.62609   0.06605   0.29707   0.00000  Uiso   1.00
H215   H     0.60098   0.08270   0.31469   0.00000  Uiso   1.00
H216   H     0.65460   0.07370   0.31486   0.00000  Uiso   1.00
C217   C     0.62096   0.01325   0.29850   0.00000  Uiso   1.00
H218   H     0.64689   0.32958   0.28300   0.00000  Uiso   1.00
H219   H     0.61910   0.00122   0.33314   0.00000  Uiso   1.00
H220   H     0.59345   0.00278   0.28041   0.00000  Uiso   1.00
O221   O     0.37378   0.25216   0.25809   0.00000  Uiso   1.00
C222   C     0.37913   0.26149   0.30352   0.00000  Uiso   1.00
H223   H     0.39623   0.23297   0.32015   0.00000  Uiso   1.00
H224   H     0.34991   0.26588   0.31957   0.00000  Uiso   1.00
C225   C     0.40246   0.30677   0.31027   0.00000  Uiso   1.00
H226   H     0.38490   0.00376   0.29779   0.00000  Uiso   1.00
H227   H     0.40880   0.31217   0.34590   0.00000  Uiso   1.00
H228   H     0.43120   0.30492   0.29286   0.00000  Uiso   1.00
C229   C     0.75397   0.16669   0.25174   0.00000  Uiso   1.00
C230   C     0.91270   0.16669   0.24826   0.00000  Uiso   1.00
C231   C     0.76047   0.16737   0.01931   0.00000  Uiso   1.00
C232   C     0.90620   0.16737   0.48069   0.00000  Uiso   1.00
C233   C     0.68769   0.12425   0.24905   0.00000  Uiso   1.00
C234   C     0.97908   0.20955   0.24660   0.00000  Uiso   1.00
C235   C     0.97898   0.12425   0.25095   0.00000  Uiso   1.00
C236   C     0.68759   0.20955   0.25339   0.00000  Uiso   1.00
C237   C     0.95738   0.16680   0.24804   0.00000  Uiso   1.00
C238   C     0.70929   0.16680   0.25196   0.00000  Uiso   1.00
C239   C     0.81847   0.02479   0.21471   0.00000  Uiso   1.00
C240   C     0.84843   0.30853   0.28519   0.00000  Uiso   1.00
C241   C     0.84820   0.02479   0.28529   0.00000  Uiso   1.00
C242   C     0.81824   0.30853   0.21481   0.00000  Uiso   1.00
C243   C     0.83321   0.16660   0.16418   0.00000  Uiso   1.00
C244   C     0.83346   0.16660   0.33582   0.00000  Uiso   1.00
C245   C     0.87045   0.17573   0.40905   0.00000  Uiso   1.00
C246   C     0.79622   0.17573   0.09095   0.00000  Uiso   1.00
C247   C     0.83474   0.16620   0.38442   0.00000  Uiso   1.00
C248   C     0.83193   0.16620   0.11559   0.00000  Uiso   1.00
C249   C     0.79967   0.15471   0.40688   0.00000  Uiso   1.00
C250   C     0.86700   0.15470   0.09312   0.00000  Uiso   1.00
C251   C     0.79811   0.16499   0.45205   0.00000  Uiso   1.00
C252   C     0.86856   0.16498   0.04795   0.00000  Uiso   1.00
C253   C     0.83387   0.16684   0.47680   0.00000  Uiso   1.00
C254   C     0.83280   0.16684   0.02320   0.00000  Uiso   1.00
C255   C     0.87062   0.16870   0.45513   0.00000  Uiso   1.00
C256   C     0.79605   0.16871   0.04487   0.00000  Uiso   1.00
C257   C     0.76175   0.17052   0.47354   0.00000  Uiso   1.00
C258   C     0.90492   0.17051   0.02646   0.00000  Uiso   1.00
Cu259  Cu    0.83333   0.21355   0.25000   0.00000  Uiso   1.00
Cu260  Cu    0.83333   0.11978   0.25000   0.00000  Uiso   1.00
H261   H     0.80616   0.04333   0.18656   0.00000  Uiso   1.00
H262   H     0.86096   0.28999   0.31323   0.00000  Uiso   1.00
H263   H     0.86050   0.04333   0.31344   0.00000  Uiso   1.00
H264   H     0.80570   0.28999   0.18677   0.00000  Uiso   1.00
N265   N     0.83333   0.28402   0.25000   0.00000  Uiso   1.00
N266   N     0.83333   0.04931   0.25000   0.00000  Uiso   1.00
O267   O     0.77321   0.20625   0.25000   0.00000  Uiso   1.00
O268   O     0.89345   0.12709   0.25001   0.00000  Uiso   1.00
O269   O     0.89345   0.20625   0.25001   0.00000  Uiso   1.00
O270   O     0.77321   0.12709   0.25000   0.00000  Uiso   1.00
O271   O     0.83332   0.20627   0.18513   0.00000  Uiso   1.00
O272   O     0.83334   0.12707   0.31487   0.00000  Uiso   1.00
O273   O     0.83334   0.20627   0.31487   0.00000  Uiso   1.00
O274   O     0.83332   0.12707   0.18513   0.00000  Uiso   1.00
O275   O     0.90015   0.20402   0.39230   0.00000  Uiso   1.00
C276   C     0.92248   0.18056   0.36041   0.00000  Uiso   1.00
H277   H     0.90652   0.18136   0.32880   0.00000  Uiso   1.00
H278   H     0.92892   0.14342   0.36895   0.00000  Uiso   1.00
C279   C     0.96118   0.20724   0.35474   0.00000  Uiso   1.00
H280   H     0.97561   0.21416   0.38713   0.00000  Uiso   1.00
H281   H     0.98203   0.18677   0.33446   0.00000  Uiso   1.00
H282   H     0.95445   0.24133   0.33860   0.00000  Uiso   1.00
O283   O     0.76651   0.20400   0.10770   0.00000  Uiso   1.00
C284   C     0.74419   0.18053   0.13959   0.00000  Uiso   1.00
H285   H     0.76014   0.18133   0.17120   0.00000  Uiso   1.00
H286   H     0.73776   0.14340   0.13104   0.00000  Uiso   1.00
C287   C     0.70548   0.20720   0.14526   0.00000  Uiso   1.00
H288   H     0.69105   0.21412   0.11287   0.00000  Uiso   1.00
H289   H     0.68464   0.18672   0.16554   0.00000  Uiso   1.00
H290   H     0.71220   0.24128   0.16140   0.00000  Uiso   1.00
O291   O     0.77755   0.11663   0.39203   0.00000  Uiso   1.00
C292   C     0.74574   0.13010   0.36389   0.00000  Uiso   1.00
H293   H     0.75207   0.11759   0.33030   0.00000  Uiso   1.00
H294   H     0.74062   0.16852   0.36211   0.00000  Uiso   1.00
C295   C     0.70807   0.10569   0.37921   0.00000  Uiso   1.00
H296   H     0.70611   0.10775   0.41554   0.00000  Uiso   1.00
H297   H     0.68136   0.12288   0.36451   0.00000  Uiso   1.00
H298   H     0.70866   0.06810   0.36965   0.00000  Uiso   1.00
O299   O     0.88911   0.11661   0.10798   0.00000  Uiso   1.00
C300   C     0.92094   0.13007   0.13609   0.00000  Uiso   1.00
H301   H     0.91464   0.11756   0.16969   0.00000  Uiso   1.00
H302   H     0.92607   0.16849   0.13787   0.00000  Uiso   1.00
C303   C     0.95860   0.10565   0.12072   0.00000  Uiso   1.00
H304   H     0.96051   0.10771   0.08439   0.00000  Uiso   1.00
H305   H     0.98532   0.12285   0.13538   0.00000  Uiso   1.00
H306   H     0.95802   0.06807   0.13029   0.00000  Uiso   1.00
I307   I     0.71669   0.21256   0.44335   0.00000  Uiso   1.00
I308   I     0.94997   0.21256   0.05665   0.00000  Uiso   1.00
I309   I     0.70804   0.13631   0.04347   0.00000  Uiso   1.00
I310   I     0.95863   0.13630   0.45652   0.00000  Uiso   1.00
O311   O     0.70727   0.08152   0.24713   0.00000  Uiso   1.00
C312   C     0.70725   0.06607   0.20291   0.00000  Uiso   1.00
H313   H     0.73237   0.08270   0.18530   0.00000  Uiso   1.00
H314   H     0.67874   0.07375   0.18511   0.00000  Uiso   1.00
C315   C     0.71235   0.01326   0.20146   0.00000  Uiso   1.00
H316   H     0.68641   0.32961   0.21698   0.00000  Uiso   1.00
H317   H     0.71418   0.00124   0.16682   0.00000  Uiso   1.00
H318   H     0.73986   0.00277   0.21954   0.00000  Uiso   1.00
O319   O     0.95955   0.25216   0.24189   0.00000  Uiso   1.00
C320   C     0.95420   0.26147   0.19646   0.00000  Uiso   1.00
H321   H     0.93712   0.23294   0.17982   0.00000  Uiso   1.00
H322   H     0.98343   0.26588   0.18042   0.00000  Uiso   1.00
C323   C     0.93085   0.30674   0.18969   0.00000  Uiso   1.00
H324   H     0.94841   0.00375   0.20217   0.00000  Uiso   1.00
H325   H     0.92453   0.31213   0.15406   0.00000  Uiso   1.00
H326   H     0.90212   0.30488   0.20709   0.00000  Uiso   1.00
O327   O     0.95940   0.08152   0.25285   0.00000  Uiso   1.00
C328   C     0.95942   0.06605   0.29707   0.00000  Uiso   1.00
H329   H     0.93431   0.08270   0.31469   0.00000  Uiso   1.00
H330   H     0.98794   0.07370   0.31486   0.00000  Uiso   1.00
C331   C     0.95429   0.01325   0.29850   0.00000  Uiso   1.00
H332   H     0.98023   0.32958   0.28300   0.00000  Uiso   1.00
H333   H     0.95244   0.00122   0.33314   0.00000  Uiso   1.00
H334   H     0.92678   0.00278   0.28041   0.00000  Uiso   1.00
O335   O     0.70711   0.25216   0.25809   0.00000  Uiso   1.00
C336   C     0.71247   0.26149   0.30352   0.00000  Uiso   1.00
H337   H     0.72957   0.23297   0.32015   0.00000  Uiso   1.00
H338   H     0.68324   0.26588   0.31957   0.00000  Uiso   1.00
C339   C     0.73580   0.30677   0.31027   0.00000  Uiso   1.00
H340   H     0.71823   0.00376   0.29779   0.00000  Uiso   1.00
H341   H     0.74213   0.31217   0.34590   0.00000  Uiso   1.00
H342   H     0.76453   0.30492   0.29286   0.00000  Uiso   1.00
C343   C     0.08730   0.50002   0.25174   0.00000  Uiso   1.00
C344   C     0.24603   0.50002   0.24826   0.00000  Uiso   1.00
C345   C     0.09380   0.50071   0.01931   0.00000  Uiso   1.00
C346   C     0.23954   0.50070   0.48069   0.00000  Uiso   1.00
C347   C     0.02102   0.45758   0.24905   0.00000  Uiso   1.00
C348   C     0.31241   0.54288   0.24660   0.00000  Uiso   1.00
C349   C     0.31231   0.45758   0.25095   0.00000  Uiso   1.00
C350   C     0.02092   0.54288   0.25339   0.00000  Uiso   1.00
C351   C     0.29071   0.50013   0.24804   0.00000  Uiso   1.00
C352   C     0.04262   0.50014   0.25196   0.00000  Uiso   1.00
C353   C     0.15180   0.35813   0.21471   0.00000  Uiso   1.00
C354   C     0.18176   0.64187   0.28519   0.00000  Uiso   1.00
C355   C     0.18153   0.35813   0.28529   0.00000  Uiso   1.00
C356   C     0.15157   0.64187   0.21481   0.00000  Uiso   1.00
C357   C     0.16654   0.49993   0.16418   0.00000  Uiso   1.00
C358   C     0.16680   0.49993   0.33582   0.00000  Uiso   1.00
C359   C     0.20378   0.50906   0.40905   0.00000  Uiso   1.00
C360   C     0.12955   0.50906   0.09095   0.00000  Uiso   1.00
C361   C     0.16808   0.49953   0.38442   0.00000  Uiso   1.00
C362   C     0.16526   0.49953   0.11559   0.00000  Uiso   1.00
C363   C     0.13300   0.48804   0.40688   0.00000  Uiso   1.00
C364   C     0.20034   0.48803   0.09312   0.00000  Uiso   1.00
C365   C     0.13144   0.49832   0.45205   0.00000  Uiso   1.00
C366   C     0.20190   0.49831   0.04795   0.00000  Uiso   1.00
C367   C     0.16720   0.50017   0.47680   0.00000  Uiso   1.00
C368   C     0.16614   0.50017   0.02320   0.00000  Uiso   1.00
C369   C     0.20395   0.50204   0.45513   0.00000  Uiso   1.00
C370   C     0.12938   0.50204   0.04487   0.00000  Uiso   1.00
C371   C     0.09509   0.50386   0.47354   0.00000  Uiso   1.00
C372   C     0.23825   0.50385   0.02646   0.00000  Uiso   1.00
Cu373  Cu    0.16667   0.54689   0.25000   0.00000  Uiso   1.00
Cu374  Cu    0.16667   0.45311   0.25000   0.00000  Uiso   1.00
H375   H     0.13950   0.37667   0.18656   0.00000  Uiso   1.00
H376   H     0.19430   0.62332   0.31323   0.00000  Uiso   1.00
H377   H     0.19383   0.37666   0.31344   0.00000  Uiso   1.00
H378   H     0.13904   0.62332   0.18677   0.00000  Uiso   1.00
N379   N     0.16667   0.61736   0.25000   0.00000  Uiso   1.00
N380   N     0.16667   0.38264   0.25000   0.00000  Uiso   1.00
O381   O     0.10655   0.53958   0.25000   0.00000  Uiso   1.00
O382   O     0.22679   0.46042   0.25001   0.00000  Uiso   1.00
O383   O     0.22679   0.53958   0.25001   0.00000  Uiso   1.00
O384   O     0.10655   0.46042   0.25000   0.00000  Uiso   1.00
O385   O     0.16666   0.53960   0.18513   0.00000  Uiso   1.00
O386   O     0.16668   0.46040   0.31487   0.00000  Uiso   1.00
O387   O     0.16668   0.53960   0.31487   0.00000  Uiso   1.00
O388   O     0.16666   0.46040   0.18513   0.00000  Uiso   1.00
O389   O     0.23348   0.53735   0.39230   0.00000  Uiso   1.00
C390   C     0.25581   0.51389   0.36041   0.00000  Uiso   1.00
H391   H     0.23986   0.51469   0.32880   0.00000  Uiso   1.00
H392   H     0.26225   0.47676   0.36895   0.00000  Uiso   1.00
C393   C     0.29452   0.54058   0.35474   0.00000  Uiso   1.00
H394   H     0.30894   0.54749   0.38713   0.00000  Uiso   1.00
H395   H     0.31536   0.52010   0.33446   0.00000  Uiso   1.00
H396   H     0.28778   0.57466   0.33860   0.00000  Uiso   1.00
O397   O     0.09985   0.53734   0.10770   0.00000  Uiso   1.00
C398   C     0.07752   0.51387   0.13959   0.00000  Uiso   1.00
H399   H     0.09347   0.51466   0.17120   0.00000  Uiso   1.00
H400   H     0.07109   0.47673   0.13104   0.00000  Uiso   1.00
C401   C     0.03881   0.54053   0.14526   0.00000  Uiso   1.00
H402   H     0.02438   0.54745   0.11287   0.00000  Uiso   1.00
H403   H     0.01797   0.52005   0.16554   0.00000  Uiso   1.00
H404   H     0.04553   0.57462   0.16140   0.00000  Uiso   1.00
O405   O     0.11088   0.44996   0.39203   0.00000  Uiso   1.00
C406   C     0.07907   0.46343   0.36389   0.00000  Uiso   1.00
H407   H     0.08541   0.45092   0.33030   0.00000  Uiso   1.00
H408   H     0.07395   0.50185   0.36211   0.00000  Uiso   1.00
C409   C     0.04140   0.43902   0.37921   0.00000  Uiso   1.00
H410   H     0.03945   0.44108   0.41554   0.00000  Uiso   1.00
H411   H     0.01470   0.45622   0.36451   0.00000  Uiso   1.00
H412   H     0.04200   0.40144   0.36965   0.00000  Uiso   1.00
O413   O     0.22244   0.44995   0.10798   0.00000  Uiso   1.00
C414   C     0.25428   0.46340   0.13609   0.00000  Uiso   1.00
H415   H     0.24797   0.45090   0.16969   0.00000  Uiso   1.00
H416   H     0.25940   0.50182   0.13787   0.00000  Uiso   1.00
C417   C     0.29193   0.43899   0.12072   0.00000  Uiso   1.00
H418   H     0.29385   0.44104   0.08439   0.00000  Uiso   1.00
H419   H     0.31865   0.45619   0.13538   0.00000  Uiso   1.00
H420   H     0.29135   0.40141   0.13029   0.00000  Uiso   1.00
I421   I     0.05003   0.54589   0.44335   0.00000  Uiso   1.00
I422   I     0.28331   0.54590   0.05665   0.00000  Uiso   1.00
I423   I     0.04137   0.46964   0.04347   0.00000  Uiso   1.00
I424   I     0.29196   0.46964   0.45652   0.00000  Uiso   1.00
O425   O     0.04060   0.41485   0.24713   0.00000  Uiso   1.00
C426   C     0.04059   0.39940   0.20291   0.00000  Uiso   1.00
H427   H     0.06571   0.41604   0.18530   0.00000  Uiso   1.00
H428   H     0.01208   0.40708   0.18511   0.00000  Uiso   1.00
C429   C     0.04568   0.34660   0.20146   0.00000  Uiso   1.00
H430   H     0.01975   0.66294   0.21698   0.00000  Uiso   1.00
H431   H     0.04751   0.33457   0.16682   0.00000  Uiso   1.00
H432   H     0.07320   0.33610   0.21954   0.00000  Uiso   1.00
O433   O     0.29288   0.58549   0.24189   0.00000  Uiso   1.00
C434   C     0.28754   0.59481   0.19646   0.00000  Uiso   1.00
H435   H     0.27046   0.56627   0.17982   0.00000  Uiso   1.00
H436   H     0.31677   0.59921   0.18042   0.00000  Uiso   1.00
C437   C     0.26419   0.64008   0.18969   0.00000  Uiso   1.00
H438   H     0.28174   0.33708   0.20217   0.00000  Uiso   1.00
H439   H     0.25786   0.64546   0.15406   0.00000  Uiso   1.00
H440   H     0.23545   0.63821   0.20709   0.00000  Uiso   1.00
O441   O     0.29274   0.41485   0.25285   0.00000  Uiso   1.00
C442   C     0.29275   0.39938   0.29707   0.00000  Uiso   1.00
H443   H     0.26765   0.41604   0.31469   0.00000  Uiso   1.00
H444   H     0.32127   0.40703   0.31486   0.00000  Uiso   1.00
C445   C     0.28762   0.34658   0.29850   0.00000  Uiso   1.00
H446   H     0.31356   0.66291   0.28300   0.00000  Uiso   1.00
H447   H     0.28577   0.33455   0.33314   0.00000  Uiso   1.00
H448   H     0.26011   0.33612   0.28041   0.00000  Uiso   1.00
O449   O     0.04045   0.58550   0.25809   0.00000  Uiso   1.00
C450   C     0.04580   0.59482   0.30352   0.00000  Uiso   1.00
H451   H     0.06290   0.56630   0.32015   0.00000  Uiso   1.00
H452   H     0.01657   0.59921   0.31957   0.00000  Uiso   1.00
C453   C     0.06913   0.64010   0.31027   0.00000  Uiso   1.00
H454   H     0.05156   0.33710   0.29779   0.00000  Uiso   1.00
H455   H     0.07546   0.64550   0.34590   0.00000  Uiso   1.00
H456   H     0.09786   0.63825   0.29286   0.00000  Uiso   1.00
C457   C     0.42064   0.50002   0.25174   0.00000  Uiso   1.00
C458   C     0.57936   0.50002   0.24826   0.00000  Uiso   1.00
C459   C     0.42713   0.50071   0.01931   0.00000  Uiso   1.00
C460   C     0.57287   0.50070   0.48069   0.00000  Uiso   1.00
C461   C     0.35435   0.45758   0.24905   0.00000  Uiso   1.00
C462   C     0.64575   0.54288   0.24660   0.00000  Uiso   1.00
C463   C     0.64565   0.45758   0.25095   0.00000  Uiso   1.00
C464   C     0.35425   0.54288   0.25339   0.00000  Uiso   1.00
C465   C     0.62404   0.50013   0.24804   0.00000  Uiso   1.00
C466   C     0.37596   0.50014   0.25196   0.00000  Uiso   1.00
C467   C     0.48514   0.35813   0.21471   0.00000  Uiso   1.00
C468   C     0.51509   0.64187   0.28519   0.00000  Uiso   1.00
C469   C     0.51486   0.35813   0.28529   0.00000  Uiso   1.00
C470   C     0.48491   0.64187   0.21481   0.00000  Uiso   1.00
C471   C     0.49987   0.49993   0.16418   0.00000  Uiso   1.00
C472   C     0.50013   0.49993   0.33582   0.00000  Uiso   1.00
C473   C     0.53711   0.50906   0.40905   0.00000  Uiso   1.00
C474   C     0.46289   0.50906   0.09095   0.00000  Uiso   1.00
C475   C     0.50141   0.49953   0.38442   0.00000  Uiso   1.00
C476   C     0.49859   0.49953   0.11559   0.00000  Uiso   1.00
C477   C     0.46633   0.48804   0.40688   0.00000  Uiso   1.00
C478   C     0.53367   0.48803   0.09312   0.00000  Uiso   1.00
C479   C     0.46478   0.49832   0.45205   0.00000  Uiso   1.00
C480   C     0.53523   0.49831   0.04795   0.00000  Uiso   1.00
C481   C     0.50053   0.50017   0.47680   0.00000  Uiso   1.00
C482   C     0.49947   0.50017   0.02320   0.00000  Uiso   1.00
C483   C     0.53729   0.50204   0.45513   0.00000  Uiso   1.00
C484   C     0.46272   0.50204   0.04487   0.00000  Uiso   1.00
C485   C     0.42842   0.50386   0.47354   0.00000  Uiso   1.00
C486   C     0.57159   0.50385   0.02646   0.00000  Uiso   1.00
Cu487  Cu    0.50000   0.54689   0.25000   0.00000  Uiso   1.00
Cu488  Cu    0.50000   0.45311   0.25000   0.00000  Uiso   1.00
H489   H     0.47283   0.37667   0.18656   0.00000  Uiso   1.00
H490   H     0.52763   0.62332   0.31323   0.00000  Uiso   1.00
H491   H     0.52717   0.37666   0.31344   0.00000  Uiso   1.00
H492   H     0.47237   0.62332   0.18677   0.00000  Uiso   1.00
N493   N     0.50000   0.61736   0.25000   0.00000  Uiso   1.00
N494   N     0.50000   0.38264   0.25000   0.00000  Uiso   1.00
O495   O     0.43988   0.53958   0.25000   0.00000  Uiso   1.00
O496   O     0.56012   0.46042   0.25001   0.00000  Uiso   1.00
O497   O     0.56012   0.53958   0.25001   0.00000  Uiso   1.00
O498   O     0.43988   0.46042   0.25000   0.00000  Uiso   1.00
O499   O     0.49999   0.53960   0.18513   0.00000  Uiso   1.00
O500   O     0.50001   0.46040   0.31487   0.00000  Uiso   1.00
O501   O     0.50001   0.53960   0.31487   0.00000  Uiso   1.00
O502   O     0.49999   0.46040   0.18513   0.00000  Uiso   1.00
O503   O     0.56682   0.53735   0.39230   0.00000  Uiso   1.00
C504   C     0.58914   0.51389   0.36041   0.00000  Uiso   1.00
H505   H     0.57319   0.51469   0.32880   0.00000  Uiso   1.00
H506   H     0.59558   0.47676   0.36895   0.00000  Uiso   1.00
C507   C     0.62785   0.54058   0.35474   0.00000  Uiso   1.00
H508   H     0.64227   0.54749   0.38713   0.00000  Uiso   1.00
H509   H     0.64869   0.52010   0.33446   0.00000  Uiso   1.00
H510   H     0.62112   0.57466   0.33860   0.00000  Uiso   1.00
O511   O     0.43318   0.53734   0.10770   0.00000  Uiso   1.00
C512   C     0.41086   0.51387   0.13959   0.00000  Uiso   1.00
H513   H     0.42681   0.51466   0.17120   0.00000  Uiso   1.00
H514   H     0.40443   0.47673   0.13104   0.00000  Uiso   1.00
C515   C     0.37214   0.54053   0.14526   0.00000  Uiso   1.00
H516   H     0.35772   0.54745   0.11287   0.00000  Uiso   1.00
H517   H     0.35130   0.52005   0.16554   0.00000  Uiso   1.00
H518   H     0.37887   0.57462   0.16140   0.00000  Uiso   1.00
O519   O     0.44421   0.44996   0.39203   0.00000  Uiso   1.00
C520   C     0.41241   0.46343   0.36389   0.00000  Uiso   1.00
H521   H     0.41874   0.45092   0.33030   0.00000  Uiso   1.00
H522   H     0.40729   0.50185   0.36211   0.00000  Uiso   1.00
C523   C     0.37474   0.43902   0.37921   0.00000  Uiso   1.00
H524   H     0.37278   0.44108   0.41554   0.00000  Uiso   1.00
H525   H     0.34803   0.45622   0.36451   0.00000  Uiso   1.00
H526   H     0.37533   0.40144   0.36965   0.00000  Uiso   1.00
O527   O     0.55578   0.44995   0.10798   0.00000  Uiso   1.00
C528   C     0.58761   0.46340   0.13609   0.00000  Uiso   1.00
H529   H     0.58130   0.45090   0.16969   0.00000  Uiso   1.00
H530   H     0.59273   0.50182   0.13787   0.00000  Uiso   1.00
C531   C     0.62526   0.43899   0.12072   0.00000  Uiso   1.00
H532   H     0.62718   0.44104   0.08439   0.00000  Uiso   1.00
H533   H     0.65199   0.45619   0.13538   0.00000  Uiso   1.00
H534   H     0.62468   0.40141   0.13029   0.00000  Uiso   1.00
I535   I     0.38336   0.54589   0.44335   0.00000  Uiso   1.00
I536   I     0.61664   0.54590   0.05665   0.00000  Uiso   1.00
I537   I     0.37471   0.46964   0.04347   0.00000  Uiso   1.00
I538   I     0.62529   0.46964   0.45652   0.00000  Uiso   1.00
O539   O     0.37393   0.41485   0.24713   0.00000  Uiso   1.00
C540   C     0.37392   0.39940   0.20291   0.00000  Uiso   1.00
H541   H     0.39904   0.41604   0.18530   0.00000  Uiso   1.00
H542   H     0.34541   0.40708   0.18511   0.00000  Uiso   1.00
C543   C     0.37902   0.34660   0.20146   0.00000  Uiso   1.00
H544   H     0.35308   0.66294   0.21698   0.00000  Uiso   1.00
H545   H     0.38084   0.33457   0.16682   0.00000  Uiso   1.00
H546   H     0.40653   0.33610   0.21954   0.00000  Uiso   1.00
O547   O     0.62622   0.58549   0.24189   0.00000  Uiso   1.00
C548   C     0.62087   0.59481   0.19646   0.00000  Uiso   1.00
H549   H     0.60379   0.56627   0.17982   0.00000  Uiso   1.00
H550   H     0.65010   0.59921   0.18042   0.00000  Uiso   1.00
C551   C     0.59752   0.64008   0.18969   0.00000  Uiso   1.00
H552   H     0.61507   0.33708   0.20217   0.00000  Uiso   1.00
H553   H     0.59119   0.64546   0.15406   0.00000  Uiso   1.00
H554   H     0.56879   0.63821   0.20709   0.00000  Uiso   1.00
O555   O     0.62607   0.41485   0.25285   0.00000  Uiso   1.00
C556   C     0.62609   0.39938   0.29707   0.00000  Uiso   1.00
H557   H     0.60098   0.41604   0.31469   0.00000  Uiso   1.00
H558   H     0.65460   0.40703   0.31486   0.00000  Uiso   1.00
C559   C     0.62096   0.34658   0.29850   0.00000  Uiso   1.00
H560   H     0.64689   0.66291   0.28300   0.00000  Uiso   1.00
H561   H     0.61910   0.33455   0.33314   0.00000  Uiso   1.00
H562   H     0.59345   0.33612   0.28041   0.00000  Uiso   1.00
O563   O     0.37378   0.58550   0.25809   0.00000  Uiso   1.00
C564   C     0.37913   0.59482   0.30352   0.00000  Uiso   1.00
H565   H     0.39623   0.56630   0.32015   0.00000  Uiso   1.00
H566   H     0.34991   0.59921   0.31957   0.00000  Uiso   1.00
C567   C     0.40246   0.64010   0.31027   0.00000  Uiso   1.00
H568   H     0.38490   0.33710   0.29779   0.00000  Uiso   1.00
H569   H     0.40880   0.64550   0.34590   0.00000  Uiso   1.00
H570   H     0.43120   0.63825   0.29286   0.00000  Uiso   1.00
C571   C     0.75397   0.50002   0.25174   0.00000  Uiso   1.00
C572   C     0.91270   0.50002   0.24826   0.00000  Uiso   1.00
C573   C     0.76047   0.50071   0.01931   0.00000  Uiso   1.00
C574   C     0.90620   0.50070   0.48069   0.00000  Uiso   1.00
C575   C     0.68769   0.45758   0.24905   0.00000  Uiso   1.00
C576   C     0.97908   0.54288   0.24660   0.00000  Uiso   1.00
C577   C     0.97898   0.45758   0.25095   0.00000  Uiso   1.00
C578   C     0.68759   0.54288   0.25339   0.00000  Uiso   1.00
C579   C     0.95738   0.50013   0.24804   0.00000  Uiso   1.00
C580   C     0.70929   0.50014   0.25196   0.00000  Uiso   1.00
C581   C     0.81847   0.35813   0.21471   0.00000  Uiso   1.00
C582   C     0.84843   0.64187   0.28519   0.00000  Uiso   1.00
C583   C     0.84820   0.35813   0.28529   0.00000  Uiso   1.00
C584   C     0.81824   0.64187   0.21481   0.00000  Uiso   1.00
C585   C     0.83321   0.49993   0.16418   0.00000  Uiso   1.00
C586   C     0.83346   0.49993   0.33582   0.00000  Uiso   1.00
C587   C     0.87045   0.50906   0.40905   0.00000  Uiso   1.00
C588   C     0.79622   0.50906   0.09095   0.00000  Uiso   1.00
C589   C     0.83474   0.49953   0.38442   0.00000  Uiso   1.00
C590   C     0.83193   0.49953   0.11559   0.00000  Uiso   1.00
C591   C     0.79967   0.48804   0.40688   0.00000  Uiso   1.00
C592   C     0.86700   0.48803   0.09312   0.00000  Uiso   1.00
C593   C     0.79811   0.49832   0.45205   0.00000  Uiso   1.00
C594   C     0.86856   0.49831   0.04795   0.00000  Uiso   1.00
C595   C     0.83387   0.50017   0.47680   0.00000  Uiso   1.00
C596   C     0.83280   0.50017   0.02320   0.00000  Uiso   1.00
C597   C     0.87062   0.50204   0.45513   0.00000  Uiso   1.00
C598   C     0.79605   0.50204   0.04487   0.00000  Uiso   1.00
C599   C     0.76175   0.50386   0.47354   0.00000  Uiso   1.00
C600   C     0.90492   0.50385   0.02646   0.00000  Uiso   1.00
Cu601  Cu    0.83333   0.54689   0.25000   0.00000  Uiso   1.00
Cu602  Cu    0.83333   0.45311   0.25000   0.00000  Uiso   1.00
H603   H     0.80616   0.37667   0.18656   0.00000  Uiso   1.00
H604   H     0.86096   0.62332   0.31323   0.00000  Uiso   1.00
H605   H     0.86050   0.37666   0.31344   0.00000  Uiso   1.00
H606   H     0.80570   0.62332   0.18677   0.00000  Uiso   1.00
N607   N     0.83333   0.61736   0.25000   0.00000  Uiso   1.00
N608   N     0.83333   0.38264   0.25000   0.00000  Uiso   1.00
O609   O     0.77321   0.53958   0.25000   0.00000  Uiso   1.00
O610   O     0.89345   0.46042   0.25001   0.00000  Uiso   1.00
O611   O     0.89345   0.53958   0.25001   0.00000  Uiso   1.00
O612   O     0.77321   0.46042   0.25000   0.00000  Uiso   1.00
O613   O     0.83332   0.53960   0.18513   0.00000  Uiso   1.00
O614   O     0.83334   0.46040   0.31487   0.00000  Uiso   1.00
O615   O     0.83334   0.53960   0.31487   0.00000  Uiso   1.00
O616   O     0.83332   0.46040   0.18513   0.00000  Uiso   1.00
O617   O     0.90015   0.53735   0.39230   0.00000  Uiso   1.00
C618   C     0.92248   0.51389   0.36041   0.00000  Uiso   1.00
H619   H     0.90652   0.51469   0.32880   0.00000  Uiso   1.00
H620   H     0.92892   0.47676   0.36895   0.00000  Uiso   1.00
C621   C     0.96118   0.54058   0.35474   0.00000  Uiso   1.00
H622   H     0.97561   0.54749   0.38713   0.00000  Uiso   1.00
H623   H     0.98203   0.52010   0.33446   0.00000  Uiso   1.00
H624   H     0.95445   0.57466   0.33860   0.00000  Uiso   1.00
O625   O     0.76651   0.53734   0.10770   0.00000  Uiso   1.00
C626   C     0.74419   0.51387   0.13959   0.00000  Uiso   1.00
H627   H     0.76014   0.51466   0.17120   0.00000  Uiso   1.00
H628   H     0.73776   0.47673   0.13104   0.00000  Uiso   1.00
C629   C     0.70548   0.54053   0.14526   0.00000  Uiso   1.00
H630   H     0.69105   0.54745   0.11287   0.00000  Uiso   1.00
H631   H     0.68464   0.52005   0.16554   0.00000  Uiso   1.00
H632   H     0.71220   0.57462   0.16140   0.00000  Uiso   1.00
O633   O     0.77755   0.44996   0.39203   0.00000  Uiso   1.00
C634   C     0.74574   0.46343   0.36389   0.00000  Uiso   1.00
H635   H     0.75207   0.45092   0.33030   0.00000  Uiso   1.00
H636   H     0.74062   0.50185   0.36211   0.00000  Uiso   1.00
C637   C     0.70807   0.43902   0.37921   0.00000  Uiso   1.00
H638   H     0.70611   0.44108   0.41554   0.00000  Uiso   1.00
H639   H     0.68136   0.45622   0.36451   0.00000  Uiso   1.00
H640   H     0.70866   0.40144   0.36965   0.00000  Uiso   1.00
O641   O     0.88911   0.44995   0.10798   0.00000  Uiso   1.00
C642   C     0.92094   0.46340   0.13609   0.00000  Uiso   1.00
H643   H     0.91464   0.45090   0.16969   0.00000  Uiso   1.00
H644   H     0.92607   0.50182   0.13787   0.00000  Uiso   1.00
C645   C     0.95860   0.43899   0.12072   0.00000  Uiso   1.00
H646   H     0.96051   0.44104   0.08439   0.00000  Uiso   1.00
H647   H     0.98532   0.45619   0.13538   0.00000  Uiso   1.00
H648   H     0.95802   0.40141   0.13029   0.00000  Uiso   1.00
I649   I     0.71669   0.54589   0.44335   0.00000  Uiso   1.00
I650   I     0.94997   0.54590   0.05665   0.00000  Uiso   1.00
I651   I     0.70804   0.46964   0.04347   0.00000  Uiso   1.00
I652   I     0.95863   0.46964   0.45652   0.00000  Uiso   1.00
O653   O     0.70727   0.41485   0.24713   0.00000  Uiso   1.00
C654   C     0.70725   0.39940   0.20291   0.00000  Uiso   1.00
H655   H     0.73237   0.41604   0.18530   0.00000  Uiso   1.00
H656   H     0.67874   0.40708   0.18511   0.00000  Uiso   1.00
C657   C     0.71235   0.34660   0.20146   0.00000  Uiso   1.00
H658   H     0.68641   0.66294   0.21698   0.00000  Uiso   1.00
H659   H     0.71418   0.33457   0.16682   0.00000  Uiso   1.00
H660   H     0.73986   0.33610   0.21954   0.00000  Uiso   1.00
O661   O     0.95955   0.58549   0.24189   0.00000  Uiso   1.00
C662   C     0.95420   0.59481   0.19646   0.00000  Uiso   1.00
H663   H     0.93712   0.56627   0.17982   0.00000  Uiso   1.00
H664   H     0.98343   0.59921   0.18042   0.00000  Uiso   1.00
C665   C     0.93085   0.64008   0.18969   0.00000  Uiso   1.00
H666   H     0.94841   0.33708   0.20217   0.00000  Uiso   1.00
H667   H     0.92453   0.64546   0.15406   0.00000  Uiso   1.00
H668   H     0.90212   0.63821   0.20709   0.00000  Uiso   1.00
O669   O     0.95940   0.41485   0.25285   0.00000  Uiso   1.00
C670   C     0.95942   0.39938   0.29707   0.00000  Uiso   1.00
H671   H     0.93431   0.41604   0.31469   0.00000  Uiso   1.00
H672   H     0.98794   0.40703   0.31486   0.00000  Uiso   1.00
C673   C     0.95429   0.34658   0.29850   0.00000  Uiso   1.00
H674   H     0.98023   0.66291   0.28300   0.00000  Uiso   1.00
H675   H     0.95244   0.33455   0.33314   0.00000  Uiso   1.00
H676   H     0.92678   0.33612   0.28041   0.00000  Uiso   1.00
O677   O     0.70711   0.58550   0.25809   0.00000  Uiso   1.00
C678   C     0.71247   0.59482   0.30352   0.00000  Uiso   1.00
H679   H     0.72957   0.56630   0.32015   0.00000  Uiso   1.00
H680   H     0.68324   0.59921   0.31957   0.00000  Uiso   1.00
C681   C     0.73580   0.64010   0.31027   0.00000  Uiso   1.00
H682   H     0.71823   0.33710   0.29779   0.00000  Uiso   1.00
H683   H     0.74213   0.64550   0.34590   0.00000  Uiso   1.00
H684   H     0.76453   0.63825   0.29286   0.00000  Uiso   1.00
C685   C     0.08730   0.83335   0.25174   0.00000  Uiso   1.00
C686   C     0.24603   0.83335   0.24826   0.00000  Uiso   1.00
C687   C     0.09380   0.83404   0.01931   0.00000  Uiso   1.00
C688   C     0.23954   0.83403   0.48069   0.00000  Uiso   1.00
C689   C     0.02102   0.79092   0.24905   0.00000  Uiso   1.00
C690   C     0.31241   0.87622   0.24660   0.00000  Uiso   1.00
C691   C     0.31231   0.79092   0.25095   0.00000  Uiso   1.00
C692   C     0.02092   0.87622   0.25339   0.00000  Uiso   1.00
C693   C     0.29071   0.83347   0.24804   0.00000  Uiso   1.00
C694   C     0.04262   0.83347   0.25196   0.00000  Uiso   1.00
C695   C     0.15180   0.69146   0.21471   0.00000  Uiso   1.00
C696   C     0.18176   0.97520   0.28519   0.00000  Uiso   1.00
C697   C     0.18153   0.69146   0.28529   0.00000  Uiso   1.00
C698   C     0.15157   0.97520   0.21481   0.00000  Uiso   1.00
C699   C     0.16654   0.83327   0.16418   0.00000  Uiso   1.00
C700   C     0.16680   0.83327   0.33582   0.00000  Uiso   1.00
C701   C     0.20378   0.84240   0.40905   0.00000  Uiso   1.00
C702   C     0.12955   0.84240   0.09095   0.00000  Uiso   1.00
C703   C     0.16808   0.83286   0.38442   0.00000  Uiso   1.00
C704   C     0.16526   0.83286   0.11559   0.00000  Uiso   1.00
C705   C     0.13300   0.82137   0.40688   0.00000  Uiso   1.00
C706   C     0.20034   0.82137   0.09312   0.00000  Uiso   1.00
C707   C     0.13144   0.83165   0.45205   0.00000  Uiso   1.00
C708   C     0.20190   0.83164   0.04795   0.00000  Uiso   1.00
C709   C     0.16720   0.83350   0.47680   0.00000  Uiso   1.00
C710   C     0.16614   0.83350   0.02320   0.00000  Uiso   1.00
C711   C     0.20395   0.83537   0.45513   0.00000  Uiso   1.00
C712   C     0.12938   0.83537   0.04487   0.00000  Uiso   1.00
C713   C     0.09509   0.83719   0.47354   0.00000  Uiso   1.00
C714   C     0.23825   0.83718   0.02646   0.00000  Uiso   1.00
Cu715  Cu    0.16667   0.88022   0.25000   0.00000  Uiso   1.00
Cu716  Cu    0.16667   0.78645   0.25000   0.00000  Uiso   1.00
H717   H     0.13950   0.71000   0.18656   0.00000  Uiso   1.00
H718   H     0.19430   0.95665   0.31323   0.00000  Uiso   1.00
H719   H     0.19383   0.71000   0.31344   0.00000  Uiso   1.00
H720   H     0.13904   0.95666   0.18677   0.00000  Uiso   1.00
N721   N     0.16667   0.95069   0.25000   0.00000  Uiso   1.00
N722   N     0.16667   0.71598   0.25000   0.00000  Uiso   1.00
O723   O     0.10655   0.87291   0.25000   0.00000  Uiso   1.00
O724   O     0.22679   0.79375   0.25001   0.00000  Uiso   1.00
O725   O     0.22679   0.87291   0.25001   0.00000  Uiso   1.00
O726   O     0.10655   0.79375   0.25000   0.00000  Uiso   1.00
O727   O     0.16666   0.87293   0.18513   0.00000  Uiso   1.00
O728   O     0.16668   0.79373   0.31487   0.00000  Uiso   1.00
O729   O     0.16668   0.87293   0.31487   0.00000  Uiso   1.00
O730   O     0.16666   0.79373   0.18513   0.00000  Uiso   1.00
O731   O     0.23348   0.87068   0.39230   0.00000  Uiso   1.00
C732   C     0.25581   0.84723   0.36041   0.00000  Uiso   1.00
H733   H     0.23986   0.84803   0.32880   0.00000  Uiso   1.00
H734   H     0.26225   0.81009   0.36895   0.00000  Uiso   1.00
C735   C     0.29452   0.87391   0.35474   0.00000  Uiso   1.00
H736   H     0.30894   0.88083   0.38713   0.00000  Uiso   1.00
H737   H     0.31536   0.85344   0.33446   0.00000  Uiso   1.00
H738   H     0.28778   0.90799   0.33860   0.00000  Uiso   1.00
O739   O     0.09985   0.87067   0.10770   0.00000  Uiso   1.00
C740   C     0.07752   0.84720   0.13959   0.00000  Uiso   1.00
H741   H     0.09347   0.84800   0.17120   0.00000  Uiso   1.00
H742   H     0.07109   0.81006   0.13104   0.00000  Uiso   1.00
C743   C     0.03881   0.87387   0.14526   0.00000  Uiso   1.00
H744   H     0.02438   0.88078   0.11287   0.00000  Uiso   1.00
H745   H     0.01797   0.85338   0.16554   0.00000  Uiso   1.00
H746   H     0.04553   0.90795   0.16140   0.00000  Uiso   1.00
O747   O     0.11088   0.78330   0.39203   0.00000  Uiso   1.00
C748   C     0.07907   0.79676   0.36389   0.00000  Uiso   1.00
H749   H     0.08541   0.78426   0.33030   0.00000  Uiso   1.00
H750   H     0.07395   0.83518   0.36211   0.00000  Uiso   1.00
C751   C     0.04140   0.77235   0.37921   0.00000  Uiso   1.00
H752   H     0.03945   0.77442   0.41554   0.00000  Uiso   1.00
H753   H     0.01470   0.78955   0.36451   0.00000  Uiso   1.00
H754   H     0.04200   0.73477   0.36965   0.00000  Uiso   1.00
O755   O     0.22244   0.78328   0.10798   0.00000  Uiso   1.00
C756   C     0.25428   0.79674   0.13609   0.00000  Uiso   1.00
H757   H     0.24797   0.78423   0.16969   0.00000  Uiso   1.00
H758   H     0.25940   0.83516   0.13787   0.00000  Uiso   1.00
C759   C     0.29193   0.77232   0.12072   0.00000  Uiso   1.00
H760   H     0.29385   0.77438   0.08439   0.00000  Uiso   1.00
H761   H     0.31865   0.78952   0.13538   0.00000  Uiso   1.00
H762   H     0.29135   0.73474   0.13029   0.00000  Uiso   1.00
I763   I     0.05003   0.87923   0.44335   0.00000  Uiso   1.00
I764   I     0.28331   0.87923   0.05665   0.00000  Uiso   1.00
I765   I     0.04137   0.80297   0.04347   0.00000  Uiso   1.00
I766   I     0.29196   0.80297   0.45652   0.00000  Uiso   1.00
O767   O     0.04060   0.74818   0.24713   0.00000  Uiso   1.00
C768   C     0.04059   0.73273   0.20291   0.00000  Uiso   1.00
H769   H     0.06571   0.74937   0.18530   0.00000  Uiso   1.00
H770   H     0.01208   0.74041   0.18511   0.00000  Uiso   1.00
C771   C     0.04568   0.67993   0.20146   0.00000  Uiso   1.00
H772   H     0.01975   0.99627   0.21698   0.00000  Uiso   1.00
H773   H     0.04751   0.66791   0.16682   0.00000  Uiso   1.00
H774   H     0.07320   0.66944   0.21954   0.00000  Uiso   1.00
O775   O     0.29288   0.91883   0.24189   0.00000  Uiso   1.00
C776   C     0.28754   0.92814   0.19646   0.00000  Uiso   1.00
H777   H     0.27046   0.89961   0.17982   0.00000  Uiso   1.00
H778   H     0.31677   0.93255   0.18042   0.00000  Uiso   1.00
C779   C     0.26419   0.97341   0.18969   0.00000  Uiso   1.00
H780   H     0.28174   0.67042   0.20217   0.00000  Uiso   1.00
H781   H     0.25786   0.97880   0.15406   0.00000  Uiso   1.00
H782   H     0.23545   0.97154   0.20709   0.00000  Uiso   1.00
O783   O     0.29274   0.74818   0.25285   0.00000  Uiso   1.00
C784   C     0.29275   0.73272   0.29707   0.00000  Uiso   1.00
H785   H     0.26765   0.74937   0.31469   0.00000  Uiso   1.00
H786   H     0.32127   0.74036   0.31486   0.00000  Uiso   1.00
C787   C     0.28762   0.67992   0.29850   0.00000  Uiso   1.00
H788   H     0.31356   0.99624   0.28300   0.00000  Uiso   1.00
H789   H     0.28577   0.66789   0.33314   0.00000  Uiso   1.00
H790   H     0.26011   0.66945   0.28041   0.00000  Uiso   1.00
O791   O     0.04045   0.91883   0.25809   0.00000  Uiso   1.00
C792   C     0.04580   0.92815   0.30352   0.00000  Uiso   1.00
H793   H     0.06290   0.89963   0.32015   0.00000  Uiso   1.00
H794   H     0.01657   0.93254   0.31957   0.00000  Uiso   1.00
C795   C     0.06913   0.97344   0.31027   0.00000  Uiso   1.00
H796   H     0.05156   0.67043   0.29779   0.00000  Uiso   1.00
H797   H     0.07546   0.97883   0.34590   0.00000  Uiso   1.00
H798   H     0.09786   0.97158   0.29286   0.00000  Uiso   1.00
C799   C     0.42064   0.83335   0.25174   0.00000  Uiso   1.00
C800   C     0.57936   0.83335   0.24826   0.00000  Uiso   1.00
C801   C     0.42713   0.83404   0.01931   0.00000  Uiso   1.00
C802   C     0.57287   0.83403   0.48069   0.00000  Uiso   1.00
C803   C     0.35435   0.79092   0.24905   0.00000  Uiso   1.00
C804   C     0.64575   0.87622   0.24660   0.00000  Uiso   1.00
C805   C     0.64565   0.79092   0.25095   0.00000  Uiso   1.00
C806   C     0.35425   0.87622   0.25339   0.00000  Uiso   1.00
C807   C     0.62404   0.83347   0.24804   0.00000  Uiso   1.00
C808   C     0.37596   0.83347   0.25196   0.00000  Uiso   1.00
C809   C     0.48514   0.69146   0.21471   0.00000  Uiso   1.00
C810   C     0.51509   0.97520   0.28519   0.00000  Uiso   1.00
C811   C     0.51486   0.69146   0.28529   0.00000  Uiso   1.00
C812   C     0.48491   0.97520   0.21481   0.00000  Uiso   1.00
C813   C     0.49987   0.83327   0.16418   0.00000  Uiso   1.00
C814   C     0.50013   0.83327   0.33582   0.00000  Uiso   1.00
C815   C     0.53711   0.84240   0.40905   0.00000  Uiso   1.00
C816   C     0.46289   0.84240   0.09095   0.00000  Uiso   1.00
C817   C     0.50141   0.83286   0.38442   0.00000  Uiso   1.00
C818   C     0.49859   0.83286   0.11559   0.00000  Uiso   1.00
C819   C     0.46633   0.82137   0.40688   0.00000  Uiso   1.00
C820   C     0.53367   0.82137   0.09312   0.00000  Uiso   1.00
C821   C     0.46478   0.83165   0.45205   0.00000  Uiso   1.00
C822   C     0.53523   0.83164   0.04795   0.00000  Uiso   1.00
C823   C     0.50053   0.83350   0.47680   0.00000  Uiso   1.00
C824   C     0.49947   0.83350   0.02320   0.00000  Uiso   1.00
C825   C     0.53729   0.83537   0.45513   0.00000  Uiso   1.00
C826   C     0.46272   0.83537   0.04487   0.00000  Uiso   1.00
C827   C     0.42842   0.83719   0.47354   0.00000  Uiso   1.00
C828   C     0.57159   0.83718   0.02646   0.00000  Uiso   1.00
Cu829  Cu    0.50000   0.88022   0.25000   0.00000  Uiso   1.00
Cu830  Cu    0.50000   0.78645   0.25000   0.00000  Uiso   1.00
H831   H     0.47283   0.71000   0.18656   0.00000  Uiso   1.00
H832   H     0.52763   0.95665   0.31323   0.00000  Uiso   1.00
H833   H     0.52717   0.71000   0.31344   0.00000  Uiso   1.00
H834   H     0.47237   0.95666   0.18677   0.00000  Uiso   1.00
N835   N     0.50000   0.95069   0.25000   0.00000  Uiso   1.00
N836   N     0.50000   0.71598   0.25000   0.00000  Uiso   1.00
O837   O     0.43988   0.87291   0.25000   0.00000  Uiso   1.00
O838   O     0.56012   0.79375   0.25001   0.00000  Uiso   1.00
O839   O     0.56012   0.87291   0.25001   0.00000  Uiso   1.00
O840   O     0.43988   0.79375   0.25000   0.00000  Uiso   1.00
O841   O     0.49999   0.87293   0.18513   0.00000  Uiso   1.00
O842   O     0.50001   0.79373   0.31487   0.00000  Uiso   1.00
O843   O     0.50001   0.87293   0.31487   0.00000  Uiso   1.00
O844   O     0.49999   0.79373   0.18513   0.00000  Uiso   1.00
O845   O     0.56682   0.87068   0.39230   0.00000  Uiso   1.00
C846   C     0.58914   0.84723   0.36041   0.00000  Uiso   1.00
H847   H     0.57319   0.84803   0.32880   0.00000  Uiso   1.00
H848   H     0.59558   0.81009   0.36895   0.00000  Uiso   1.00
C849   C     0.62785   0.87391   0.35474   0.00000  Uiso   1.00
H850   H     0.64227   0.88083   0.38713   0.00000  Uiso   1.00
H851   H     0.64869   0.85344   0.33446   0.00000  Uiso   1.00
H852   H     0.62112   0.90799   0.33860   0.00000  Uiso   1.00
O853   O     0.43318   0.87067   0.10770   0.00000  Uiso   1.00
C854   C     0.41086   0.84720   0.13959   0.00000  Uiso   1.00
H855   H     0.42681   0.84800   0.17120   0.00000  Uiso   1.00
H856   H     0.40443   0.81006   0.13104   0.00000  Uiso   1.00
C857   C     0.37214   0.87387   0.14526   0.00000  Uiso   1.00
H858   H     0.35772   0.88078   0.11287   0.00000  Uiso   1.00
H859   H     0.35130   0.85338   0.16554   0.00000  Uiso   1.00
H860   H     0.37887   0.90795   0.16140   0.00000  Uiso   1.00
O861   O     0.44421   0.78330   0.39203   0.00000  Uiso   1.00
C862   C     0.41241   0.79676   0.36389   0.00000  Uiso   1.00
H863   H     0.41874   0.78426   0.33030   0.00000  Uiso   1.00
H864   H     0.40729   0.83518   0.36211   0.00000  Uiso   1.00
C865   C     0.37474   0.77235   0.37921   0.00000  Uiso   1.00
H866   H     0.37278   0.77442   0.41554   0.00000  Uiso   1.00
H867   H     0.34803   0.78955   0.36451   0.00000  Uiso   1.00
H868   H     0.37533   0.73477   0.36965   0.00000  Uiso   1.00
O869   O     0.55578   0.78328   0.10798   0.00000  Uiso   1.00
C870   C     0.58761   0.79674   0.13609   0.00000  Uiso   1.00
H871   H     0.58130   0.78423   0.16969   0.00000  Uiso   1.00
H872   H     0.59273   0.83516   0.13787   0.00000  Uiso   1.00
C873   C     0.62526   0.77232   0.12072   0.00000  Uiso   1.00
H874   H     0.62718   0.77438   0.08439   0.00000  Uiso   1.00
H875   H     0.65199   0.78952   0.13538   0.00000  Uiso   1.00
H876   H     0.62468   0.73474   0.13029   0.00000  Uiso   1.00
I877   I     0.38336   0.87923   0.44335   0.00000  Uiso   1.00
I878   I     0.61664   0.87923   0.05665   0.00000  Uiso   1.00
I879   I     0.37471   0.80297   0.04347   0.00000  Uiso   1.00
I880   I     0.62529   0.80297   0.45652   0.00000  Uiso   1.00
O881   O     0.37393   0.74818   0.24713   0.00000  Uiso   1.00
C882   C     0.37392   0.73273   0.20291   0.00000  Uiso   1.00
H883   H     0.39904   0.74937   0.18530   0.00000  Uiso   1.00
H884   H     0.34541   0.74041   0.18511   0.00000  Uiso   1.00
C885   C     0.37902   0.67993   0.20146   0.00000  Uiso   1.00
H886   H     0.35308   0.99627   0.21698   0.00000  Uiso   1.00
H887   H     0.38084   0.66791   0.16682   0.00000  Uiso   1.00
H888   H     0.40653   0.66944   0.21954   0.00000  Uiso   1.00
O889   O     0.62622   0.91883   0.24189   0.00000  Uiso   1.00
C890   C     0.62087   0.92814   0.19646   0.00000  Uiso   1.00
H891   H     0.60379   0.89961   0.17982   0.00000  Uiso   1.00
H892   H     0.65010   0.93255   0.18042   0.00000  Uiso   1.00
C893   C     0.59752   0.97341   0.18969   0.00000  Uiso   1.00
H894   H     0.61507   0.67042   0.20217   0.00000  Uiso   1.00
H895   H     0.59119   0.97880   0.15406   0.00000  Uiso   1.00
H896   H     0.56879   0.97154   0.20709   0.00000  Uiso   1.00
O897   O     0.62607   0.74818   0.25285   0.00000  Uiso   1.00
C898   C     0.62609   0.73272   0.29707   0.00000  Uiso   1.00
H899   H     0.60098   0.74937   0.31469   0.00000  Uiso   1.00
H900   H     0.65460   0.74036   0.31486   0.00000  Uiso   1.00
C901   C     0.62096   0.67992   0.29850   0.00000  Uiso   1.00
H902   H     0.64689   0.99624   0.28300   0.00000  Uiso   1.00
H903   H     0.61910   0.66789   0.33314   0.00000  Uiso   1.00
H904   H     0.59345   0.66945   0.28041   0.00000  Uiso   1.00
O905   O     0.37378   0.91883   0.25809   0.00000  Uiso   1.00
C906   C     0.37913   0.92815   0.30352   0.00000  Uiso   1.00
H907   H     0.39623   0.89963   0.32015   0.00000  Uiso   1.00
H908   H     0.34991   0.93254   0.31957   0.00000  Uiso   1.00
C909   C     0.40246   0.97344   0.31027   0.00000  Uiso   1.00
H910   H     0.38490   0.67043   0.29779   0.00000  Uiso   1.00
H911   H     0.40880   0.97883   0.34590   0.00000  Uiso   1.00
H912   H     0.43120   0.97158   0.29286   0.00000  Uiso   1.00
C913   C     0.75397   0.83335   0.25174   0.00000  Uiso   1.00
C914   C     0.91270   0.83335   0.24826   0.00000  Uiso   1.00
C915   C     0.76047   0.83404   0.01931   0.00000  Uiso   1.00
C916   C     0.90620   0.83403   0.48069   0.00000  Uiso   1.00
C917   C     0.68769   0.79092   0.24905   0.00000  Uiso   1.00
C918   C     0.97908   0.87622   0.24660   0.00000  Uiso   1.00
C919   C     0.97898   0.79092   0.25095   0.00000  Uiso   1.00
C920   C     0.68759   0.87622   0.25339   0.00000  Uiso   1.00
C921   C     0.95738   0.83347   0.24804   0.00000  Uiso   1.00
C922   C     0.70929   0.83347   0.25196   0.00000  Uiso   1.00
C923   C     0.81847   0.69146   0.21471   0.00000  Uiso   1.00
C924   C     0.84843   0.97520   0.28519   0.00000  Uiso   1.00
C925   C     0.84820   0.69146   0.28529   0.00000  Uiso   1.00
C926   C     0.81824   0.97520   0.21481   0.00000  Uiso   1.00
C927   C     0.83321   0.83327   0.16418   0.00000  Uiso   1.00
C928   C     0.83346   0.83327   0.33582   0.00000  Uiso   1.00
C929   C     0.87045   0.84240   0.40905   0.00000  Uiso   1.00
C930   C     0.79622   0.84240   0.09095   0.00000  Uiso   1.00
C931   C     0.83474   0.83286   0.38442   0.00000  Uiso   1.00
C932   C     0.83193   0.83286   0.11559   0.00000  Uiso   1.00
C933   C     0.79967   0.82137   0.40688   0.00000  Uiso   1.00
C934   C     0.86700   0.82137   0.09312   0.00000  Uiso   1.00
C935   C     0.79811   0.83165   0.45205   0.00000  Uiso   1.00
C936   C     0.86856   0.83164   0.04795   0.00000  Uiso   1.00
C937   C     0.83387   0.83350   0.47680   0.00000  Uiso   1.00
C938   C     0.83280   0.83350   0.02320   0.00000  Uiso   1.00
C939   C     0.87062   0.83537   0.45513   0.00000  Uiso   1.00
C940   C     0.79605   0.83537   0.04487   0.00000  Uiso   1.00
C941   C     0.76175   0.83719   0.47354   0.00000  Uiso   1.00
C942   C     0.90492   0.83718   0.02646   0.00000  Uiso   1.00
Cu943  Cu    0.83333   0.88022   0.25000   0.00000  Uiso   1.00
Cu944  Cu    0.83333   0.78645   0.25000   0.00000  Uiso   1.00
H945   H     0.80616   0.71000   0.18656   0.00000  Uiso   1.00
H946   H     0.86096   0.95665   0.31323   0.00000  Uiso   1.00
H947   H     0.86050   0.71000   0.31344   0.00000  Uiso   1.00
H948   H     0.80570   0.95666   0.18677   0.00000  Uiso   1.00
N949   N     0.83333   0.95069   0.25000   0.00000  Uiso   1.00
N950   N     0.83333   0.71598   0.25000   0.00000  Uiso   1.00
O951   O     0.77321   0.87291   0.25000   0.00000  Uiso   1.00
O952   O     0.89345   0.79375   0.25001   0.00000  Uiso   1.00
O953   O     0.89345   0.87291   0.25001   0.00000  Uiso   1.00
O954   O     0.77321   0.79375   0.25000   0.00000  Uiso   1.00
O955   O     0.83332   0.87293   0.18513   0.00000  Uiso   1.00
O956   O     0.83334   0.79373   0.31487   0.00000  Uiso   1.00
O957   O     0.83334   0.87293   0.31487   0.00000  Uiso   1.00
O958   O     0.83332   0.79373   0.18513   0.00000  Uiso   1.00
O959   O     0.90015   0.87068   0.39230   0.00000  Uiso   1.00
C960   C     0.92248   0.84723   0.36041   0.00000  Uiso   1.00
H961   H     0.90652   0.84803   0.32880   0.00000  Uiso   1.00
H962   H     0.92892   0.81009   0.36895   0.00000  Uiso   1.00
C963   C     0.96118   0.87391   0.35474   0.00000  Uiso   1.00
H964   H     0.97561   0.88083   0.38713   0.00000  Uiso   1.00
H965   H     0.98203   0.85344   0.33446   0.00000  Uiso   1.00
H966   H     0.95445   0.90799   0.33860   0.00000  Uiso   1.00
O967   O     0.76651   0.87067   0.10770   0.00000  Uiso   1.00
C968   C     0.74419   0.84720   0.13959   0.00000  Uiso   1.00
H969   H     0.76014   0.84800   0.17120   0.00000  Uiso   1.00
H970   H     0.73776   0.81006   0.13104   0.00000  Uiso   1.00
C971   C     0.70548   0.87387   0.14526   0.00000  Uiso   1.00
H972   H     0.69105   0.88078   0.11287   0.00000  Uiso   1.00
H973   H     0.68464   0.85338   0.16554   0.00000  Uiso   1.00
H974   H     0.71220   0.90795   0.16140   0.00000  Uiso   1.00
O975   O     0.77755   0.78330   0.39203   0.00000  Uiso   1.00
C976   C     0.74574   0.79676   0.36389   0.00000  Uiso   1.00
H977   H     0.75207   0.78426   0.33030   0.00000  Uiso   1.00
H978   H     0.74062   0.83518   0.36211   0.00000  Uiso   1.00
C979   C     0.70807   0.77235   0.37921   0.00000  Uiso   1.00
H980   H     0.70611   0.77442   0.41554   0.00000  Uiso   1.00
H981   H     0.68136   0.78955   0.36451   0.00000  Uiso   1.00
H982   H     0.70866   0.73477   0.36965   0.00000  Uiso   1.00
O983   O     0.88911   0.78328   0.10798   0.00000  Uiso   1.00
C984   C     0.92094   0.79674   0.13609   0.00000  Uiso   1.00
H985   H     0.91464   0.78423   0.16969   0.00000  Uiso   1.00
H986   H     0.92607   0.83516   0.13787   0.00000  Uiso   1.00
C987   C     0.95860   0.77232   0.12072   0.00000  Uiso   1.00
H988   H     0.96051   0.77438   0.08439   0.00000  Uiso   1.00
H989   H     0.98532   0.78952   0.13538   0.00000  Uiso   1.00
H990   H     0.95802   0.73474   0.13029   0.00000  Uiso   1.00
I991   I     0.71669   0.87923   0.44335   0.00000  Uiso   1.00
I992   I     0.94997   0.87923   0.05665   0.00000  Uiso   1.00
I993   I     0.70804   0.80297   0.04347   0.00000  Uiso   1.00
I994   I     0.95863   0.80297   0.45652   0.00000  Uiso   1.00
O995   O     0.70727   0.74818   0.24713   0.00000  Uiso   1.00
C996   C     0.70725   0.73273   0.20291   0.00000  Uiso   1.00
H997   H     0.73237   0.74937   0.18530   0.00000  Uiso   1.00
H998   H     0.67874   0.74041   0.18511   0.00000  Uiso   1.00
C999   C     0.71235   0.67993   0.20146   0.00000  Uiso   1.00
H1000  H     0.68641   0.99627   0.21698   0.00000  Uiso   1.00
H1001  H     0.71418   0.66791   0.16682   0.00000  Uiso   1.00
H1002  H     0.73986   0.66944   0.21954   0.00000  Uiso   1.00
O1003  O     0.95955   0.91883   0.24189   0.00000  Uiso   1.00
C1004  C     0.95420   0.92814   0.19646   0.00000  Uiso   1.00
H1005  H     0.93712   0.89961   0.17982   0.00000  Uiso   1.00
H1006  H     0.98343   0.93255   0.18042   0.00000  Uiso   1.00
C1007  C     0.93085   0.97341   0.18969   0.00000  Uiso   1.00
H1008  H     0.94841   0.67042   0.20217   0.00000  Uiso   1.00
H1009  H     0.92453   0.97880   0.15406   0.00000  Uiso   1.00
H1010  H     0.90212   0.97154   0.20709   0.00000  Uiso   1.00
O1011  O     0.95940   0.74818   0.25285   0.00000  Uiso   1.00
C1012  C     0.95942   0.73272   0.29707   0.00000  Uiso   1.00
H1013  H     0.93431   0.74937   0.31469   0.00000  Uiso   1.00
H1014  H     0.98794   0.74036   0.31486   0.00000  Uiso   1.00
C1015  C     0.95429   0.67992   0.29850   0.00000  Uiso   1.00
H1016  H     0.98023   0.99624   0.28300   0.00000  Uiso   1.00
H1017  H     0.95244   0.66789   0.33314   0.00000  Uiso   1.00
H1018  H     0.92678   0.66945   0.28041   0.00000  Uiso   1.00
O1019  O     0.70711   0.91883   0.25809   0.00000  Uiso   1.00
C1020  C     0.71247   0.92815   0.30352   0.00000  Uiso   1.00
H1021  H     0.72957   0.89963   0.32015   0.00000  Uiso   1.00
H1022  H     0.68324   0.93254   0.31957   0.00000  Uiso   1.00
C1023  C     0.73580   0.97344   0.31027   0.00000  Uiso   1.00
H1024  H     0.71823   0.67043   0.29779   0.00000  Uiso   1.00
H1025  H     0.74213   0.97883   0.34590   0.00000  Uiso   1.00
H1026  H     0.76453   0.97158   0.29286   0.00000  Uiso   1.00
C1027  C     0.08730   0.16669   0.75174   0.00000  Uiso   1.00
C1028  C     0.24603   0.16669   0.74826   0.00000  Uiso   1.00
C1029  C     0.09380   0.16737   0.51931   0.00000  Uiso   1.00
C1030  C     0.23954   0.16737   0.98069   0.00000  Uiso   1.00
C1031  C     0.02102   0.12425   0.74905   0.00000  Uiso   1.00
C1032  C     0.31241   0.20955   0.74660   0.00000  Uiso   1.00
C1033  C     0.31231   0.12425   0.75095   0.00000  Uiso   1.00
C1034  C     0.02092   0.20955   0.75339   0.00000  Uiso   1.00
C1035  C     0.29071   0.16680   0.74804   0.00000  Uiso   1.00
C1036  C     0.04262   0.16680   0.75196   0.00000  Uiso   1.00
C1037  C     0.15180   0.02479   0.71471   0.00000  Uiso   1.00
C1038  C     0.18176   0.30853   0.78519   0.00000  Uiso   1.00
C1039  C     0.18153   0.02479   0.78529   0.00000  Uiso   1.00
C1040  C     0.15157   0.30853   0.71481   0.00000  Uiso   1.00
C1041  C     0.16654   0.16660   0.66418   0.00000  Uiso   1.00
C1042  C     0.16680   0.16660   0.83582   0.00000  Uiso   1.00
C1043  C     0.20378   0.17573   0.90905   0.00000  Uiso   1.00
C1044  C     0.12955   0.17573   0.59095   0.00000  Uiso   1.00
C1045  C     0.16808   0.16620   0.88442   0.00000  Uiso   1.00
C1046  C     0.16526   0.16620   0.61559   0.00000  Uiso   1.00
C1047  C     0.13300   0.15471   0.90688   0.00000  Uiso   1.00
C1048  C     0.20034   0.15470   0.59312   0.00000  Uiso   1.00
C1049  C     0.13144   0.16499   0.95205   0.00000  Uiso   1.00
C1050  C     0.20190   0.16498   0.54795   0.00000  Uiso   1.00
C1051  C     0.16720   0.16684   0.97680   0.00000  Uiso   1.00
C1052  C     0.16614   0.16684   0.52320   0.00000  Uiso   1.00
C1053  C     0.20395   0.16870   0.95513   0.00000  Uiso   1.00
C1054  C     0.12938   0.16871   0.54487   0.00000  Uiso   1.00
C1055  C     0.09509   0.17052   0.97354   0.00000  Uiso   1.00
C1056  C     0.23825   0.17051   0.52646   0.00000  Uiso   1.00
Cu1057 Cu    0.16667   0.21355   0.75000   0.00000  Uiso   1.00
Cu1058 Cu    0.16667   0.11978   0.75000   0.00000  Uiso   1.00
H1059  H     0.13950   0.04333   0.68656   0.00000  Uiso   1.00
H1060  H     0.19430   0.28999   0.81323   0.00000  Uiso   1.00
H1061  H     0.19383   0.04333   0.81344   0.00000  Uiso   1.00
H1062  H     0.13904   0.28999   0.68677   0.00000  Uiso   1.00
N1063  N     0.16667   0.28402   0.75000   0.00000  Uiso   1.00
N1064  N     0.16667   0.04931   0.75000   0.00000  Uiso   1.00
O1065  O     0.10655   0.20625   0.75000   0.00000  Uiso   1.00
O1066  O     0.22679   0.12709   0.75001   0.00000  Uiso   1.00
O1067  O     0.22679   0.20625   0.75001   0.00000  Uiso   1.00
O1068  O     0.10655   0.12709   0.75000   0.00000  Uiso   1.00
O1069  O     0.16666   0.20627   0.68513   0.00000  Uiso   1.00
O1070  O     0.16668   0.12707   0.81487   0.00000  Uiso   1.00
O1071  O     0.16668   0.20627   0.81487   0.00000  Uiso   1.00
O1072  O     0.16666   0.12707   0.68513   0.00000  Uiso   1.00
O1073  O     0.23348   0.20402   0.89230   0.00000  Uiso   1.00
C1074  C     0.25581   0.18056   0.86041   0.00000  Uiso   1.00
H1075  H     0.23986   0.18136   0.82880   0.00000  Uiso   1.00
H1076  H     0.26225   0.14342   0.86895   0.00000  Uiso   1.00
C1077  C     0.29452   0.20724   0.85474   0.00000  Uiso   1.00
H1078  H     0.30894   0.21416   0.88713   0.00000  Uiso   1.00
H1079  H     0.31536   0.18677   0.83446   0.00000  Uiso   1.00
H1080  H     0.28778   0.24133   0.83860   0.00000  Uiso   1.00
O1081  O     0.09985   0.20400   0.60770   0.00000  Uiso   1.00
C1082  C     0.07752   0.18053   0.63959   0.00000  Uiso   1.00
H1083  H     0.09347   0.18133   0.67120   0.00000  Uiso   1.00
H1084  H     0.07109   0.14340   0.63104   0.00000  Uiso   1.00
C1085  C     0.03881   0.20720   0.64526   0.00000  Uiso   1.00
H1086  H     0.02438   0.21412   0.61287   0.00000  Uiso   1.00
H1087  H     0.01797   0.18672   0.66554   0.00000  Uiso   1.00
H1088  H     0.04553   0.24128   0.66140   0.00000  Uiso   1.00
O1089  O     0.11088   0.11663   0.89203   0.00000  Uiso   1.00
C1090  C     0.07907   0.13010   0.86389   0.00000  Uiso   1.00
H1091  H     0.08541   0.11759   0.83030   0.00000  Uiso   1.00
H1092  H     0.07395   0.16852   0.86211   0.00000  Uiso   1.00
C1093  C     0.04140   0.10569   0.87921   0.00000  Uiso   1.00
H1094  H     0.03945   0.10775   0.91554   0.00000  Uiso   1.00
H1095  H     0.01470   0.12288   0.86451   0.00000  Uiso   1.00
H1096  H     0.04200   0.06810   0.86965   0.00000  Uiso   1.00
O1097  O     0.22244   0.11661   0.60798   0.00000  Uiso   1.00
C1098  C     0.25428   0.13007   0.63609   0.00000  Uiso   1.00
H1099  H     0.24797   0.11756   0.66969   0.00000  Uiso   1.00
H1100  H     0.25940   0.16849   0.63787   0.00000  Uiso   1.00
C1101  C     0.29193   0.10565   0.62072   0.00000  Uiso   1.00
H1102  H     0.29385   0.10771   0.58439   0.00000  Uiso   1.00
H1103  H     0.31865   0.12285   0.63538   0.00000  Uiso   1.00
H1104  H     0.29135   0.06807   0.63029   0.00000  Uiso   1.00
I1105  I     0.05003   0.21256   0.94335   0.00000  Uiso   1.00
I1106  I     0.28331   0.21256   0.55665   0.00000  Uiso   1.00
I1107  I     0.04137   0.13631   0.54347   0.00000  Uiso   1.00
I1108  I     0.29196   0.13630   0.95652   0.00000  Uiso   1.00
O1109  O     0.04060   0.08152   0.74713   0.00000  Uiso   1.00
C1110  C     0.04059   0.06607   0.70291   0.00000  Uiso   1.00
H1111  H     0.06571   0.08270   0.68530   0.00000  Uiso   1.00
H1112  H     0.01208   0.07375   0.68511   0.00000  Uiso   1.00
C1113  C     0.04568   0.01326   0.70146   0.00000  Uiso   1.00
H1114  H     0.01975   0.32961   0.71698   0.00000  Uiso   1.00
H1115  H     0.04751   0.00124   0.66682   0.00000  Uiso   1.00
H1116  H     0.07320   0.00277   0.71954   0.00000  Uiso   1.00
O1117  O     0.29288   0.25216   0.74189   0.00000  Uiso   1.00
C1118  C     0.28754   0.26147   0.69646   0.00000  Uiso   1.00
H1119  H     0.27046   0.23294   0.67982   0.00000  Uiso   1.00
H1120  H     0.31677   0.26588   0.68042   0.00000  Uiso   1.00
C1121  C     0.26419   0.30674   0.68969   0.00000  Uiso   1.00
H1122  H     0.28174   0.00375   0.70217   0.00000  Uiso   1.00
H1123  H     0.25786   0.31213   0.65406   0.00000  Uiso   1.00
H1124  H     0.23545   0.30488   0.70709   0.00000  Uiso   1.00
O1125  O     0.29274   0.08152   0.75285   0.00000  Uiso   1.00
C1126  C     0.29275   0.06605   0.79707   0.00000  Uiso   1.00
H1127  H     0.26765   0.08270   0.81469   0.00000  Uiso   1.00
H1128  H     0.32127   0.07370   0.81486   0.00000  Uiso   1.00
C1129  C     0.28762   0.01325   0.79850   0.00000  Uiso   1.00
H1130  H     0.31356   0.32958   0.78300   0.00000  Uiso   1.00
H1131  H     0.28577   0.00122   0.83314   0.00000  Uiso   1.00
H1132  H     0.26011   0.00278   0.78041   0.00000  Uiso   1.00
O1133  O     0.04045   0.25216   0.75809   0.00000  Uiso   1.00
C1134  C     0.04580   0.26149   0.80352   0.00000  Uiso   1.00
H1135  H     0.06290   0.23297   0.82015   0.00000  Uiso   1.00
H1136  H     0.01657   0.26588   0.81957   0.00000  Uiso   1.00
C1137  C     0.06913   0.30677   0.81027   0.00000  Uiso   1.00
H1138  H     0.05156   0.00376   0.79779   0.00000  Uiso   1.00
H1139  H     0.07546   0.31217   0.84590   0.00000  Uiso   1.00
H1140  H     0.09786   0.30492   0.79286   0.00000  Uiso   1.00
C1141  C     0.42064   0.16669   0.75174   0.00000  Uiso   1.00
C1142  C     0.57936   0.16669   0.74826   0.00000  Uiso   1.00
C1143  C     0.42713   0.16737   0.51931   0.00000  Uiso   1.00
C1144  C     0.57287   0.16737   0.98069   0.00000  Uiso   1.00
C1145  C     0.35435   0.12425   0.74905   0.00000  Uiso   1.00
C1146  C     0.64575   0.20955   0.74660   0.00000  Uiso   1.00
C1147  C     0.64565   0.12425   0.75095   0.00000  Uiso   1.00
C1148  C     0.35425   0.20955   0.75339   0.00000  Uiso   1.00
C1149  C     0.62404   0.16680   0.74804   0.00000  Uiso   1.00
C1150  C     0.37596   0.16680   0.75196   0.00000  Uiso   1.00
C1151  C     0.48514   0.02479   0.71471   0.00000  Uiso   1.00
C1152  C     0.51509   0.30853   0.78519   0.00000  Uiso   1.00
C1153  C     0.51486   0.02479   0.78529   0.00000  Uiso   1.00
C1154  C     0.48491   0.30853   0.71481   0.00000  Uiso   1.00
C1155  C     0.49987   0.16660   0.66418   0.00000  Uiso   1.00
C1156  C     0.50013   0.16660   0.83582   0.00000  Uiso   1.00
C1157  C     0.53711   0.17573   0.90905   0.00000  Uiso   1.00
C1158  C     0.46289   0.17573   0.59095   0.00000  Uiso   1.00
C1159  C     0.50141   0.16620   0.88442   0.00000  Uiso   1.00
C1160  C     0.49859   0.16620   0.61559   0.00000  Uiso   1.00
C1161  C     0.46633   0.15471   0.90688   0.00000  Uiso   1.00
C1162  C     0.53367   0.15470   0.59312   0.00000  Uiso   1.00
C1163  C     0.46478   0.16499   0.95205   0.00000  Uiso   1.00
C1164  C     0.53523   0.16498   0.54795   0.00000  Uiso   1.00
C1165  C     0.50053   0.16684   0.97680   0.00000  Uiso   1.00
C1166  C     0.49947   0.16684   0.52320   0.00000  Uiso   1.00
C1167  C     0.53729   0.16870   0.95513   0.00000  Uiso   1.00
C1168  C     0.46272   0.16871   0.54487   0.00000  Uiso   1.00
C1169  C     0.42842   0.17052   0.97354   0.00000  Uiso   1.00
C1170  C     0.57159   0.17051   0.52646   0.00000  Uiso   1.00
Cu1171 Cu    0.50000   0.21355   0.75000   0.00000  Uiso   1.00
Cu1172 Cu    0.50000   0.11978   0.75000   0.00000  Uiso   1.00
H1173  H     0.47283   0.04333   0.68656   0.00000  Uiso   1.00
H1174  H     0.52763   0.28999   0.81323   0.00000  Uiso   1.00
H1175  H     0.52717   0.04333   0.81344   0.00000  Uiso   1.00
H1176  H     0.47237   0.28999   0.68677   0.00000  Uiso   1.00
N1177  N     0.50000   0.28402   0.75000   0.00000  Uiso   1.00
N1178  N     0.50000   0.04931   0.75000   0.00000  Uiso   1.00
O1179  O     0.43988   0.20625   0.75000   0.00000  Uiso   1.00
O1180  O     0.56012   0.12709   0.75001   0.00000  Uiso   1.00
O1181  O     0.56012   0.20625   0.75001   0.00000  Uiso   1.00
O1182  O     0.43988   0.12709   0.75000   0.00000  Uiso   1.00
O1183  O     0.49999   0.20627   0.68513   0.00000  Uiso   1.00
O1184  O     0.50001   0.12707   0.81487   0.00000  Uiso   1.00
O1185  O     0.50001   0.20627   0.81487   0.00000  Uiso   1.00
O1186  O     0.49999   0.12707   0.68513   0.00000  Uiso   1.00
O1187  O     0.56682   0.20402   0.89230   0.00000  Uiso   1.00
C1188  C     0.58914   0.18056   0.86041   0.00000  Uiso   1.00
H1189  H     0.57319   0.18136   0.82880   0.00000  Uiso   1.00
H1190  H     0.59558   0.14342   0.86895   0.00000  Uiso   1.00
C1191  C     0.62785   0.20724   0.85474   0.00000  Uiso   1.00
H1192  H     0.64227   0.21416   0.88713   0.00000  Uiso   1.00
H1193  H     0.64869   0.18677   0.83446   0.00000  Uiso   1.00
H1194  H     0.62112   0.24133   0.83860   0.00000  Uiso   1.00
O1195  O     0.43318   0.20400   0.60770   0.00000  Uiso   1.00
C1196  C     0.41086   0.18053   0.63959   0.00000  Uiso   1.00
H1197  H     0.42681   0.18133   0.67120   0.00000  Uiso   1.00
H1198  H     0.40443   0.14340   0.63104   0.00000  Uiso   1.00
C1199  C     0.37214   0.20720   0.64526   0.00000  Uiso   1.00
H1200  H     0.35772   0.21412   0.61287   0.00000  Uiso   1.00
H1201  H     0.35130   0.18672   0.66554   0.00000  Uiso   1.00
H1202  H     0.37887   0.24128   0.66140   0.00000  Uiso   1.00
O1203  O     0.44421   0.11663   0.89203   0.00000  Uiso   1.00
C1204  C     0.41241   0.13010   0.86389   0.00000  Uiso   1.00
H1205  H     0.41874   0.11759   0.83030   0.00000  Uiso   1.00
H1206  H     0.40729   0.16852   0.86211   0.00000  Uiso   1.00
C1207  C     0.37474   0.10569   0.87921   0.00000  Uiso   1.00
H1208  H     0.37278   0.10775   0.91554   0.00000  Uiso   1.00
H1209  H     0.34803   0.12288   0.86451   0.00000  Uiso   1.00
H1210  H     0.37533   0.06810   0.86965   0.00000  Uiso   1.00
O1211  O     0.55578   0.11661   0.60798   0.00000  Uiso   1.00
C1212  C     0.58761   0.13007   0.63609   0.00000  Uiso   1.00
H1213  H     0.58130   0.11756   0.66969   0.00000  Uiso   1.00
H1214  H     0.59273   0.16849   0.63787   0.00000  Uiso   1.00
C1215  C     0.62526   0.10565   0.62072   0.00000  Uiso   1.00
H1216  H     0.62718   0.10771   0.58439   0.00000  Uiso   1.00
H1217  H     0.65199   0.12285   0.63538   0.00000  Uiso   1.00
H1218  H     0.62468   0.06807   0.63029   0.00000  Uiso   1.00
I1219  I     0.38336   0.21256   0.94335   0.00000  Uiso   1.00
I1220  I     0.61664   0.21256   0.55665   0.00000  Uiso   1.00
I1221  I     0.37471   0.13631   0.54347   0.00000  Uiso   1.00
I1222  I     0.62529   0.13630   0.95652   0.00000  Uiso   1.00
O1223  O     0.37393   0.08152   0.74713   0.00000  Uiso   1.00
C1224  C     0.37392   0.06607   0.70291   0.00000  Uiso   1.00
H1225  H     0.39904   0.08270   0.68530   0.00000  Uiso   1.00
H1226  H     0.34541   0.07375   0.68511   0.00000  Uiso   1.00
C1227  C     0.37902   0.01326   0.70146   0.00000  Uiso   1.00
H1228  H     0.35308   0.32961   0.71698   0.00000  Uiso   1.00
H1229  H     0.38084   0.00124   0.66682   0.00000  Uiso   1.00
H1230  H     0.40653   0.00277   0.71954   0.00000  Uiso   1.00
O1231  O     0.62622   0.25216   0.74189   0.00000  Uiso   1.00
C1232  C     0.62087   0.26147   0.69646   0.00000  Uiso   1.00
H1233  H     0.60379   0.23294   0.67982   0.00000  Uiso   1.00
H1234  H     0.65010   0.26588   0.68042   0.00000  Uiso   1.00
C1235  C     0.59752   0.30674   0.68969   0.00000  Uiso   1.00
H1236  H     0.61507   0.00375   0.70217   0.00000  Uiso   1.00
H1237  H     0.59119   0.31213   0.65406   0.00000  Uiso   1.00
H1238  H     0.56879   0.30488   0.70709   0.00000  Uiso   1.00
O1239  O     0.62607   0.08152   0.75285   0.00000  Uiso   1.00
C1240  C     0.62609   0.06605   0.79707   0.00000  Uiso   1.00
H1241  H     0.60098   0.08270   0.81469   0.00000  Uiso   1.00
H1242  H     0.65460   0.07370   0.81486   0.00000  Uiso   1.00
C1243  C     0.62096   0.01325   0.79850   0.00000  Uiso   1.00
H1244  H     0.64689   0.32958   0.78300   0.00000  Uiso   1.00
H1245  H     0.61910   0.00122   0.83314   0.00000  Uiso   1.00
H1246  H     0.59345   0.00278   0.78041   0.00000  Uiso   1.00
O1247  O     0.37378   0.25216   0.75809   0.00000  Uiso   1.00
C1248  C     0.37913   0.26149   0.80352   0.00000  Uiso   1.00
H1249  H     0.39623   0.23297   0.82015   0.00000  Uiso   1.00
H1250  H     0.34991   0.26588   0.81957   0.00000  Uiso   1.00
C1251  C     0.40246   0.30677   0.81027   0.00000  Uiso   1.00
H1252  H     0.38490   0.00376   0.79779   0.00000  Uiso   1.00
H1253  H     0.40880   0.31217   0.84590   0.00000  Uiso   1.00
H1254  H     0.43120   0.30492   0.79286   0.00000  Uiso   1.00
C1255  C     0.75397   0.16669   0.75174   0.00000  Uiso   1.00
C1256  C     0.91270   0.16669   0.74826   0.00000  Uiso   1.00
C1257  C     0.76047   0.16737   0.51931   0.00000  Uiso   1.00
C1258  C     0.90620   0.16737   0.98069   0.00000  Uiso   1.00
C1259  C     0.68769   0.12425   0.74905   0.00000  Uiso   1.00
C1260  C     0.97908   0.20955   0.74660   0.00000  Uiso   1.00
C1261  C     0.97898   0.12425   0.75095   0.00000  Uiso   1.00
C1262  C     0.68759   0.20955   0.75339   0.00000  Uiso   1.00
C1263  C     0.95738   0.16680   0.74804   0.00000  Uiso   1.00
C1264  C     0.70929   0.16680   0.75196   0.00000  Uiso   1.00
C1265  C     0.81847   0.02479   0.71471   0.00000  Uiso   1.00
C1266  C     0.84843   0.30853   0.78519   0.00000  Uiso   1.00
C1267  C     0.84820   0.02479   0.78529   0.00000  Uiso   1.00
C1268  C     0.81824   0.30853   0.71481   0.00000  Uiso   1.00
C1269  C     0.83321   0.16660   0.66418   0.00000  Uiso   1.00
C1270  C     0.83346   0.16660   0.83582   0.00000  Uiso   1.00
C1271  C     0.87045   0.17573   0.90905   0.00000  Uiso   1.00
C1272  C     0.79622   0.17573   0.59095   0.00000  Uiso   1.00
C1273  C     0.83474   0.16620   0.88442   0.00000  Uiso   1.00
C1274  C     0.83193   0.16620   0.61559   0.00000  Uiso   1.00
C1275  C     0.79967   0.15471   0.90688   0.00000  Uiso   1.00
C1276  C     0.86700   0.15470   0.59312   0.00000  Uiso   1.00
C1277  C     0.79811   0.16499   0.95205   0.00000  Uiso   1.00
C1278  C     0.86856   0.16498   0.54795   0.00000  Uiso   1.00
C1279  C     0.83387   0.16684   0.97680   0.00000  Uiso   1.00
C1280  C     0.83280   0.16684   0.52320   0.00000  Uiso   1.00
C1281  C     0.87062   0.16870   0.95513   0.00000  Uiso   1.00
C1282  C     0.79605   0.16871   0.54487   0.00000  Uiso   1.00
C1283  C     0.76175   0.17052   0.97354   0.00000  Uiso   1.00
C1284  C     0.90492   0.17051   0.52646   0.00000  Uiso   1.00
Cu1285 Cu    0.83333   0.21355   0.75000   0.00000  Uiso   1.00
Cu1286 Cu    0.83333   0.11978   0.75000   0.00000  Uiso   1.00
H1287  H     0.80616   0.04333   0.68656   0.00000  Uiso   1.00
H1288  H     0.86096   0.28999   0.81323   0.00000  Uiso   1.00
H1289  H     0.86050   0.04333   0.81344   0.00000  Uiso   1.00
H1290  H     0.80570   0.28999   0.68677   0.00000  Uiso   1.00
N1291  N     0.83333   0.28402   0.75000   0.00000  Uiso   1.00
N1292  N     0.83333   0.04931   0.75000   0.00000  Uiso   1.00
O1293  O     0.77321   0.20625   0.75000   0.00000  Uiso   1.00
O1294  O     0.89345   0.12709   0.75001   0.00000  Uiso   1.00
O1295  O     0.89345   0.20625   0.75001   0.00000  Uiso   1.00
O1296  O     0.77321   0.12709   0.75000   0.00000  Uiso   1.00
O1297  O     0.83332   0.20627   0.68513   0.00000  Uiso   1.00
O1298  O     0.83334   0.12707   0.81487   0.00000  Uiso   1.00
O1299  O     0.83334   0.20627   0.81487   0.00000  Uiso   1.00
O1300  O     0.83332   0.12707   0.68513   0.00000  Uiso   1.00
O1301  O     0.90015   0.20402   0.89230   0.00000  Uiso   1.00
C1302  C     0.92248   0.18056   0.86041   0.00000  Uiso   1.00
H1303  H     0.90652   0.18136   0.82880   0.00000  Uiso   1.00
H1304  H     0.92892   0.14342   0.86895   0.00000  Uiso   1.00
C1305  C     0.96118   0.20724   0.85474   0.00000  Uiso   1.00
H1306  H     0.97561   0.21416   0.88713   0.00000  Uiso   1.00
H1307  H     0.98203   0.18677   0.83446   0.00000  Uiso   1.00
H1308  H     0.95445   0.24133   0.83860   0.00000  Uiso   1.00
O1309  O     0.76651   0.20400   0.60770   0.00000  Uiso   1.00
C1310  C     0.74419   0.18053   0.63959   0.00000  Uiso   1.00
H1311  H     0.76014   0.18133   0.67120   0.00000  Uiso   1.00
H1312  H     0.73776   0.14340   0.63104   0.00000  Uiso   1.00
C1313  C     0.70548   0.20720   0.64526   0.00000  Uiso   1.00
H1314  H     0.69105   0.21412   0.61287   0.00000  Uiso   1.00
H1315  H     0.68464   0.18672   0.66554   0.00000  Uiso   1.00
H1316  H     0.71220   0.24128   0.66140   0.00000  Uiso   1.00
O1317  O     0.77755   0.11663   0.89203   0.00000  Uiso   1.00
C1318  C     0.74574   0.13010   0.86389   0.00000  Uiso   1.00
H1319  H     0.75207   0.11759   0.83030   0.00000  Uiso   1.00
H1320  H     0.74062   0.16852   0.86211   0.00000  Uiso   1.00
C1321  C     0.70807   0.10569   0.87921   0.00000  Uiso   1.00
H1322  H     0.70611   0.10775   0.91554   0.00000  Uiso   1.00
H1323  H     0.68136   0.12288   0.86451   0.00000  Uiso   1.00
H1324  H     0.70866   0.06810   0.86965   0.00000  Uiso   1.00
O1325  O     0.88911   0.11661   0.60798   0.00000  Uiso   1.00
C1326  C     0.92094   0.13007   0.63609   0.00000  Uiso   1.00
H1327  H     0.91464   0.11756   0.66969   0.00000  Uiso   1.00
H1328  H     0.92607   0.16849   0.63787   0.00000  Uiso   1.00
C1329  C     0.95860   0.10565   0.62072   0.00000  Uiso   1.00
H1330  H     0.96051   0.10771   0.58439   0.00000  Uiso   1.00
H1331  H     0.98532   0.12285   0.63538   0.00000  Uiso   1.00
H1332  H     0.95802   0.06807   0.63029   0.00000  Uiso   1.00
I1333  I     0.71669   0.21256   0.94335   0.00000  Uiso   1.00
I1334  I     0.94997   0.21256   0.55665   0.00000  Uiso   1.00
I1335  I     0.70804   0.13631   0.54347   0.00000  Uiso   1.00
I1336  I     0.95863   0.13630   0.95652   0.00000  Uiso   1.00
O1337  O     0.70727   0.08152   0.74713   0.00000  Uiso   1.00
C1338  C     0.70725   0.06607   0.70291   0.00000  Uiso   1.00
H1339  H     0.73237   0.08270   0.68530   0.00000  Uiso   1.00
H1340  H     0.67874   0.07375   0.68511   0.00000  Uiso   1.00
C1341  C     0.71235   0.01326   0.70146   0.00000  Uiso   1.00
H1342  H     0.68641   0.32961   0.71698   0.00000  Uiso   1.00
H1343  H     0.71418   0.00124   0.66682   0.00000  Uiso   1.00
H1344  H     0.73986   0.00277   0.71954   0.00000  Uiso   1.00
O1345  O     0.95955   0.25216   0.74189   0.00000  Uiso   1.00
C1346  C     0.95420   0.26147   0.69646   0.00000  Uiso   1.00
H1347  H     0.93712   0.23294   0.67982   0.00000  Uiso   1.00
H1348  H     0.98343   0.26588   0.68042   0.00000  Uiso   1.00
C1349  C     0.93085   0.30674   0.68969   0.00000  Uiso   1.00
H1350  H     0.94841   0.00375   0.70217   0.00000  Uiso   1.00
H1351  H     0.92453   0.31213   0.65406   0.00000  Uiso   1.00
H1352  H     0.90212   0.30488   0.70709   0.00000  Uiso   1.00
O1353  O     0.95940   0.08152   0.75285   0.00000  Uiso   1.00
C1354  C     0.95942   0.06605   0.79707   0.00000  Uiso   1.00
H1355  H     0.93431   0.08270   0.81469   0.00000  Uiso   1.00
H1356  H     0.98794   0.07370   0.81486   0.00000  Uiso   1.00
C1357  C     0.95429   0.01325   0.79850   0.00000  Uiso   1.00
H1358  H     0.98023   0.32958   0.78300   0.00000  Uiso   1.00
H1359  H     0.95244   0.00122   0.83314   0.00000  Uiso   1.00
H1360  H     0.92678   0.00278   0.78041   0.00000  Uiso   1.00
O1361  O     0.70711   0.25216   0.75809   0.00000  Uiso   1.00
C1362  C     0.71247   0.26149   0.80352   0.00000  Uiso   1.00
H1363  H     0.72957   0.23297   0.82015   0.00000  Uiso   1.00
H1364  H     0.68324   0.26588   0.81957   0.00000  Uiso   1.00
C1365  C     0.73580   0.30677   0.81027   0.00000  Uiso   1.00
H1366  H     0.71823   0.00376   0.79779   0.00000  Uiso   1.00
H1367  H     0.74213   0.31217   0.84590   0.00000  Uiso   1.00
H1368  H     0.76453   0.30492   0.79286   0.00000  Uiso   1.00
C1369  C     0.08730   0.50002   0.75174   0.00000  Uiso   1.00
C1370  C     0.24603   0.50002   0.74826   0.00000  Uiso   1.00
C1371  C     0.09380   0.50071   0.51931   0.00000  Uiso   1.00
C1372  C     0.23954   0.50070   0.98069   0.00000  Uiso   1.00
C1373  C     0.02102   0.45758   0.74905   0.00000  Uiso   1.00
C1374  C     0.31241   0.54288   0.74660   0.00000  Uiso   1.00
C1375  C     0.31231   0.45758   0.75095   0.00000  Uiso   1.00
C1376  C     0.02092   0.54288   0.75339   0.00000  Uiso   1.00
C1377  C     0.29071   0.50013   0.74804   0.00000  Uiso   1.00
C1378  C     0.04262   0.50014   0.75196   0.00000  Uiso   1.00
C1379  C     0.15180   0.35813   0.71471   0.00000  Uiso   1.00
C1380  C     0.18176   0.64187   0.78519   0.00000  Uiso   1.00
C1381  C     0.18153   0.35813   0.78529   0.00000  Uiso   1.00
C1382  C     0.15157   0.64187   0.71481   0.00000  Uiso   1.00
C1383  C     0.16654   0.49993   0.66418   0.00000  Uiso   1.00
C1384  C     0.16680   0.49993   0.83582   0.00000  Uiso   1.00
C1385  C     0.20378   0.50906   0.90905   0.00000  Uiso   1.00
C1386  C     0.12955   0.50906   0.59095   0.00000  Uiso   1.00
C1387  C     0.16808   0.49953   0.88442   0.00000  Uiso   1.00
C1388  C     0.16526   0.49953   0.61559   0.00000  Uiso   1.00
C1389  C     0.13300   0.48804   0.90688   0.00000  Uiso   1.00
C1390  C     0.20034   0.48803   0.59312   0.00000  Uiso   1.00
C1391  C     0.13144   0.49832   0.95205   0.00000  Uiso   1.00
C1392  C     0.20190   0.49831   0.54795   0.00000  Uiso   1.00
C1393  C     0.16720   0.50017   0.97680   0.00000  Uiso   1.00
C1394  C     0.16614   0.50017   0.52320   0.00000  Uiso   1.00
C1395  C     0.20395   0.50204   0.95513   0.00000  Uiso   1.00
C1396  C     0.12938   0.50204   0.54487   0.00000  Uiso   1.00
C1397  C     0.09509   0.50386   0.97354   0.00000  Uiso   1.00
C1398  C     0.23825   0.50385   0.52646   0.00000  Uiso   1.00
Cu1399 Cu    0.16667   0.54689   0.75000   0.00000  Uiso   1.00
Cu1400 Cu    0.16667   0.45311   0.75000   0.00000  Uiso   1.00
H1401  H     0.13950   0.37667   0.68656   0.00000  Uiso   1.00
H1402  H     0.19430   0.62332   0.81323   0.00000  Uiso   1.00
H1403  H     0.19383   0.37666   0.81344   0.00000  Uiso   1.00
H1404  H     0.13904   0.62332   0.68677   0.00000  Uiso   1.00
N1405  N     0.16667   0.61736   0.75000   0.00000  Uiso   1.00
N1406  N     0.16667   0.38264   0.75000   0.00000  Uiso   1.00
O1407  O     0.10655   0.53958   0.75000   0.00000  Uiso   1.00
O1408  O     0.22679   0.46042   0.75001   0.00000  Uiso   1.00
O1409  O     0.22679   0.53958   0.75001   0.00000  Uiso   1.00
O1410  O     0.10655   0.46042   0.75000   0.00000  Uiso   1.00
O1411  O     0.16666   0.53960   0.68513   0.00000  Uiso   1.00
O1412  O     0.16668   0.46040   0.81487   0.00000  Uiso   1.00
O1413  O     0.16668   0.53960   0.81487   0.00000  Uiso   1.00
O1414  O     0.16666   0.46040   0.68513   0.00000  Uiso   1.00
O1415  O     0.23348   0.53735   0.89230   0.00000  Uiso   1.00
C1416  C     0.25581   0.51389   0.86041   0.00000  Uiso   1.00
H1417  H     0.23986   0.51469   0.82880   0.00000  Uiso   1.00
H1418  H     0.26225   0.47676   0.86895   0.00000  Uiso   1.00
C1419  C     0.29452   0.54058   0.85474   0.00000  Uiso   1.00
H1420  H     0.30894   0.54749   0.88713   0.00000  Uiso   1.00
H1421  H     0.31536   0.52010   0.83446   0.00000  Uiso   1.00
H1422  H     0.28778   0.57466   0.83860   0.00000  Uiso   1.00
O1423  O     0.09985   0.53734   0.60770   0.00000  Uiso   1.00
C1424  C     0.07752   0.51387   0.63959   0.00000  Uiso   1.00
H1425  H     0.09347   0.51466   0.67120   0.00000  Uiso   1.00
H1426  H     0.07109   0.47673   0.63104   0.00000  Uiso   1.00
C1427  C     0.03881   0.54053   0.64526   0.00000  Uiso   1.00
H1428  H     0.02438   0.54745   0.61287   0.00000  Uiso   1.00
H1429  H     0.01797   0.52005   0.66554   0.00000  Uiso   1.00
H1430  H     0.04553   0.57462   0.66140   0.00000  Uiso   1.00
O1431  O     0.11088   0.44996   0.89203   0.00000  Uiso   1.00
C1432  C     0.07907   0.46343   0.86389   0.00000  Uiso   1.00
H1433  H     0.08541   0.45092   0.83030   0.00000  Uiso   1.00
H1434  H     0.07395   0.50185   0.86211   0.00000  Uiso   1.00
C1435  C     0.04140   0.43902   0.87921   0.00000  Uiso   1.00
H1436  H     0.03945   0.44108   0.91554   0.00000  Uiso   1.00
H1437  H     0.01470   0.45622   0.86451   0.00000  Uiso   1.00
H1438  H     0.04200   0.40144   0.86965   0.00000  Uiso   1.00
O1439  O     0.22244   0.44995   0.60798   0.00000  Uiso   1.00
C1440  C     0.25428   0.46340   0.63609   0.00000  Uiso   1.00
H1441  H     0.24797   0.45090   0.66969   0.00000  Uiso   1.00
H1442  H     0.25940   0.50182   0.63787   0.00000  Uiso   1.00
C1443  C     0.29193   0.43899   0.62072   0.00000  Uiso   1.00
H1444  H     0.29385   0.44104   0.58439   0.00000  Uiso   1.00
H1445  H     0.31865   0.45619   0.63538   0.00000  Uiso   1.00
H1446  H     0.29135   0.40141   0.63029   0.00000  Uiso   1.00
I1447  I     0.05003   0.54589   0.94335   0.00000  Uiso   1.00
I1448  I     0.28331   0.54590   0.55665   0.00000  Uiso   1.00
I1449  I     0.04137   0.46964   0.54347   0.00000  Uiso   1.00
I1450  I     0.29196   0.46964   0.95652   0.00000  Uiso   1.00
O1451  O     0.04060   0.41485   0.74713   0.00000  Uiso   1.00
C1452  C     0.04059   0.39940   0.70291   0.00000  Uiso   1.00
H1453  H     0.06571   0.41604   0.68530   0.00000  Uiso   1.00
H1454  H     0.01208   0.40708   0.68511   0.00000  Uiso   1.00
C1455  C     0.04568   0.34660   0.70146   0.00000  Uiso   1.00
H1456  H     0.01975   0.66294   0.71698   0.00000  Uiso   1.00
H1457  H     0.04751   0.33457   0.66682   0.00000  Uiso   1.00
H1458  H     0.07320   0.33610   0.71954   0.00000  Uiso   1.00
O1459  O     0.29288   0.58549   0.74189   0.00000  Uiso   1.00
C1460  C     0.28754   0.59481   0.69646   0.00000  Uiso   1.00
H1461  H     0.27046   0.56627   0.67982   0.00000  Uiso   1.00
H1462  H     0.31677   0.59921   0.68042   0.00000  Uiso   1.00
C1463  C     0.26419   0.64008   0.68969   0.00000  Uiso   1.00
H1464  H     0.28174   0.33708   0.70217   0.00000  Uiso   1.00
H1465  H     0.25786   0.64546   0.65406   0.00000  Uiso   1.00
H1466  H     0.23545   0.63821   0.70709   0.00000  Uiso   1.00
O1467  O     0.29274   0.41485   0.75285   0.00000  Uiso   1.00
C1468  C     0.29275   0.39938   0.79707   0.00000  Uiso   1.00
H1469  H     0.26765   0.41604   0.81469   0.00000  Uiso   1.00
H1470  H     0.32127   0.40703   0.81486   0.00000  Uiso   1.00
C1471  C     0.28762   0.34658   0.79850   0.00000  Uiso   1.00
H1472  H     0.31356   0.66291   0.78300   0.00000  Uiso   1.00
H1473  H     0.28577   0.33455   0.83314   0.00000  Uiso   1.00
H1474  H     0.26011   0.33612   0.78041   0.00000  Uiso   1.00
O1475  O     0.04045   0.58550   0.75809   0.00000  Uiso   1.00
C1476  C     0.04580   0.59482   0.80352   0.00000  Uiso   1.00
H1477  H     0.06290   0.56630   0.82015   0.00000  Uiso   1.00
H1478  H     0.01657   0.59921   0.81957   0.00000  Uiso   1.00
C1479  C     0.06913   0.64010   0.81027   0.00000  Uiso   1.00
H1480  H     0.05156   0.33710   0.79779   0.00000  Uiso   1.00
H1481  H     0.07546   0.64550   0.84590   0.00000  Uiso   1.00
H1482  H     0.09786   0.63825   0.79286   0.00000  Uiso   1.00
C1483  C     0.42064   0.50002   0.75174   0.00000  Uiso   1.00
C1484  C     0.57936   0.50002   0.74826   0.00000  Uiso   1.00
C1485  C     0.42713   0.50071   0.51931   0.00000  Uiso   1.00
C1486  C     0.57287   0.50070   0.98069   0.00000  Uiso   1.00
C1487  C     0.35435   0.45758   0.74905   0.00000  Uiso   1.00
C1488  C     0.64575   0.54288   0.74660   0.00000  Uiso   1.00
C1489  C     0.64565   0.45758   0.75095   0.00000  Uiso   1.00
C1490  C     0.35425   0.54288   0.75339   0.00000  Uiso   1.00
C1491  C     0.62404   0.50013   0.74804   0.00000  Uiso   1.00
C1492  C     0.37596   0.50014   0.75196   0.00000  Uiso   1.00
C1493  C     0.48514   0.35813   0.71471   0.00000  Uiso   1.00
C1494  C     0.51509   0.64187   0.78519   0.00000  Uiso   1.00
C1495  C     0.51486   0.35813   0.78529   0.00000  Uiso   1.00
C1496  C     0.48491   0.64187   0.71481   0.00000  Uiso   1.00
C1497  C     0.49987   0.49993   0.66418   0.00000  Uiso   1.00
C1498  C     0.50013   0.49993   0.83582   0.00000  Uiso   1.00
C1499  C     0.53711   0.50906   0.90905   0.00000  Uiso   1.00
C1500  C     0.46289   0.50906   0.59095   0.00000  Uiso   1.00
C1501  C     0.50141   0.49953   0.88442   0.00000  Uiso   1.00
C1502  C     0.49859   0.49953   0.61559   0.00000  Uiso   1.00
C1503  C     0.46633   0.48804   0.90688   0.00000  Uiso   1.00
C1504  C     0.53367   0.48803   0.59312   0.00000  Uiso   1.00
C1505  C     0.46478   0.49832   0.95205   0.00000  Uiso   1.00
C1506  C     0.53523   0.49831   0.54795   0.00000  Uiso   1.00
C1507  C     0.50053   0.50017   0.97680   0.00000  Uiso   1.00
C1508  C     0.49947   0.50017   0.52320   0.00000  Uiso   1.00
C1509  C     0.53729   0.50204   0.95513   0.00000  Uiso   1.00
C1510  C     0.46272   0.50204   0.54487   0.00000  Uiso   1.00
C1511  C     0.42842   0.50386   0.97354   0.00000  Uiso   1.00
C1512  C     0.57159   0.50385   0.52646   0.00000  Uiso   1.00
Cu1513 Cu    0.50000   0.54689   0.75000   0.00000  Uiso   1.00
Cu1514 Cu    0.50000   0.45311   0.75000   0.00000  Uiso   1.00
H1515  H     0.47283   0.37667   0.68656   0.00000  Uiso   1.00
H1516  H     0.52763   0.62332   0.81323   0.00000  Uiso   1.00
H1517  H     0.52717   0.37666   0.81344   0.00000  Uiso   1.00
H1518  H     0.47237   0.62332   0.68677   0.00000  Uiso   1.00
N1519  N     0.50000   0.61736   0.75000   0.00000  Uiso   1.00
N1520  N     0.50000   0.38264   0.75000   0.00000  Uiso   1.00
O1521  O     0.43988   0.53958   0.75000   0.00000  Uiso   1.00
O1522  O     0.56012   0.46042   0.75001   0.00000  Uiso   1.00
O1523  O     0.56012   0.53958   0.75001   0.00000  Uiso   1.00
O1524  O     0.43988   0.46042   0.75000   0.00000  Uiso   1.00
O1525  O     0.49999   0.53960   0.68513   0.00000  Uiso   1.00
O1526  O     0.50001   0.46040   0.81487   0.00000  Uiso   1.00
O1527  O     0.50001   0.53960   0.81487   0.00000  Uiso   1.00
O1528  O     0.49999   0.46040   0.68513   0.00000  Uiso   1.00
O1529  O     0.56682   0.53735   0.89230   0.00000  Uiso   1.00
C1530  C     0.58914   0.51389   0.86041   0.00000  Uiso   1.00
H1531  H     0.57319   0.51469   0.82880   0.00000  Uiso   1.00
H1532  H     0.59558   0.47676   0.86895   0.00000  Uiso   1.00
C1533  C     0.62785   0.54058   0.85474   0.00000  Uiso   1.00
H1534  H     0.64227   0.54749   0.88713   0.00000  Uiso   1.00
H1535  H     0.64869   0.52010   0.83446   0.00000  Uiso   1.00
H1536  H     0.62112   0.57466   0.83860   0.00000  Uiso   1.00
O1537  O     0.43318   0.53734   0.60770   0.00000  Uiso   1.00
C1538  C     0.41086   0.51387   0.63959   0.00000  Uiso   1.00
H1539  H     0.42681   0.51466   0.67120   0.00000  Uiso   1.00
H1540  H     0.40443   0.47673   0.63104   0.00000  Uiso   1.00
C1541  C     0.37214   0.54053   0.64526   0.00000  Uiso   1.00
H1542  H     0.35772   0.54745   0.61287   0.00000  Uiso   1.00
H1543  H     0.35130   0.52005   0.66554   0.00000  Uiso   1.00
H1544  H     0.37887   0.57462   0.66140   0.00000  Uiso   1.00
O1545  O     0.44421   0.44996   0.89203   0.00000  Uiso   1.00
C1546  C     0.41241   0.46343   0.86389   0.00000  Uiso   1.00
H1547  H     0.41874   0.45092   0.83030   0.00000  Uiso   1.00
H1548  H     0.40729   0.50185   0.86211   0.00000  Uiso   1.00
C1549  C     0.37474   0.43902   0.87921   0.00000  Uiso   1.00
H1550  H     0.37278   0.44108   0.91554   0.00000  Uiso   1.00
H1551  H     0.34803   0.45622   0.86451   0.00000  Uiso   1.00
H1552  H     0.37533   0.40144   0.86965   0.00000  Uiso   1.00
O1553  O     0.55578   0.44995   0.60798   0.00000  Uiso   1.00
C1554  C     0.58761   0.46340   0.63609   0.00000  Uiso   1.00
H1555  H     0.58130   0.45090   0.66969   0.00000  Uiso   1.00
H1556  H     0.59273   0.50182   0.63787   0.00000  Uiso   1.00
C1557  C     0.62526   0.43899   0.62072   0.00000  Uiso   1.00
H1558  H     0.62718   0.44104   0.58439   0.00000  Uiso   1.00
H1559  H     0.65199   0.45619   0.63538   0.00000  Uiso   1.00
H1560  H     0.62468   0.40141   0.63029   0.00000  Uiso   1.00
I1561  I     0.38336   0.54589   0.94335   0.00000  Uiso   1.00
I1562  I     0.61664   0.54590   0.55665   0.00000  Uiso   1.00
I1563  I     0.37471   0.46964   0.54347   0.00000  Uiso   1.00
I1564  I     0.62529   0.46964   0.95652   0.00000  Uiso   1.00
O1565  O     0.37393   0.41485   0.74713   0.00000  Uiso   1.00
C1566  C     0.37392   0.39940   0.70291   0.00000  Uiso   1.00
H1567  H     0.39904   0.41604   0.68530   0.00000  Uiso   1.00
H1568  H     0.34541   0.40708   0.68511   0.00000  Uiso   1.00
C1569  C     0.37902   0.34660   0.70146   0.00000  Uiso   1.00
H1570  H     0.35308   0.66294   0.71698   0.00000  Uiso   1.00
H1571  H     0.38084   0.33457   0.66682   0.00000  Uiso   1.00
H1572  H     0.40653   0.33610   0.71954   0.00000  Uiso   1.00
O1573  O     0.62622   0.58549   0.74189   0.00000  Uiso   1.00
C1574  C     0.62087   0.59481   0.69646   0.00000  Uiso   1.00
H1575  H     0.60379   0.56627   0.67982   0.00000  Uiso   1.00
H1576  H     0.65010   0.59921   0.68042   0.00000  Uiso   1.00
C1577  C     0.59752   0.64008   0.68969   0.00000  Uiso   1.00
H1578  H     0.61507   0.33708   0.70217   0.00000  Uiso   1.00
H1579  H     0.59119   0.64546   0.65406   0.00000  Uiso   1.00
H1580  H     0.56879   0.63821   0.70709   0.00000  Uiso   1.00
O1581  O     0.62607   0.41485   0.75285   0.00000  Uiso   1.00
C1582  C     0.62609   0.39938   0.79707   0.00000  Uiso   1.00
H1583  H     0.60098   0.41604   0.81469   0.00000  Uiso   1.00
H1584  H     0.65460   0.40703   0.81486   0.00000  Uiso   1.00
C1585  C     0.62096   0.34658   0.79850   0.00000  Uiso   1.00
H1586  H     0.64689   0.66291   0.78300   0.00000  Uiso   1.00
H1587  H     0.61910   0.33455   0.83314   0.00000  Uiso   1.00
H1588  H     0.59345   0.33612   0.78041   0.00000  Uiso   1.00
O1589  O     0.37378   0.58550   0.75809   0.00000  Uiso   1.00
C1590  C     0.37913   0.59482   0.80352   0.00000  Uiso   1.00
H1591  H     0.39623   0.56630   0.82015   0.00000  Uiso   1.00
H1592  H     0.34991   0.59921   0.81957   0.00000  Uiso   1.00
C1593  C     0.40246   0.64010   0.81027   0.00000  Uiso   1.00
H1594  H     0.38490   0.33710   0.79779   0.00000  Uiso   1.00
H1595  H     0.40880   0.64550   0.84590   0.00000  Uiso   1.00
H1596  H     0.43120   0.63825   0.79286   0.00000  Uiso   1.00
C1597  C     0.75397   0.50002   0.75174   0.00000  Uiso   1.00
C1598  C     0.91270   0.50002   0.74826   0.00000  Uiso   1.00
C1599  C     0.76047   0.50071   0.51931   0.00000  Uiso   1.00
C1600  C     0.90620   0.50070   0.98069   0.00000  Uiso   1.00
C1601  C     0.68769   0.45758   0.74905   0.00000  Uiso   1.00
C1602  C     0.97908   0.54288   0.74660   0.00000  Uiso   1.00
C1603  C     0.97898   0.45758   0.75095   0.00000  Uiso   1.00
C1604  C     0.68759   0.54288   0.75339   0.00000  Uiso   1.00
C1605  C     0.95738   0.50013   0.74804   0.00000  Uiso   1.00
C1606  C     0.70929   0.50014   0.75196   0.00000  Uiso   1.00
C1607  C     0.81847   0.35813   0.71471   0.00000  Uiso   1.00
C1608  C     0.84843   0.64187   0.78519   0.00000  Uiso   1.00
C1609  C     0.84820   0.35813   0.78529   0.00000  Uiso   1.00
C1610  C     0.81824   0.64187   0.71481   0.00000  Uiso   1.00
C1611  C     0.83321   0.49993   0.66418   0.00000  Uiso   1.00
C1612  C     0.83346   0.49993   0.83582   0.00000  Uiso   1.00
C1613  C     0.87045   0.50906   0.90905   0.00000  Uiso   1.00
C1614  C     0.79622   0.50906   0.59095   0.00000  Uiso   1.00
C1615  C     0.83474   0.49953   0.88442   0.00000  Uiso   1.00
C1616  C     0.83193   0.49953   0.61559   0.00000  Uiso   1.00
C1617  C     0.79967   0.48804   0.90688   0.00000  Uiso   1.00
C1618  C     0.86700   0.48803   0.59312   0.00000  Uiso   1.00
C1619  C     0.79811   0.49832   0.95205   0.00000  Uiso   1.00
C1620  C     0.86856   0.49831   0.54795   0.00000  Uiso   1.00
C1621  C     0.83387   0.50017   0.97680   0.00000  Uiso   1.00
C1622  C     0.83280   0.50017   0.52320   0.00000  Uiso   1.00
C1623  C     0.87062   0.50204   0.95513   0.00000  Uiso   1.00
C1624  C     0.79605   0.50204   0.54487   0.00000  Uiso   1.00
C1625  C     0.76175   0.50386   0.97354   0.00000  Uiso   1.00
C1626  C     0.90492   0.50385   0.52646   0.00000  Uiso   1.00
Cu1627 Cu    0.83333   0.54689   0.75000   0.00000  Uiso   1.00
Cu1628 Cu    0.83333   0.45311   0.75000   0.00000  Uiso   1.00
H1629  H     0.80616   0.37667   0.68656   0.00000  Uiso   1.00
H1630  H     0.86096   0.62332   0.81323   0.00000  Uiso   1.00
H1631  H     0.86050   0.37666   0.81344   0.00000  Uiso   1.00
H1632  H     0.80570   0.62332   0.68677   0.00000  Uiso   1.00
N1633  N     0.83333   0.61736   0.75000   0.00000  Uiso   1.00
N1634  N     0.83333   0.38264   0.75000   0.00000  Uiso   1.00
O1635  O     0.77321   0.53958   0.75000   0.00000  Uiso   1.00
O1636  O     0.89345   0.46042   0.75001   0.00000  Uiso   1.00
O1637  O     0.89345   0.53958   0.75001   0.00000  Uiso   1.00
O1638  O     0.77321   0.46042   0.75000   0.00000  Uiso   1.00
O1639  O     0.83332   0.53960   0.68513   0.00000  Uiso   1.00
O1640  O     0.83334   0.46040   0.81487   0.00000  Uiso   1.00
O1641  O     0.83334   0.53960   0.81487   0.00000  Uiso   1.00
O1642  O     0.83332   0.46040   0.68513   0.00000  Uiso   1.00
O1643  O     0.90015   0.53735   0.89230   0.00000  Uiso   1.00
C1644  C     0.92248   0.51389   0.86041   0.00000  Uiso   1.00
H1645  H     0.90652   0.51469   0.82880   0.00000  Uiso   1.00
H1646  H     0.92892   0.47676   0.86895   0.00000  Uiso   1.00
C1647  C     0.96118   0.54058   0.85474   0.00000  Uiso   1.00
H1648  H     0.97561   0.54749   0.88713   0.00000  Uiso   1.00
H1649  H     0.98203   0.52010   0.83446   0.00000  Uiso   1.00
H1650  H     0.95445   0.57466   0.83860   0.00000  Uiso   1.00
O1651  O     0.76651   0.53734   0.60770   0.00000  Uiso   1.00
C1652  C     0.74419   0.51387   0.63959   0.00000  Uiso   1.00
H1653  H     0.76014   0.51466   0.67120   0.00000  Uiso   1.00
H1654  H     0.73776   0.47673   0.63104   0.00000  Uiso   1.00
C1655  C     0.70548   0.54053   0.64526   0.00000  Uiso   1.00
H1656  H     0.69105   0.54745   0.61287   0.00000  Uiso   1.00
H1657  H     0.68464   0.52005   0.66554   0.00000  Uiso   1.00
H1658  H     0.71220   0.57462   0.66140   0.00000  Uiso   1.00
O1659  O     0.77755   0.44996   0.89203   0.00000  Uiso   1.00
C1660  C     0.74574   0.46343   0.86389   0.00000  Uiso   1.00
H1661  H     0.75207   0.45092   0.83030   0.00000  Uiso   1.00
H1662  H     0.74062   0.50185   0.86211   0.00000  Uiso   1.00
C1663  C     0.70807   0.43902   0.87921   0.00000  Uiso   1.00
H1664  H     0.70611   0.44108   0.91554   0.00000  Uiso   1.00
H1665  H     0.68136   0.45622   0.86451   0.00000  Uiso   1.00
H1666  H     0.70866   0.40144   0.86965   0.00000  Uiso   1.00
O1667  O     0.88911   0.44995   0.60798   0.00000  Uiso   1.00
C1668  C     0.92094   0.46340   0.63609   0.00000  Uiso   1.00
H1669  H     0.91464   0.45090   0.66969   0.00000  Uiso   1.00
H1670  H     0.92607   0.50182   0.63787   0.00000  Uiso   1.00
C1671  C     0.95860   0.43899   0.62072   0.00000  Uiso   1.00
H1672  H     0.96051   0.44104   0.58439   0.00000  Uiso   1.00
H1673  H     0.98532   0.45619   0.63538   0.00000  Uiso   1.00
H1674  H     0.95802   0.40141   0.63029   0.00000  Uiso   1.00
I1675  I     0.71669   0.54589   0.94335   0.00000  Uiso   1.00
I1676  I     0.94997   0.54590   0.55665   0.00000  Uiso   1.00
I1677  I     0.70804   0.46964   0.54347   0.00000  Uiso   1.00
I1678  I     0.95863   0.46964   0.95652   0.00000  Uiso   1.00
O1679  O     0.70727   0.41485   0.74713   0.00000  Uiso   1.00
C1680  C     0.70725   0.39940   0.70291   0.00000  Uiso   1.00
H1681  H     0.73237   0.41604   0.68530   0.00000  Uiso   1.00
H1682  H     0.67874   0.40708   0.68511   0.00000  Uiso   1.00
C1683  C     0.71235   0.34660   0.70146   0.00000  Uiso   1.00
H1684  H     0.68641   0.66294   0.71698   0.00000  Uiso   1.00
H1685  H     0.71418   0.33457   0.66682   0.00000  Uiso   1.00
H1686  H     0.73986   0.33610   0.71954   0.00000  Uiso   1.00
O1687  O     0.95955   0.58549   0.74189   0.00000  Uiso   1.00
C1688  C     0.95420   0.59481   0.69646   0.00000  Uiso   1.00
H1689  H     0.93712   0.56627   0.67982   0.00000  Uiso   1.00
H1690  H     0.98343   0.59921   0.68042   0.00000  Uiso   1.00
C1691  C     0.93085   0.64008   0.68969   0.00000  Uiso   1.00
H1692  H     0.94841   0.33708   0.70217   0.00000  Uiso   1.00
H1693  H     0.92453   0.64546   0.65406   0.00000  Uiso   1.00
H1694  H     0.90212   0.63821   0.70709   0.00000  Uiso   1.00
O1695  O     0.95940   0.41485   0.75285   0.00000  Uiso   1.00
C1696  C     0.95942   0.39938   0.79707   0.00000  Uiso   1.00
H1697  H     0.93431   0.41604   0.81469   0.00000  Uiso   1.00
H1698  H     0.98794   0.40703   0.81486   0.00000  Uiso   1.00
C1699  C     0.95429   0.34658   0.79850   0.00000  Uiso   1.00
H1700  H     0.98023   0.66291   0.78300   0.00000  Uiso   1.00
H1701  H     0.95244   0.33455   0.83314   0.00000  Uiso   1.00
H1702  H     0.92678   0.33612   0.78041   0.00000  Uiso   1.00
O1703  O     0.70711   0.58550   0.75809   0.00000  Uiso   1.00
C1704  C     0.71247   0.59482   0.80352   0.00000  Uiso   1.00
H1705  H     0.72957   0.56630   0.82015   0.00000  Uiso   1.00
H1706  H     0.68324   0.59921   0.81957   0.00000  Uiso   1.00
C1707  C     0.73580   0.64010   0.81027   0.00000  Uiso   1.00
H1708  H     0.71823   0.33710   0.79779   0.00000  Uiso   1.00
H1709  H     0.74213   0.64550   0.84590   0.00000  Uiso   1.00
H1710  H     0.76453   0.63825   0.79286   0.00000  Uiso   1.00
C1711  C     0.08730   0.83335   0.75174   0.00000  Uiso   1.00
C1712  C     0.24603   0.83335   0.74826   0.00000  Uiso   1.00
C1713  C     0.09380   0.83404   0.51931   0.00000  Uiso   1.00
C1714  C     0.23954   0.83403   0.98069   0.00000  Uiso   1.00
C1715  C     0.02102   0.79092   0.74905   0.00000  Uiso   1.00
C1716  C     0.31241   0.87622   0.74660   0.00000  Uiso   1.00
C1717  C     0.31231   0.79092   0.75095   0.00000  Uiso   1.00
C1718  C     0.02092   0.87622   0.75339   0.00000  Uiso   1.00
C1719  C     0.29071   0.83347   0.74804   0.00000  Uiso   1.00
C1720  C     0.04262   0.83347   0.75196   0.00000  Uiso   1.00
C1721  C     0.15180   0.69146   0.71471   0.00000  Uiso   1.00
C1722  C     0.18176   0.97520   0.78519   0.00000  Uiso   1.00
C1723  C     0.18153   0.69146   0.78529   0.00000  Uiso   1.00
C1724  C     0.15157   0.97520   0.71481   0.00000  Uiso   1.00
C1725  C     0.16654   0.83327   0.66418   0.00000  Uiso   1.00
C1726  C     0.16680   0.83327   0.83582   0.00000  Uiso   1.00
C1727  C     0.20378   0.84240   0.90905   0.00000  Uiso   1.00
C1728  C     0.12955   0.84240   0.59095   0.00000  Uiso   1.00
C1729  C     0.16808   0.83286   0.88442   0.00000  Uiso   1.00
C1730  C     0.16526   0.83286   0.61559   0.00000  Uiso   1.00
C1731  C     0.13300   0.82137   0.90688   0.00000  Uiso   1.00
C1732  C     0.20034   0.82137   0.59312   0.00000  Uiso   1.00
C1733  C     0.13144   0.83165   0.95205   0.00000  Uiso   1.00
C1734  C     0.20190   0.83164   0.54795   0.00000  Uiso   1.00
C1735  C     0.16720   0.83350   0.97680   0.00000  Uiso   1.00
C1736  C     0.16614   0.83350   0.52320   0.00000  Uiso   1.00
C1737  C     0.20395   0.83537   0.95513   0.00000  Uiso   1.00
C1738  C     0.12938   0.83537   0.54487   0.00000  Uiso   1.00
C1739  C     0.09509   0.83719   0.97354   0.00000  Uiso   1.00
C1740  C     0.23825   0.83718   0.52646   0.00000  Uiso   1.00
Cu1741 Cu    0.16667   0.88022   0.75000   0.00000  Uiso   1.00
Cu1742 Cu    0.16667   0.78645   0.75000   0.00000  Uiso   1.00
H1743  H     0.13950   0.71000   0.68656   0.00000  Uiso   1.00
H1744  H     0.19430   0.95665   0.81323   0.00000  Uiso   1.00
H1745  H     0.19383   0.71000   0.81344   0.00000  Uiso   1.00
H1746  H     0.13904   0.95666   0.68677   0.00000  Uiso   1.00
N1747  N     0.16667   0.95069   0.75000   0.00000  Uiso   1.00
N1748  N     0.16667   0.71598   0.75000   0.00000  Uiso   1.00
O1749  O     0.10655   0.87291   0.75000   0.00000  Uiso   1.00
O1750  O     0.22679   0.79375   0.75001   0.00000  Uiso   1.00
O1751  O     0.22679   0.87291   0.75001   0.00000  Uiso   1.00
O1752  O     0.10655   0.79375   0.75000   0.00000  Uiso   1.00
O1753  O     0.16666   0.87293   0.68513   0.00000  Uiso   1.00
O1754  O     0.16668   0.79373   0.81487   0.00000  Uiso   1.00
O1755  O     0.16668   0.87293   0.81487   0.00000  Uiso   1.00
O1756  O     0.16666   0.79373   0.68513   0.00000  Uiso   1.00
O1757  O     0.23348   0.87068   0.89230   0.00000  Uiso   1.00
C1758  C     0.25581   0.84723   0.86041   0.00000  Uiso   1.00
H1759  H     0.23986   0.84803   0.82880   0.00000  Uiso   1.00
H1760  H     0.26225   0.81009   0.86895   0.00000  Uiso   1.00
C1761  C     0.29452   0.87391   0.85474   0.00000  Uiso   1.00
H1762  H     0.30894   0.88083   0.88713   0.00000  Uiso   1.00
H1763  H     0.31536   0.85344   0.83446   0.00000  Uiso   1.00
H1764  H     0.28778   0.90799   0.83860   0.00000  Uiso   1.00
O1765  O     0.09985   0.87067   0.60770   0.00000  Uiso   1.00
C1766  C     0.07752   0.84720   0.63959   0.00000  Uiso   1.00
H1767  H     0.09347   0.84800   0.67120   0.00000  Uiso   1.00
H1768  H     0.07109   0.81006   0.63104   0.00000  Uiso   1.00
C1769  C     0.03881   0.87387   0.64526   0.00000  Uiso   1.00
H1770  H     0.02438   0.88078   0.61287   0.00000  Uiso   1.00
H1771  H     0.01797   0.85338   0.66554   0.00000  Uiso   1.00
H1772  H     0.04553   0.90795   0.66140   0.00000  Uiso   1.00
O1773  O     0.11088   0.78330   0.89203   0.00000  Uiso   1.00
C1774  C     0.07907   0.79676   0.86389   0.00000  Uiso   1.00
H1775  H     0.08541   0.78426   0.83030   0.00000  Uiso   1.00
H1776  H     0.07395   0.83518   0.86211   0.00000  Uiso   1.00
C1777  C     0.04140   0.77235   0.87921   0.00000  Uiso   1.00
H1778  H     0.03945   0.77442   0.91554   0.00000  Uiso   1.00
H1779  H     0.01470   0.78955   0.86451   0.00000  Uiso   1.00
H1780  H     0.04200   0.73477   0.86965   0.00000  Uiso   1.00
O1781  O     0.22244   0.78328   0.60798   0.00000  Uiso   1.00
C1782  C     0.25428   0.79674   0.63609   0.00000  Uiso   1.00
H1783  H     0.24797   0.78423   0.66969   0.00000  Uiso   1.00
H1784  H     0.25940   0.83516   0.63787   0.00000  Uiso   1.00
C1785  C     0.29193   0.77232   0.62072   0.00000  Uiso   1.00
H1786  H     0.29385   0.77438   0.58439   0.00000  Uiso   1.00
H1787  H     0.31865   0.78952   0.63538   0.00000  Uiso   1.00
H1788  H     0.29135   0.73474   0.63029   0.00000  Uiso   1.00
I1789  I     0.05003   0.87923   0.94335   0.00000  Uiso   1.00
I1790  I     0.28331   0.87923   0.55665   0.00000  Uiso   1.00
I1791  I     0.04137   0.80297   0.54347   0.00000  Uiso   1.00
I1792  I     0.29196   0.80297   0.95652   0.00000  Uiso   1.00
O1793  O     0.04060   0.74818   0.74713   0.00000  Uiso   1.00
C1794  C     0.04059   0.73273   0.70291   0.00000  Uiso   1.00
H1795  H     0.06571   0.74937   0.68530   0.00000  Uiso   1.00
H1796  H     0.01208   0.74041   0.68511   0.00000  Uiso   1.00
C1797  C     0.04568   0.67993   0.70146   0.00000  Uiso   1.00
H1798  H     0.01975   0.99627   0.71698   0.00000  Uiso   1.00
H1799  H     0.04751   0.66791   0.66682   0.00000  Uiso   1.00
H1800  H     0.07320   0.66944   0.71954   0.00000  Uiso   1.00
O1801  O     0.29288   0.91883   0.74189   0.00000  Uiso   1.00
C1802  C     0.28754   0.92814   0.69646   0.00000  Uiso   1.00
H1803  H     0.27046   0.89961   0.67982   0.00000  Uiso   1.00
H1804  H     0.31677   0.93255   0.68042   0.00000  Uiso   1.00
C1805  C     0.26419   0.97341   0.68969   0.00000  Uiso   1.00
H1806  H     0.28174   0.67042   0.70217   0.00000  Uiso   1.00
H1807  H     0.25786   0.97880   0.65406   0.00000  Uiso   1.00
H1808  H     0.23545   0.97154   0.70709   0.00000  Uiso   1.00
O1809  O     0.29274   0.74818   0.75285   0.00000  Uiso   1.00
C1810  C     0.29275   0.73272   0.79707   0.00000  Uiso   1.00
H1811  H     0.26765   0.74937   0.81469   0.00000  Uiso   1.00
H1812  H     0.32127   0.74036   0.81486   0.00000  Uiso   1.00
C1813  C     0.28762   0.67992   0.79850   0.00000  Uiso   1.00
H1814  H     0.31356   0.99624   0.78300   0.00000  Uiso   1.00
H1815  H     0.28577   0.66789   0.83314   0.00000  Uiso   1.00
H1816  H     0.26011   0.66945   0.78041   0.00000  Uiso   1.00
O1817  O     0.04045   0.91883   0.75809   0.00000  Uiso   1.00
C1818  C     0.04580   0.92815   0.80352   0.00000  Uiso   1.00
H1819  H     0.06290   0.89963   0.82015   0.00000  Uiso   1.00
H1820  H     0.01657   0.93254   0.81957   0.00000  Uiso   1.00
C1821  C     0.06913   0.97344   0.81027   0.00000  Uiso   1.00
H1822  H     0.05156   0.67043   0.79779   0.00000  Uiso   1.00
H1823  H     0.07546   0.97883   0.84590   0.00000  Uiso   1.00
H1824  H     0.09786   0.97158   0.79286   0.00000  Uiso   1.00
C1825  C     0.42064   0.83335   0.75174   0.00000  Uiso   1.00
C1826  C     0.57936   0.83335   0.74826   0.00000  Uiso   1.00
C1827  C     0.42713   0.83404   0.51931   0.00000  Uiso   1.00
C1828  C     0.57287   0.83403   0.98069   0.00000  Uiso   1.00
C1829  C     0.35435   0.79092   0.74905   0.00000  Uiso   1.00
C1830  C     0.64575   0.87622   0.74660   0.00000  Uiso   1.00
C1831  C     0.64565   0.79092   0.75095   0.00000  Uiso   1.00
C1832  C     0.35425   0.87622   0.75339   0.00000  Uiso   1.00
C1833  C     0.62404   0.83347   0.74804   0.00000  Uiso   1.00
C1834  C     0.37596   0.83347   0.75196   0.00000  Uiso   1.00
C1835  C     0.48514   0.69146   0.71471   0.00000  Uiso   1.00
C1836  C     0.51509   0.97520   0.78519   0.00000  Uiso   1.00
C1837  C     0.51486   0.69146   0.78529   0.00000  Uiso   1.00
C1838  C     0.48491   0.97520   0.71481   0.00000  Uiso   1.00
C1839  C     0.49987   0.83327   0.66418   0.00000  Uiso   1.00
C1840  C     0.50013   0.83327   0.83582   0.00000  Uiso   1.00
C1841  C     0.53711   0.84240   0.90905   0.00000  Uiso   1.00
C1842  C     0.46289   0.84240   0.59095   0.00000  Uiso   1.00
C1843  C     0.50141   0.83286   0.88442   0.00000  Uiso   1.00
C1844  C     0.49859   0.83286   0.61559   0.00000  Uiso   1.00
C1845  C     0.46633   0.82137   0.90688   0.00000  Uiso   1.00
C1846  C     0.53367   0.82137   0.59312   0.00000  Uiso   1.00
C1847  C     0.46478   0.83165   0.95205   0.00000  Uiso   1.00
C1848  C     0.53523   0.83164   0.54795   0.00000  Uiso   1.00
C1849  C     0.50053   0.83350   0.97680   0.00000  Uiso   1.00
C1850  C     0.49947   0.83350   0.52320   0.00000  Uiso   1.00
C1851  C     0.53729   0.83537   0.95513   0.00000  Uiso   1.00
C1852  C     0.46272   0.83537   0.54487   0.00000  Uiso   1.00
C1853  C     0.42842   0.83719   0.97354   0.00000  Uiso   1.00
C1854  C     0.57159   0.83718   0.52646   0.00000  Uiso   1.00
Cu1855 Cu    0.50000   0.88022   0.75000   0.00000  Uiso   1.00
Cu1856 Cu    0.50000   0.78645   0.75000   0.00000  Uiso   1.00
H1857  H     0.47283   0.71000   0.68656   0.00000  Uiso   1.00
H1858  H     0.52763   0.95665   0.81323   0.00000  Uiso   1.00
H1859  H     0.52717   0.71000   0.81344   0.00000  Uiso   1.00
H1860  H     0.47237   0.95666   0.68677   0.00000  Uiso   1.00
N1861  N     0.50000   0.95069   0.75000   0.00000  Uiso   1.00
N1862  N     0.50000   0.71598   0.75000   0.00000  Uiso   1.00
O1863  O     0.43988   0.87291   0.75000   0.00000  Uiso   1.00
O1864  O     0.56012   0.79375   0.75001   0.00000  Uiso   1.00
O1865  O     0.56012   0.87291   0.75001   0.00000  Uiso   1.00
O1866  O     0.43988   0.79375   0.75000   0.00000  Uiso   1.00
O1867  O     0.49999   0.87293   0.68513   0.00000  Uiso   1.00
O1868  O     0.50001   0.79373   0.81487   0.00000  Uiso   1.00
O1869  O     0.50001   0.87293   0.81487   0.00000  Uiso   1.00
O1870  O     0.49999   0.79373   0.68513   0.00000  Uiso   1.00
O1871  O     0.56682   0.87068   0.89230   0.00000  Uiso   1.00
C1872  C     0.58914   0.84723   0.86041   0.00000  Uiso   1.00
H1873  H     0.57319   0.84803   0.82880   0.00000  Uiso   1.00
H1874  H     0.59558   0.81009   0.86895   0.00000  Uiso   1.00
C1875  C     0.62785   0.87391   0.85474   0.00000  Uiso   1.00
H1876  H     0.64227   0.88083   0.88713   0.00000  Uiso   1.00
H1877  H     0.64869   0.85344   0.83446   0.00000  Uiso   1.00
H1878  H     0.62112   0.90799   0.83860   0.00000  Uiso   1.00
O1879  O     0.43318   0.87067   0.60770   0.00000  Uiso   1.00
C1880  C     0.41086   0.84720   0.63959   0.00000  Uiso   1.00
H1881  H     0.42681   0.84800   0.67120   0.00000  Uiso   1.00
H1882  H     0.40443   0.81006   0.63104   0.00000  Uiso   1.00
C1883  C     0.37214   0.87387   0.64526   0.00000  Uiso   1.00
H1884  H     0.35772   0.88078   0.61287   0.00000  Uiso   1.00
H1885  H     0.35130   0.85338   0.66554   0.00000  Uiso   1.00
H1886  H     0.37887   0.90795   0.66140   0.00000  Uiso   1.00
O1887  O     0.44421   0.78330   0.89203   0.00000  Uiso   1.00
C1888  C     0.41241   0.79676   0.86389   0.00000  Uiso   1.00
H1889  H     0.41874   0.78426   0.83030   0.00000  Uiso   1.00
H1890  H     0.40729   0.83518   0.86211   0.00000  Uiso   1.00
C1891  C     0.37474   0.77235   0.87921   0.00000  Uiso   1.00
H1892  H     0.37278   0.77442   0.91554   0.00000  Uiso   1.00
H1893  H     0.34803   0.78955   0.86451   0.00000  Uiso   1.00
H1894  H     0.37533   0.73477   0.86965   0.00000  Uiso   1.00
O1895  O     0.55578   0.78328   0.60798   0.00000  Uiso   1.00
C1896  C     0.58761   0.79674   0.63609   0.00000  Uiso   1.00
H1897  H     0.58130   0.78423   0.66969   0.00000  Uiso   1.00
H1898  H     0.59273   0.83516   0.63787   0.00000  Uiso   1.00
C1899  C     0.62526   0.77232   0.62072   0.00000  Uiso   1.00
H1900  H     0.62718   0.77438   0.58439   0.00000  Uiso   1.00
H1901  H     0.65199   0.78952   0.63538   0.00000  Uiso   1.00
H1902  H     0.62468   0.73474   0.63029   0.00000  Uiso   1.00
I1903  I     0.38336   0.87923   0.94335   0.00000  Uiso   1.00
I1904  I     0.61664   0.87923   0.55665   0.00000  Uiso   1.00
I1905  I     0.37471   0.80297   0.54347   0.00000  Uiso   1.00
I1906  I     0.62529   0.80297   0.95652   0.00000  Uiso   1.00
O1907  O     0.37393   0.74818   0.74713   0.00000  Uiso   1.00
C1908  C     0.37392   0.73273   0.70291   0.00000  Uiso   1.00
H1909  H     0.39904   0.74937   0.68530   0.00000  Uiso   1.00
H1910  H     0.34541   0.74041   0.68511   0.00000  Uiso   1.00
C1911  C     0.37902   0.67993   0.70146   0.00000  Uiso   1.00
H1912  H     0.35308   0.99627   0.71698   0.00000  Uiso   1.00
H1913  H     0.38084   0.66791   0.66682   0.00000  Uiso   1.00
H1914  H     0.40653   0.66944   0.71954   0.00000  Uiso   1.00
O1915  O     0.62622   0.91883   0.74189   0.00000  Uiso   1.00
C1916  C     0.62087   0.92814   0.69646   0.00000  Uiso   1.00
H1917  H     0.60379   0.89961   0.67982   0.00000  Uiso   1.00
H1918  H     0.65010   0.93255   0.68042   0.00000  Uiso   1.00
C1919  C     0.59752   0.97341   0.68969   0.00000  Uiso   1.00
H1920  H     0.61507   0.67042   0.70217   0.00000  Uiso   1.00
H1921  H     0.59119   0.97880   0.65406   0.00000  Uiso   1.00
H1922  H     0.56879   0.97154   0.70709   0.00000  Uiso   1.00
O1923  O     0.62607   0.74818   0.75285   0.00000  Uiso   1.00
C1924  C     0.62609   0.73272   0.79707   0.00000  Uiso   1.00
H1925  H     0.60098   0.74937   0.81469   0.00000  Uiso   1.00
H1926  H     0.65460   0.74036   0.81486   0.00000  Uiso   1.00
C1927  C     0.62096   0.67992   0.79850   0.00000  Uiso   1.00
H1928  H     0.64689   0.99624   0.78300   0.00000  Uiso   1.00
H1929  H     0.61910   0.66789   0.83314   0.00000  Uiso   1.00
H1930  H     0.59345   0.66945   0.78041   0.00000  Uiso   1.00
O1931  O     0.37378   0.91883   0.75809   0.00000  Uiso   1.00
C1932  C     0.37913   0.92815   0.80352   0.00000  Uiso   1.00
H1933  H     0.39623   0.89963   0.82015   0.00000  Uiso   1.00
H1934  H     0.34991   0.93254   0.81957   0.00000  Uiso   1.00
C1935  C     0.40246   0.97344   0.81027   0.00000  Uiso   1.00
H1936  H     0.38490   0.67043   0.79779   0.00000  Uiso   1.00
H1937  H     0.40880   0.97883   0.84590   0.00000  Uiso   1.00
H1938  H     0.43120   0.97158   0.79286   0.00000  Uiso   1.00
C1939  C     0.75397   0.83335   0.75174   0.00000  Uiso   1.00
C1940  C     0.91270   0.83335   0.74826   0.00000  Uiso   1.00
C1941  C     0.76047   0.83404   0.51931   0.00000  Uiso   1.00
C1942  C     0.90620   0.83403   0.98069   0.00000  Uiso   1.00
C1943  C     0.68769   0.79092   0.74905   0.00000  Uiso   1.00
C1944  C     0.97908   0.87622   0.74660   0.00000  Uiso   1.00
C1945  C     0.97898   0.79092   0.75095   0.00000  Uiso   1.00
C1946  C     0.68759   0.87622   0.75339   0.00000  Uiso   1.00
C1947  C     0.95738   0.83347   0.74804   0.00000  Uiso   1.00
C1948  C     0.70929   0.83347   0.75196   0.00000  Uiso   1.00
C1949  C     0.81847   0.69146   0.71471   0.00000  Uiso   1.00
C1950  C     0.84843   0.97520   0.78519   0.00000  Uiso   1.00
C1951  C     0.84820   0.69146   0.78529   0.00000  Uiso   1.00
C1952  C     0.81824   0.97520   0.71481   0.00000  Uiso   1.00
C1953  C     0.83321   0.83327   0.66418   0.00000  Uiso   1.00
C1954  C     0.83346   0.83327   0.83582   0.00000  Uiso   1.00
C1955  C     0.87045   0.84240   0.90905   0.00000  Uiso   1.00
C1956  C     0.79622   0.84240   0.59095   0.00000  Uiso   1.00
C1957  C     0.83474   0.83286   0.88442   0.00000  Uiso   1.00
C1958  C     0.83193   0.83286   0.61559   0.00000  Uiso   1.00
C1959  C     0.79967   0.82137   0.90688   0.00000  Uiso   1.00
C1960  C     0.86700   0.82137   0.59312   0.00000  Uiso   1.00
C1961  C     0.79811   0.83165   0.95205   0.00000  Uiso   1.00
C1962  C     0.86856   0.83164   0.54795   0.00000  Uiso   1.00
C1963  C     0.83387   0.83350   0.97680   0.00000  Uiso   1.00
C1964  C     0.83280   0.83350   0.52320   0.00000  Uiso   1.00
C1965  C     0.87062   0.83537   0.95513   0.00000  Uiso   1.00
C1966  C     0.79605   0.83537   0.54487   0.00000  Uiso   1.00
C1967  C     0.76175   0.83719   0.97354   0.00000  Uiso   1.00
C1968  C     0.90492   0.83718   0.52646   0.00000  Uiso   1.00
Cu1969 Cu    0.83333   0.88022   0.75000   0.00000  Uiso   1.00
Cu1970 Cu    0.83333   0.78645   0.75000   0.00000  Uiso   1.00
H1971  H     0.80616   0.71000   0.68656   0.00000  Uiso   1.00
H1972  H     0.86096   0.95665   0.81323   0.00000  Uiso   1.00
H1973  H     0.86050   0.71000   0.81344   0.00000  Uiso   1.00
H1974  H     0.80570   0.95666   0.68677   0.00000  Uiso   1.00
N1975  N     0.83333   0.95069   0.75000   0.00000  Uiso   1.00
N1976  N     0.83333   0.71598   0.75000   0.00000  Uiso   1.00
O1977  O     0.77321   0.87291   0.75000   0.00000  Uiso   1.00
O1978  O     0.89345   0.79375   0.75001   0.00000  Uiso   1.00
O1979  O     0.89345   0.87291   0.75001   0.00000  Uiso   1.00
O1980  O     0.77321   0.79375   0.75000   0.00000  Uiso   1.00
O1981  O     0.83332   0.87293   0.68513   0.00000  Uiso   1.00
O1982  O     0.83334   0.79373   0.81487   0.00000  Uiso   1.00
O1983  O     0.83334   0.87293   0.81487   0.00000  Uiso   1.00
O1984  O     0.83332   0.79373   0.68513   0.00000  Uiso   1.00
O1985  O     0.90015   0.87068   0.89230   0.00000  Uiso   1.00
C1986  C     0.92248   0.84723   0.86041   0.00000  Uiso   1.00
H1987  H     0.90652   0.84803   0.82880   0.00000  Uiso   1.00
H1988  H     0.92892   0.81009   0.86895   0.00000  Uiso   1.00
C1989  C     0.96118   0.87391   0.85474   0.00000  Uiso   1.00
H1990  H     0.97561   0.88083   0.88713   0.00000  Uiso   1.00
H1991  H     0.98203   0.85344   0.83446   0.00000  Uiso   1.00
H1992  H     0.95445   0.90799   0.83860   0.00000  Uiso   1.00
O1993  O     0.76651   0.87067   0.60770   0.00000  Uiso   1.00
C1994  C     0.74419   0.84720   0.63959   0.00000  Uiso   1.00
H1995  H     0.76014   0.84800   0.67120   0.00000  Uiso   1.00
H1996  H     0.73776   0.81006   0.63104   0.00000  Uiso   1.00
C1997  C     0.70548   0.87387   0.64526   0.00000  Uiso   1.00
H1998  H     0.69105   0.88078   0.61287   0.00000  Uiso   1.00
H1999  H     0.68464   0.85338   0.66554   0.00000  Uiso   1.00
H2000  H     0.71220   0.90795   0.66140   0.00000  Uiso   1.00
O2001  O     0.77755   0.78330   0.89203   0.00000  Uiso   1.00
C2002  C     0.74574   0.79676   0.86389   0.00000  Uiso   1.00
H2003  H     0.75207   0.78426   0.83030   0.00000  Uiso   1.00
H2004  H     0.74062   0.83518   0.86211   0.00000  Uiso   1.00
C2005  C     0.70807   0.77235   0.87921   0.00000  Uiso   1.00
H2006  H     0.70611   0.77442   0.91554   0.00000  Uiso   1.00
H2007  H     0.68136   0.78955   0.86451   0.00000  Uiso   1.00
H2008  H     0.70866   0.73477   0.86965   0.00000  Uiso   1.00
O2009  O     0.88911   0.78328   0.60798   0.00000  Uiso   1.00
C2010  C     0.92094   0.79674   0.63609   0.00000  Uiso   1.00
H2011  H     0.91464   0.78423   0.66969   0.00000  Uiso   1.00
H2012  H     0.92607   0.83516   0.63787   0.00000  Uiso   1.00
C2013  C     0.95860   0.77232   0.62072   0.00000  Uiso   1.00
H2014  H     0.96051   0.77438   0.58439   0.00000  Uiso   1.00
H2015  H     0.98532   0.78952   0.63538   0.00000  Uiso   1.00
H2016  H     0.95802   0.73474   0.63029   0.00000  Uiso   1.00
I2017  I     0.71669   0.87923   0.94335   0.00000  Uiso   1.00
I2018  I     0.94997   0.87923   0.55665   0.00000  Uiso   1.00
I2019  I     0.70804   0.80297   0.54347   0.00000  Uiso   1.00
I2020  I     0.95863   0.80297   0.95652   0.00000  Uiso   1.00
O2021  O     0.70727   0.74818   0.74713   0.00000  Uiso   1.00
C2022  C     0.70725   0.73273   0.70291   0.00000  Uiso   1.00
H2023  H     0.73237   0.74937   0.68530   0.00000  Uiso   1.00
H2024  H     0.67874   0.74041   0.68511   0.00000  Uiso   1.00
C2025  C     0.71235   0.67993   0.70146   0.00000  Uiso   1.00
H2026  H     0.68641   0.99627   0.71698   0.00000  Uiso   1.00
H2027  H     0.71418   0.66791   0.66682   0.00000  Uiso   1.00
H2028  H     0.73986   0.66944   0.71954   0.00000  Uiso   1.00
O2029  O     0.95955   0.91883   0.74189   0.00000  Uiso   1.00
C2030  C     0.95420   0.92814   0.69646   0.00000  Uiso   1.00
H2031  H     0.93712   0.89961   0.67982   0.00000  Uiso   1.00
H2032  H     0.98343   0.93255   0.68042   0.00000  Uiso   1.00
C2033  C     0.93085   0.97341   0.68969   0.00000  Uiso   1.00
H2034  H     0.94841   0.67042   0.70217   0.00000  Uiso   1.00
H2035  H     0.92453   0.97880   0.65406   0.00000  Uiso   1.00
H2036  H     0.90212   0.97154   0.70709   0.00000  Uiso   1.00
O2037  O     0.95940   0.74818   0.75285   0.00000  Uiso   1.00
C2038  C     0.95942   0.73272   0.79707   0.00000  Uiso   1.00
H2039  H     0.93431   0.74937   0.81469   0.00000  Uiso   1.00
H2040  H     0.98794   0.74036   0.81486   0.00000  Uiso   1.00
C2041  C     0.95429   0.67992   0.79850   0.00000  Uiso   1.00
H2042  H     0.98023   0.99624   0.78300   0.00000  Uiso   1.00
H2043  H     0.95244   0.66789   0.83314   0.00000  Uiso   1.00
H2044  H     0.92678   0.66945   0.78041   0.00000  Uiso   1.00
O2045  O     0.70711   0.91883   0.75809   0.00000  Uiso   1.00
C2046  C     0.71247   0.92815   0.80352   0.00000  Uiso   1.00
H2047  H     0.72957   0.89963   0.82015   0.00000  Uiso   1.00
H2048  H     0.68324   0.93254   0.81957   0.00000  Uiso   1.00
C2049  C     0.73580   0.97344   0.81027   0.00000  Uiso   1.00
H2050  H     0.71823   0.67043   0.79779   0.00000  Uiso   1.00
H2051  H     0.74213   0.97883   0.84590   0.00000  Uiso   1.00
H2052  H     0.76453   0.97158   0.79286   0.00000  Uiso   1.00
loop_
_geom_bond_atom_site_label_1
_geom_bond_atom_site_label_2
_geom_bond_distance
_geom_bond_site_symmetry_2
_ccdc_geom_bond_type
C1     C10     1.493   .     S
C1     O39     1.300   .     A
C1     O42     1.301   .     A
C2     O41     1.300   .     A
C2     O40     1.301   .     A
C2     C9      1.493   .     S
C3     C28     1.409   .     A
C3     I81     2.107   .     S
C3     C1055   1.396   1_554 S
C4     I82     2.107   .     S
C4     C27     1.409   .     A
C4     C1056   1.396   .     S
C5     O83     1.385   .     S
C5     C10     1.414   .     A
C5     C235    1.407   1_455 S
C6     C9      1.419   .     A
C6     O91     1.385   .     S
C6     C122    1.409   .     S
C7     O99     1.385   .     S
C7     C9      1.414   .     A
C7     C119    1.407   .     S
C8     O107    1.385   .     S
C8     C10     1.419   .     A
C8     C234    1.409   1_455 S
C11    H33     1.081   .     S
C11    N38     1.366   .     A
C11    C698    1.414   1_545 S
C12    N37     1.366   .     A
C12    H34     1.081   .     S
C12    C355    1.414   .     S
C13    H35     1.081   .     S
C13    N38     1.366   .     A
C13    C696    1.414   1_545 S
C14    H36     1.081   .     S
C14    N37     1.366   .     A
C14    C353    1.414   .     S
C15    C20     1.477   .     S
C15    O43     1.298   .     A
C15    O46     1.295   .     A
C16    O44     1.295   .     A
C16    O45     1.298   .     A
C16    C19     1.477   .     S
C17    C27     1.415   .     A
C17    O47     1.383   .     S
C17    C19     1.423   .     A
C18    C28     1.415   .     A
C18    O55     1.383   .     S
C18    C20     1.423   .     A
C19    C21     1.406   .     A
C20    C22     1.406   .     A
C21    C23     1.406   .     A
C21    O63     1.384   .     S
C22    C24     1.406   .     A
C22    O71     1.384   .     S
C23    C29     1.399   .     A
C23    C25     1.401   .     A
C24    C26     1.401   .     A
C24    C30     1.399   .     A
C25    C27     1.405   .     A
C25    C1052   1.412   .     S
C26    C28     1.405   .     A
C26    C1051   1.412   1_554 S
C29    I79     2.120   .     S
C29    C1029   1.396   .     S
C30    I80     2.120   .     S
C30    C1030   1.396   1_554 S
Cu31   O43     1.983   .     S
Cu31   Cu32    2.674   .     S
Cu31   N37     2.010   .     S
Cu31   O41     2.020   .     S
Cu31   O45     1.983   .     S
Cu31   O39     2.020   .     S
Cu32   N38     2.010   .     S
Cu32   O44     1.983   .     S
Cu32   O40     2.020   .     S
Cu32   O46     1.983   .     S
Cu32   O42     2.020   .     S
O47    C48     1.404   .     S
C48    C51     1.513   .     S
C48    H50     1.111   .     S
C48    H49     1.090   .     S
C51    H54     1.110   .     S
C51    H52     1.106   .     S
C51    H53     1.105   .     S
O55    C56     1.404   .     S
C56    H57     1.090   .     S
C56    C59     1.513   .     S
C56    H58     1.110   .     S
C59    H60     1.106   .     S
C59    H61     1.105   .     S
C59    H62     1.110   .     S
O63    C64     1.405   .     S
C64    C67     1.519   .     S
C64    H66     1.110   .     S
C64    H65     1.106   .     S
C67    H68     1.109   .     S
C67    H69     1.105   .     S
C67    H70     1.111   .     S
O71    C72     1.405   .     S
C72    C75     1.519   .     S
C72    H74     1.110   .     S
C72    H73     1.106   .     S
C75    H76     1.109   .     S
C75    H77     1.105   .     S
C75    H78     1.111   .     S
O83    C84     1.415   .     S
C84    C87     1.516   .     S
C84    H86     1.109   .     S
C84    H85     1.110   .     S
C87    H89     1.110   .     S
C87    H90     1.103   .     S
C87    H772    1.106   1_545 S
H88    C429    1.106   .     S
O91    C92     1.415   .     S
C92    C95     1.520   .     S
C92    H94     1.107   .     S
C92    H93     1.110   .     S
C95    H98     1.106   .     S
C95    H97     1.110   .     S
C95    H438    1.108   .     S
H96    C779    1.108   1_545 S
O99    C100    1.415   .     S
C100   H101    1.110   .     S
C100   H102    1.108   .     S
C100   C103    1.516   .     S
C103   H105    1.110   .     S
C103   H106    1.103   .     S
C103   H788    1.106   1_545 S
H104   C445    1.106   .     S
O107   C108    1.415   .     S
C108   H109    1.110   .     S
C108   H110    1.107   .     S
C108   C111    1.520   .     S
C111   H113    1.110   .     S
C111   H114    1.106   .     S
C111   H454    1.108   .     S
H112   C795    1.108   1_545 S
C115   C124    1.493   .     S
C115   O153    1.300   .     A
C115   O156    1.301   .     A
C116   O155    1.300   .     A
C116   O154    1.301   .     A
C116   C123    1.493   .     S
C117   C142    1.409   .     A
C117   I195    2.107   .     S
C117   C1169   1.396   1_554 S
C118   I196    2.107   .     S
C118   C141    1.409   .     A
C118   C1170   1.396   .     S
C119   O197    1.385   .     S
C119   C124    1.414   .     A
C120   C123    1.419   .     A
C120   O205    1.385   .     S
C120   C236    1.409   .     S
C121   O213    1.385   .     S
C121   C123    1.414   .     A
C121   C233    1.407   .     S
C122   O221    1.385   .     S
C122   C124    1.419   .     A
C125   H147    1.081   .     S
C125   N152    1.366   .     A
C125   C812    1.414   1_545 S
C126   N151    1.366   .     A
C126   H148    1.081   .     S
C126   C469    1.414   .     S
C127   H149    1.081   .     S
C127   N152    1.366   .     A
C127   C810    1.414   1_545 S
C128   H150    1.081   .     S
C128   N151    1.366   .     A
C128   C467    1.414   .     S
C129   C134    1.477   .     S
C129   O157    1.298   .     A
C129   O160    1.295   .     A
C130   O158    1.295   .     A
C130   O159    1.298   .     A
C130   C133    1.477   .     S
C131   C141    1.415   .     A
C131   O161    1.383   .     S
C131   C133    1.423   .     A
C132   C142    1.415   .     A
C132   O169    1.383   .     S
C132   C134    1.423   .     A
C133   C135    1.406   .     A
C134   C136    1.406   .     A
C135   C137    1.406   .     A
C135   O177    1.384   .     S
C136   C138    1.406   .     A
C136   O185    1.384   .     S
C137   C143    1.399   .     A
C137   C139    1.401   .     A
C138   C140    1.401   .     A
C138   C144    1.399   .     A
C139   C141    1.405   .     A
C139   C1166   1.412   .     S
C140   C142    1.405   .     A
C140   C1165   1.412   1_554 S
C143   I193    2.120   .     S
C143   C1143   1.396   .     S
C144   I194    2.120   .     S
C144   C1144   1.396   1_554 S
Cu145  O157    1.983   .     S
Cu145  Cu146   2.674   .     S
Cu145  N151    2.010   .     S
Cu145  O155    2.020   .     S
Cu145  O159    1.983   .     S
Cu145  O153    2.020   .     S
Cu146  N152    2.010   .     S
Cu146  O158    1.983   .     S
Cu146  O154    2.020   .     S
Cu146  O160    1.983   .     S
Cu146  O156    2.020   .     S
O161   C162    1.404   .     S
C162   C165    1.513   .     S
C162   H164    1.111   .     S
C162   H163    1.090   .     S
C165   H168    1.110   .     S
C165   H166    1.106   .     S
C165   H167    1.105   .     S
O169   C170    1.404   .     S
C170   H171    1.090   .     S
C170   C173    1.513   .     S
C170   H172    1.110   .     S
C173   H174    1.106   .     S
C173   H175    1.105   .     S
C173   H176    1.110   .     S
O177   C178    1.405   .     S
C178   C181    1.519   .     S
C178   H180    1.110   .     S
C178   H179    1.106   .     S
C181   H182    1.109   .     S
C181   H183    1.105   .     S
C181   H184    1.111   .     S
O185   C186    1.405   .     S
C186   C189    1.519   .     S
C186   H188    1.110   .     S
C186   H187    1.106   .     S
C189   H190    1.109   .     S
C189   H191    1.105   .     S
C189   H192    1.111   .     S
O197   C198    1.415   .     S
C198   C201    1.516   .     S
C198   H200    1.109   .     S
C198   H199    1.110   .     S
C201   H203    1.110   .     S
C201   H204    1.103   .     S
C201   H886    1.106   1_545 S
H202   C543    1.106   .     S
O205   C206    1.415   .     S
C206   C209    1.520   .     S
C206   H208    1.107   .     S
C206   H207    1.110   .     S
C209   H212    1.106   .     S
C209   H211    1.110   .     S
C209   H552    1.108   .     S
H210   C893    1.108   1_545 S
O213   C214    1.415   .     S
C214   H215    1.110   .     S
C214   H216    1.108   .     S
C214   C217    1.516   .     S
C217   H219    1.110   .     S
C217   H220    1.103   .     S
C217   H902    1.106   1_545 S
H218   C559    1.106   .     S
O221   C222    1.415   .     S
C222   H223    1.110   .     S
C222   H224    1.107   .     S
C222   C225    1.520   .     S
C225   H227    1.110   .     S
C225   H228    1.106   .     S
C225   H568    1.108   .     S
H226   C909    1.108   1_545 S
C229   C238    1.493   .     S
C229   O267    1.300   .     A
C229   O270    1.301   .     A
C230   O269    1.300   .     A
C230   O268    1.301   .     A
C230   C237    1.493   .     S
C231   C256    1.409   .     A
C231   I309    2.107   .     S
C231   C1283   1.396   1_554 S
C232   I310    2.107   .     S
C232   C255    1.409   .     A
C232   C1284   1.396   .     S
C233   O311    1.385   .     S
C233   C238    1.414   .     A
C234   C237    1.419   .     A
C234   O319    1.385   .     S
C234   C8      1.409   1_655 S
C235   O327    1.385   .     S
C235   C237    1.414   .     A
C235   C5      1.407   1_655 S
C236   O335    1.385   .     S
C236   C238    1.419   .     A
C239   H261    1.081   .     S
C239   N266    1.366   .     A
C239   C926    1.414   1_545 S
C240   N265    1.366   .     A
C240   H262    1.081   .     S
C240   C583    1.414   .     S
C241   H263    1.081   .     S
C241   N266    1.366   .     A
C241   C924    1.414   1_545 S
C242   H264    1.081   .     S
C242   N265    1.366   .     A
C242   C581    1.414   .     S
C243   C248    1.477   .     S
C243   O271    1.298   .     A
C243   O274    1.295   .     A
C244   O272    1.295   .     A
C244   O273    1.298   .     A
C244   C247    1.477   .     S
C245   C255    1.415   .     A
C245   O275    1.383   .     S
C245   C247    1.423   .     A
C246   C256    1.415   .     A
C246   O283    1.383   .     S
C246   C248    1.423   .     A
C247   C249    1.406   .     A
C248   C250    1.406   .     A
C249   C251    1.406   .     A
C249   O291    1.384   .     S
C250   C252    1.406   .     A
C250   O299    1.384   .     S
C251   C257    1.399   .     A
C251   C253    1.401   .     A
C252   C254    1.401   .     A
C252   C258    1.399   .     A
C253   C255    1.405   .     A
C253   C1280   1.412   .     S
C254   C256    1.405   .     A
C254   C1279   1.412   1_554 S
C257   I307    2.120   .     S
C257   C1257   1.396   .     S
C258   I308    2.120   .     S
C258   C1258   1.396   1_554 S
Cu259  O271    1.983   .     S
Cu259  Cu260   2.674   .     S
Cu259  N265    2.010   .     S
Cu259  O269    2.020   .     S
Cu259  O273    1.983   .     S
Cu259  O267    2.020   .     S
Cu260  N266    2.010   .     S
Cu260  O272    1.983   .     S
Cu260  O268    2.020   .     S
Cu260  O274    1.983   .     S
Cu260  O270    2.020   .     S
O275   C276    1.404   .     S
C276   C279    1.513   .     S
C276   H278    1.111   .     S
C276   H277    1.090   .     S
C279   H282    1.110   .     S
C279   H280    1.106   .     S
C279   H281    1.105   .     S
O283   C284    1.404   .     S
C284   H285    1.090   .     S
C284   C287    1.513   .     S
C284   H286    1.110   .     S
C287   H288    1.106   .     S
C287   H289    1.105   .     S
C287   H290    1.110   .     S
O291   C292    1.405   .     S
C292   C295    1.519   .     S
C292   H294    1.110   .     S
C292   H293    1.106   .     S
C295   H296    1.109   .     S
C295   H297    1.105   .     S
C295   H298    1.111   .     S
O299   C300    1.405   .     S
C300   C303    1.519   .     S
C300   H302    1.110   .     S
C300   H301    1.106   .     S
C303   H304    1.109   .     S
C303   H305    1.105   .     S
C303   H306    1.111   .     S
O311   C312    1.415   .     S
C312   C315    1.516   .     S
C312   H314    1.109   .     S
C312   H313    1.110   .     S
C315   H317    1.110   .     S
C315   H318    1.103   .     S
C315   H1000   1.106   1_545 S
H316   C657    1.106   .     S
O319   C320    1.415   .     S
C320   C323    1.520   .     S
C320   H322    1.107   .     S
C320   H321    1.110   .     S
C323   H326    1.106   .     S
C323   H325    1.110   .     S
C323   H666    1.108   .     S
H324   C1007   1.108   1_545 S
O327   C328    1.415   .     S
C328   H329    1.110   .     S
C328   H330    1.108   .     S
C328   C331    1.516   .     S
C331   H333    1.110   .     S
C331   H334    1.103   .     S
C331   H1016   1.106   1_545 S
H332   C673    1.106   .     S
O335   C336    1.415   .     S
C336   H337    1.110   .     S
C336   H338    1.107   .     S
C336   C339    1.520   .     S
C339   H341    1.110   .     S
C339   H342    1.106   .     S
C339   H682    1.108   .     S
H340   C1023   1.108   1_545 S
C343   C352    1.493   .     S
C343   O381    1.300   .     A
C343   O384    1.301   .     A
C344   O383    1.300   .     A
C344   O382    1.301   .     A
C344   C351    1.493   .     S
C345   C370    1.409   .     A
C345   I423    2.107   .     S
C345   C1397   1.396   1_554 S
C346   I424    2.107   .     S
C346   C369    1.409   .     A
C346   C1398   1.396   .     S
C347   O425    1.385   .     S
C347   C352    1.414   .     A
C347   C577    1.407   1_455 S
C348   C351    1.419   .     A
C348   O433    1.385   .     S
C348   C464    1.409   .     S
C349   O441    1.385   .     S
C349   C351    1.414   .     A
C349   C461    1.407   .     S
C350   O449    1.385   .     S
C350   C352    1.419   .     A
C350   C576    1.409   1_455 S
C353   H375    1.081   .     S
C353   N380    1.366   .     A
C354   N379    1.366   .     A
C354   H376    1.081   .     S
C354   C697    1.414   .     S
C355   H377    1.081   .     S
C355   N380    1.366   .     A
C356   H378    1.081   .     S
C356   N379    1.366   .     A
C356   C695    1.414   .     S
C357   C362    1.477   .     S
C357   O385    1.298   .     A
C357   O388    1.295   .     A
C358   O386    1.295   .     A
C358   O387    1.298   .     A
C358   C361    1.477   .     S
C359   C369    1.415   .     A
C359   O389    1.383   .     S
C359   C361    1.423   .     A
C360   C370    1.415   .     A
C360   O397    1.383   .     S
C360   C362    1.423   .     A
C361   C363    1.406   .     A
C362   C364    1.406   .     A
C363   C365    1.406   .     A
C363   O405    1.384   .     S
C364   C366    1.406   .     A
C364   O413    1.384   .     S
C365   C371    1.399   .     A
C365   C367    1.401   .     A
C366   C368    1.401   .     A
C366   C372    1.399   .     A
C367   C369    1.405   .     A
C367   C1394   1.412   .     S
C368   C370    1.405   .     A
C368   C1393   1.412   1_554 S
C371   I421    2.120   .     S
C371   C1371   1.396   .     S
C372   I422    2.120   .     S
C372   C1372   1.396   1_554 S
Cu373  O385    1.983   .     S
Cu373  Cu374   2.674   .     S
Cu373  N379    2.010   .     S
Cu373  O383    2.020   .     S
Cu373  O387    1.983   .     S
Cu373  O381    2.020   .     S
Cu374  N380    2.010   .     S
Cu374  O386    1.983   .     S
Cu374  O382    2.020   .     S
Cu374  O388    1.983   .     S
Cu374  O384    2.020   .     S
O389   C390    1.404   .     S
C390   C393    1.513   .     S
C390   H392    1.111   .     S
C390   H391    1.090   .     S
C393   H396    1.110   .     S
C393   H394    1.106   .     S
C393   H395    1.105   .     S
O397   C398    1.404   .     S
C398   H399    1.090   .     S
C398   C401    1.513   .     S
C398   H400    1.110   .     S
C401   H402    1.106   .     S
C401   H403    1.105   .     S
C401   H404    1.110   .     S
O405   C406    1.405   .     S
C406   C409    1.519   .     S
C406   H408    1.110   .     S
C406   H407    1.106   .     S
C409   H410    1.109   .     S
C409   H411    1.105   .     S
C409   H412    1.111   .     S
O413   C414    1.405   .     S
C414   C417    1.519   .     S
C414   H416    1.110   .     S
C414   H415    1.106   .     S
C417   H418    1.109   .     S
C417   H419    1.105   .     S
C417   H420    1.111   .     S
O425   C426    1.415   .     S
C426   C429    1.516   .     S
C426   H428    1.109   .     S
C426   H427    1.110   .     S
C429   H431    1.110   .     S
C429   H432    1.103   .     S
H430   C771    1.106   .     S
O433   C434    1.415   .     S
C434   C437    1.520   .     S
C434   H436    1.107   .     S
C434   H435    1.110   .     S
C437   H440    1.106   .     S
C437   H439    1.110   .     S
C437   H780    1.108   .     S
O441   C442    1.415   .     S
C442   H443    1.110   .     S
C442   H444    1.108   .     S
C442   C445    1.516   .     S
C445   H447    1.110   .     S
C445   H448    1.103   .     S
H446   C787    1.106   .     S
O449   C450    1.415   .     S
C450   H451    1.110   .     S
C450   H452    1.107   .     S
C450   C453    1.520   .     S
C453   H455    1.110   .     S
C453   H456    1.106   .     S
C453   H796    1.108   .     S
C457   C466    1.493   .     S
C457   O495    1.300   .     A
C457   O498    1.301   .     A
C458   O497    1.300   .     A
C458   O496    1.301   .     A
C458   C465    1.493   .     S
C459   C484    1.409   .     A
C459   I537    2.107   .     S
C459   C1511   1.396   1_554 S
C460   I538    2.107   .     S
C460   C483    1.409   .     A
C460   C1512   1.396   .     S
C461   O539    1.385   .     S
C461   C466    1.414   .     A
C462   C465    1.419   .     A
C462   O547    1.385   .     S
C462   C578    1.409   .     S
C463   O555    1.385   .     S
C463   C465    1.414   .     A
C463   C575    1.407   .     S
C464   O563    1.385   .     S
C464   C466    1.419   .     A
C467   H489    1.081   .     S
C467   N494    1.366   .     A
C468   N493    1.366   .     A
C468   H490    1.081   .     S
C468   C811    1.414   .     S
C469   H491    1.081   .     S
C469   N494    1.366   .     A
C470   H492    1.081   .     S
C470   N493    1.366   .     A
C470   C809    1.414   .     S
C471   C476    1.477   .     S
C471   O499    1.298   .     A
C471   O502    1.295   .     A
C472   O500    1.295   .     A
C472   O501    1.298   .     A
C472   C475    1.477   .     S
C473   C483    1.415   .     A
C473   O503    1.383   .     S
C473   C475    1.423   .     A
C474   C484    1.415   .     A
C474   O511    1.383   .     S
C474   C476    1.423   .     A
C475   C477    1.406   .     A
C476   C478    1.406   .     A
C477   C479    1.406   .     A
C477   O519    1.384   .     S
C478   C480    1.406   .     A
C478   O527    1.384   .     S
C479   C485    1.399   .     A
C479   C481    1.401   .     A
C480   C482    1.401   .     A
C480   C486    1.399   .     A
C481   C483    1.405   .     A
C481   C1508   1.412   .     S
C482   C484    1.405   .     A
C482   C1507   1.412   1_554 S
C485   I535    2.120   .     S
C485   C1485   1.396   .     S
C486   I536    2.120   .     S
C486   C1486   1.396   1_554 S
Cu487  O499    1.983   .     S
Cu487  Cu488   2.674   .     S
Cu487  N493    2.010   .     S
Cu487  O497    2.020   .     S
Cu487  O501    1.983   .     S
Cu487  O495    2.020   .     S
Cu488  N494    2.010   .     S
Cu488  O500    1.983   .     S
Cu488  O496    2.020   .     S
Cu488  O502    1.983   .     S
Cu488  O498    2.020   .     S
O503   C504    1.404   .     S
C504   C507    1.513   .     S
C504   H506    1.111   .     S
C504   H505    1.090   .     S
C507   H510    1.110   .     S
C507   H508    1.106   .     S
C507   H509    1.105   .     S
O511   C512    1.404   .     S
C512   H513    1.090   .     S
C512   C515    1.513   .     S
C512   H514    1.110   .     S
C515   H516    1.106   .     S
C515   H517    1.105   .     S
C515   H518    1.110   .     S
O519   C520    1.405   .     S
C520   C523    1.519   .     S
C520   H522    1.110   .     S
C520   H521    1.106   .     S
C523   H524    1.109   .     S
C523   H525    1.105   .     S
C523   H526    1.111   .     S
O527   C528    1.405   .     S
C528   C531    1.519   .     S
C528   H530    1.110   .     S
C528   H529    1.106   .     S
C531   H532    1.109   .     S
C531   H533    1.105   .     S
C531   H534    1.111   .     S
O539   C540    1.415   .     S
C540   C543    1.516   .     S
C540   H542    1.109   .     S
C540   H541    1.110   .     S
C543   H545    1.110   .     S
C543   H546    1.103   .     S
H544   C885    1.106   .     S
O547   C548    1.415   .     S
C548   C551    1.520   .     S
C548   H550    1.107   .     S
C548   H549    1.110   .     S
C551   H554    1.106   .     S
C551   H553    1.110   .     S
C551   H894    1.108   .     S
O555   C556    1.415   .     S
C556   H557    1.110   .     S
C556   H558    1.108   .     S
C556   C559    1.516   .     S
C559   H561    1.110   .     S
C559   H562    1.103   .     S
H560   C901    1.106   .     S
O563   C564    1.415   .     S
C564   H565    1.110   .     S
C564   H566    1.107   .     S
C564   C567    1.520   .     S
C567   H569    1.110   .     S
C567   H570    1.106   .     S
C567   H910    1.108   .     S
C571   C580    1.493   .     S
C571   O609    1.300   .     A
C571   O612    1.301   .     A
C572   O611    1.300   .     A
C572   O610    1.301   .     A
C572   C579    1.493   .     S
C573   C598    1.409   .     A
C573   I651    2.107   .     S
C573   C1625   1.396   1_554 S
C574   I652    2.107   .     S
C574   C597    1.409   .     A
C574   C1626   1.396   .     S
C575   O653    1.385   .     S
C575   C580    1.414   .     A
C576   C579    1.419   .     A
C576   O661    1.385   .     S
C576   C350    1.409   1_655 S
C577   O669    1.385   .     S
C577   C579    1.414   .     A
C577   C347    1.407   1_655 S
C578   O677    1.385   .     S
C578   C580    1.419   .     A
C581   H603    1.081   .     S
C581   N608    1.366   .     A
C582   N607    1.366   .     A
C582   H604    1.081   .     S
C582   C925    1.414   .     S
C583   H605    1.081   .     S
C583   N608    1.366   .     A
C584   H606    1.081   .     S
C584   N607    1.366   .     A
C584   C923    1.414   .     S
C585   C590    1.477   .     S
C585   O613    1.298   .     A
C585   O616    1.295   .     A
C586   O614    1.295   .     A
C586   O615    1.298   .     A
C586   C589    1.477   .     S
C587   C597    1.415   .     A
C587   O617    1.383   .     S
C587   C589    1.423   .     A
C588   C598    1.415   .     A
C588   O625    1.383   .     S
C588   C590    1.423   .     A
C589   C591    1.406   .     A
C590   C592    1.406   .     A
C591   C593    1.406   .     A
C591   O633    1.384   .     S
C592   C594    1.406   .     A
C592   O641    1.384   .     S
C593   C599    1.399   .     A
C593   C595    1.401   .     A
C594   C596    1.401   .     A
C594   C600    1.399   .     A
C595   C597    1.405   .     A
C595   C1622   1.412   .     S
C596   C598    1.405   .     A
C596   C1621   1.412   1_554 S
C599   I649    2.120   .     S
C599   C1599   1.396   .     S
C600   I650    2.120   .     S
C600   C1600   1.396   1_554 S
Cu601  O613    1.983   .     S
Cu601  Cu602   2.674   .     S
Cu601  N607    2.010   .     S
Cu601  O611    2.020   .     S
Cu601  O615    1.983   .     S
Cu601  O609    2.020   .     S
Cu602  N608    2.010   .     S
Cu602  O614    1.983   .     S
Cu602  O610    2.020   .     S
Cu602  O616    1.983   .     S
Cu602  O612    2.020   .     S
O617   C618    1.404   .     S
C618   C621    1.513   .     S
C618   H620    1.111   .     S
C618   H619    1.090   .     S
C621   H624    1.110   .     S
C621   H622    1.106   .     S
C621   H623    1.105   .     S
O625   C626    1.404   .     S
C626   H627    1.090   .     S
C626   C629    1.513   .     S
C626   H628    1.110   .     S
C629   H630    1.106   .     S
C629   H631    1.105   .     S
C629   H632    1.110   .     S
O633   C634    1.405   .     S
C634   C637    1.519   .     S
C634   H636    1.110   .     S
C634   H635    1.106   .     S
C637   H638    1.109   .     S
C637   H639    1.105   .     S
C637   H640    1.111   .     S
O641   C642    1.405   .     S
C642   C645    1.519   .     S
C642   H644    1.110   .     S
C642   H643    1.106   .     S
C645   H646    1.109   .     S
C645   H647    1.105   .     S
C645   H648    1.111   .     S
O653   C654    1.415   .     S
C654   C657    1.516   .     S
C654   H656    1.109   .     S
C654   H655    1.110   .     S
C657   H659    1.110   .     S
C657   H660    1.103   .     S
H658   C999    1.106   .     S
O661   C662    1.415   .     S
C662   C665    1.520   .     S
C662   H664    1.107   .     S
C662   H663    1.110   .     S
C665   H668    1.106   .     S
C665   H667    1.110   .     S
C665   H1008   1.108   .     S
O669   C670    1.415   .     S
C670   H671    1.110   .     S
C670   H672    1.108   .     S
C670   C673    1.516   .     S
C673   H675    1.110   .     S
C673   H676    1.103   .     S
H674   C1015   1.106   .     S
O677   C678    1.415   .     S
C678   H679    1.110   .     S
C678   H680    1.107   .     S
C678   C681    1.520   .     S
C681   H683    1.110   .     S
C681   H684    1.106   .     S
C681   H1024   1.108   .     S
C685   C694    1.493   .     S
C685   O723    1.300   .     A
C685   O726    1.301   .     A
C686   O725    1.300   .     A
C686   O724    1.301   .     A
C686   C693    1.493   .     S
C687   C712    1.409   .     A
C687   I765    2.107   .     S
C687   C1739   1.396   1_554 S
C688   I766    2.107   .     S
C688   C711    1.409   .     A
C688   C1740   1.396   .     S
C689   O767    1.385   .     S
C689   C694    1.414   .     A
C689   C919    1.407   1_455 S
C690   C693    1.419   .     A
C690   O775    1.385   .     S
C690   C806    1.409   .     S
C691   O783    1.385   .     S
C691   C693    1.414   .     A
C691   C803    1.407   .     S
C692   O791    1.385   .     S
C692   C694    1.419   .     A
C692   C918    1.409   1_455 S
C695   H717    1.081   .     S
C695   N722    1.366   .     A
C696   N721    1.366   .     A
C696   H718    1.081   .     S
C696   C13     1.414   1_565 S
C697   H719    1.081   .     S
C697   N722    1.366   .     A
C698   H720    1.081   .     S
C698   N721    1.366   .     A
C698   C11     1.414   1_565 S
C699   C704    1.477   .     S
C699   O727    1.298   .     A
C699   O730    1.295   .     A
C700   O728    1.295   .     A
C700   O729    1.298   .     A
C700   C703    1.477   .     S
C701   C711    1.415   .     A
C701   O731    1.383   .     S
C701   C703    1.423   .     A
C702   C712    1.415   .     A
C702   O739    1.383   .     S
C702   C704    1.423   .     A
C703   C705    1.406   .     A
C704   C706    1.406   .     A
C705   C707    1.406   .     A
C705   O747    1.384   .     S
C706   C708    1.406   .     A
C706   O755    1.384   .     S
C707   C713    1.399   .     A
C707   C709    1.401   .     A
C708   C710    1.401   .     A
C708   C714    1.399   .     A
C709   C711    1.405   .     A
C709   C1736   1.412   .     S
C710   C712    1.405   .     A
C710   C1735   1.412   1_554 S
C713   I763    2.120   .     S
C713   C1713   1.396   .     S
C714   I764    2.120   .     S
C714   C1714   1.396   1_554 S
Cu715  O727    1.983   .     S
Cu715  Cu716   2.674   .     S
Cu715  N721    2.010   .     S
Cu715  O725    2.020   .     S
Cu715  O729    1.983   .     S
Cu715  O723    2.020   .     S
Cu716  N722    2.010   .     S
Cu716  O728    1.983   .     S
Cu716  O724    2.020   .     S
Cu716  O730    1.983   .     S
Cu716  O726    2.020   .     S
O731   C732    1.404   .     S
C732   C735    1.513   .     S
C732   H734    1.111   .     S
C732   H733    1.090   .     S
C735   H738    1.110   .     S
C735   H736    1.106   .     S
C735   H737    1.105   .     S
O739   C740    1.404   .     S
C740   H741    1.090   .     S
C740   C743    1.513   .     S
C740   H742    1.110   .     S
C743   H744    1.106   .     S
C743   H745    1.105   .     S
C743   H746    1.110   .     S
O747   C748    1.405   .     S
C748   C751    1.519   .     S
C748   H750    1.110   .     S
C748   H749    1.106   .     S
C751   H752    1.109   .     S
C751   H753    1.105   .     S
C751   H754    1.111   .     S
O755   C756    1.405   .     S
C756   C759    1.519   .     S
C756   H758    1.110   .     S
C756   H757    1.106   .     S
C759   H760    1.109   .     S
C759   H761    1.105   .     S
C759   H762    1.111   .     S
O767   C768    1.415   .     S
C768   C771    1.516   .     S
C768   H770    1.109   .     S
C768   H769    1.110   .     S
C771   H773    1.110   .     S
C771   H774    1.103   .     S
H772   C87     1.106   1_565 S
O775   C776    1.415   .     S
C776   C779    1.520   .     S
C776   H778    1.107   .     S
C776   H777    1.110   .     S
C779   H782    1.106   .     S
C779   H781    1.110   .     S
C779   H96     1.108   1_565 S
O783   C784    1.415   .     S
C784   H785    1.110   .     S
C784   H786    1.108   .     S
C784   C787    1.516   .     S
C787   H789    1.110   .     S
C787   H790    1.103   .     S
H788   C103    1.106   1_565 S
O791   C792    1.415   .     S
C792   H793    1.110   .     S
C792   H794    1.107   .     S
C792   C795    1.520   .     S
C795   H797    1.110   .     S
C795   H798    1.106   .     S
C795   H112    1.108   1_565 S
C799   C808    1.493   .     S
C799   O837    1.300   .     A
C799   O840    1.301   .     A
C800   O839    1.300   .     A
C800   O838    1.301   .     A
C800   C807    1.493   .     S
C801   C826    1.409   .     A
C801   I879    2.107   .     S
C801   C1853   1.396   1_554 S
C802   I880    2.107   .     S
C802   C825    1.409   .     A
C802   C1854   1.396   .     S
C803   O881    1.385   .     S
C803   C808    1.414   .     A
C804   C807    1.419   .     A
C804   O889    1.385   .     S
C804   C920    1.409   .     S
C805   O897    1.385   .     S
C805   C807    1.414   .     A
C805   C917    1.407   .     S
C806   O905    1.385   .     S
C806   C808    1.419   .     A
C809   H831    1.081   .     S
C809   N836    1.366   .     A
C810   N835    1.366   .     A
C810   H832    1.081   .     S
C810   C127    1.414   1_565 S
C811   H833    1.081   .     S
C811   N836    1.366   .     A
C812   H834    1.081   .     S
C812   N835    1.366   .     A
C812   C125    1.414   1_565 S
C813   C818    1.477   .     S
C813   O841    1.298   .     A
C813   O844    1.295   .     A
C814   O842    1.295   .     A
C814   O843    1.298   .     A
C814   C817    1.477   .     S
C815   C825    1.415   .     A
C815   O845    1.383   .     S
C815   C817    1.423   .     A
C816   C826    1.415   .     A
C816   O853    1.383   .     S
C816   C818    1.423   .     A
C817   C819    1.406   .     A
C818   C820    1.406   .     A
C819   C821    1.406   .     A
C819   O861    1.384   .     S
C820   C822    1.406   .     A
C820   O869    1.384   .     S
C821   C827    1.399   .     A
C821   C823    1.401   .     A
C822   C824    1.401   .     A
C822   C828    1.399   .     A
C823   C825    1.405   .     A
C823   C1850   1.412   .     S
C824   C826    1.405   .     A
C824   C1849   1.412   1_554 S
C827   I877    2.120   .     S
C827   C1827   1.396   .     S
C828   I878    2.120   .     S
C828   C1828   1.396   1_554 S
Cu829  O841    1.983   .     S
Cu829  Cu830   2.674   .     S
Cu829  N835    2.010   .     S
Cu829  O839    2.020   .     S
Cu829  O843    1.983   .     S
Cu829  O837    2.020   .     S
Cu830  N836    2.010   .     S
Cu830  O842    1.983   .     S
Cu830  O838    2.020   .     S
Cu830  O844    1.983   .     S
Cu830  O840    2.020   .     S
O845   C846    1.404   .     S
C846   C849    1.513   .     S
C846   H848    1.111   .     S
C846   H847    1.090   .     S
C849   H852    1.110   .     S
C849   H850    1.106   .     S
C849   H851    1.105   .     S
O853   C854    1.404   .     S
C854   H855    1.090   .     S
C854   C857    1.513   .     S
C854   H856    1.110   .     S
C857   H858    1.106   .     S
C857   H859    1.105   .     S
C857   H860    1.110   .     S
O861   C862    1.405   .     S
C862   C865    1.519   .     S
C862   H864    1.110   .     S
C862   H863    1.106   .     S
C865   H866    1.109   .     S
C865   H867    1.105   .     S
C865   H868    1.111   .     S
O869   C870    1.405   .     S
C870   C873    1.519   .     S
C870   H872    1.110   .     S
C870   H871    1.106   .     S
C873   H874    1.109   .     S
C873   H875    1.105   .     S
C873   H876    1.111   .     S
O881   C882    1.415   .     S
C882   C885    1.516   .     S
C882   H884    1.109   .     S
C882   H883    1.110   .     S
C885   H887    1.110   .     S
C885   H888    1.103   .     S
H886   C201    1.106   1_565 S
O889   C890    1.415   .     S
C890   C893    1.520   .     S
C890   H892    1.107   .     S
C890   H891    1.110   .     S
C893   H896    1.106   .     S
C893   H895    1.110   .     S
C893   H210    1.108   1_565 S
O897   C898    1.415   .     S
C898   H899    1.110   .     S
C898   H900    1.108   .     S
C898   C901    1.516   .     S
C901   H903    1.110   .     S
C901   H904    1.103   .     S
H902   C217    1.106   1_565 S
O905   C906    1.415   .     S
C906   H907    1.110   .     S
C906   H908    1.107   .     S
C906   C909    1.520   .     S
C909   H911    1.110   .     S
C909   H912    1.106   .     S
C909   H226    1.108   1_565 S
C913   C922    1.493   .     S
C913   O951    1.300   .     A
C913   O954    1.301   .     A
C914   O953    1.300   .     A
C914   O952    1.301   .     A
C914   C921    1.493   .     S
C915   C940    1.409   .     A
C915   I993    2.107   .     S
C915   C1967   1.396   1_554 S
C916   I994    2.107   .     S
C916   C939    1.409   .     A
C916   C1968   1.396   .     S
C917   O995    1.385   .     S
C917   C922    1.414   .     A
C918   C921    1.419   .     A
C918   O1003   1.385   .     S
C918   C692    1.409   1_655 S
C919   O1011   1.385   .     S
C919   C921    1.414   .     A
C919   C689    1.407   1_655 S
C920   O1019   1.385   .     S
C920   C922    1.419   .     A
C923   H945    1.081   .     S
C923   N950    1.366   .     A
C924   N949    1.366   .     A
C924   H946    1.081   .     S
C924   C241    1.414   1_565 S
C925   H947    1.081   .     S
C925   N950    1.366   .     A
C926   H948    1.081   .     S
C926   N949    1.366   .     A
C926   C239    1.414   1_565 S
C927   C932    1.477   .     S
C927   O955    1.298   .     A
C927   O958    1.295   .     A
C928   O956    1.295   .     A
C928   O957    1.298   .     A
C928   C931    1.477   .     S
C929   C939    1.415   .     A
C929   O959    1.383   .     S
C929   C931    1.423   .     A
C930   C940    1.415   .     A
C930   O967    1.383   .     S
C930   C932    1.423   .     A
C931   C933    1.406   .     A
C932   C934    1.406   .     A
C933   C935    1.406   .     A
C933   O975    1.384   .     S
C934   C936    1.406   .     A
C934   O983    1.384   .     S
C935   C941    1.399   .     A
C935   C937    1.401   .     A
C936   C938    1.401   .     A
C936   C942    1.399   .     A
C937   C939    1.405   .     A
C937   C1964   1.412   .     S
C938   C940    1.405   .     A
C938   C1963   1.412   1_554 S
C941   I991    2.120   .     S
C941   C1941   1.396   .     S
C942   I992    2.120   .     S
C942   C1942   1.396   1_554 S
Cu943  O955    1.983   .     S
Cu943  Cu944   2.674   .     S
Cu943  N949    2.010   .     S
Cu943  O953    2.020   .     S
Cu943  O957    1.983   .     S
Cu943  O951    2.020   .     S
Cu944  N950    2.010   .     S
Cu944  O956    1.983   .     S
Cu944  O952    2.020   .     S
Cu944  O958    1.983   .     S
Cu944  O954    2.020   .     S
O959   C960    1.404   .     S
C960   C963    1.513   .     S
C960   H962    1.111   .     S
C960   H961    1.090   .     S
C963   H966    1.110   .     S
C963   H964    1.106   .     S
C963   H965    1.105   .     S
O967   C968    1.404   .     S
C968   H969    1.090   .     S
C968   C971    1.513   .     S
C968   H970    1.110   .     S
C971   H972    1.106   .     S
C971   H973    1.105   .     S
C971   H974    1.110   .     S
O975   C976    1.405   .     S
C976   C979    1.519   .     S
C976   H978    1.110   .     S
C976   H977    1.106   .     S
C979   H980    1.109   .     S
C979   H981    1.105   .     S
C979   H982    1.111   .     S
O983   C984    1.405   .     S
C984   C987    1.519   .     S
C984   H986    1.110   .     S
C984   H985    1.106   .     S
C987   H988    1.109   .     S
C987   H989    1.105   .     S
C987   H990    1.111   .     S
O995   C996    1.415   .     S
C996   C999    1.516   .     S
C996   H998    1.109   .     S
C996   H997    1.110   .     S
C999   H1001   1.110   .     S
C999   H1002   1.103   .     S
H1000  C315    1.106   1_565 S
O1003  C1004   1.415   .     S
C1004  C1007   1.520   .     S
C1004  H1006   1.107   .     S
C1004  H1005   1.110   .     S
C1007  H1010   1.106   .     S
C1007  H1009   1.110   .     S
C1007  H324    1.108   1_565 S
O1011  C1012   1.415   .     S
C1012  H1013   1.110   .     S
C1012  H1014   1.108   .     S
C1012  C1015   1.516   .     S
C1015  H1017   1.110   .     S
C1015  H1018   1.103   .     S
H1016  C331    1.106   1_565 S
O1019  C1020   1.415   .     S
C1020  H1021   1.110   .     S
C1020  H1022   1.107   .     S
C1020  C1023   1.520   .     S
C1023  H1025   1.110   .     S
C1023  H1026   1.106   .     S
C1023  H340    1.108   1_565 S
C1027  C1036   1.493   .     S
C1027  O1065   1.300   .     A
C1027  O1068   1.301   .     A
C1028  O1067   1.300   .     A
C1028  O1066   1.301   .     A
C1028  C1035   1.493   .     S
C1029  C1054   1.409   .     A
C1029  I1107   2.107   .     S
C1030  I1108   2.107   .     S
C1030  C1053   1.409   .     A
C1030  C30     1.396   1_556 S
C1031  O1109   1.385   .     S
C1031  C1036   1.414   .     A
C1031  C1261   1.407   1_455 S
C1032  C1035   1.419   .     A
C1032  O1117   1.385   .     S
C1032  C1148   1.409   .     S
C1033  O1125   1.385   .     S
C1033  C1035   1.414   .     A
C1033  C1145   1.407   .     S
C1034  O1133   1.385   .     S
C1034  C1036   1.419   .     A
C1034  C1260   1.409   1_455 S
C1037  H1059   1.081   .     S
C1037  N1064   1.366   .     A
C1037  C1724   1.414   1_545 S
C1038  N1063   1.366   .     A
C1038  H1060   1.081   .     S
C1038  C1381   1.414   .     S
C1039  H1061   1.081   .     S
C1039  N1064   1.366   .     A
C1039  C1722   1.414   1_545 S
C1040  H1062   1.081   .     S
C1040  N1063   1.366   .     A
C1040  C1379   1.414   .     S
C1041  C1046   1.477   .     S
C1041  O1069   1.298   .     A
C1041  O1072   1.295   .     A
C1042  O1070   1.295   .     A
C1042  O1071   1.298   .     A
C1042  C1045   1.477   .     S
C1043  C1053   1.415   .     A
C1043  O1073   1.383   .     S
C1043  C1045   1.423   .     A
C1044  C1054   1.415   .     A
C1044  O1081   1.383   .     S
C1044  C1046   1.423   .     A
C1045  C1047   1.406   .     A
C1046  C1048   1.406   .     A
C1047  C1049   1.406   .     A
C1047  O1089   1.384   .     S
C1048  C1050   1.406   .     A
C1048  O1097   1.384   .     S
C1049  C1055   1.399   .     A
C1049  C1051   1.401   .     A
C1050  C1052   1.401   .     A
C1050  C1056   1.399   .     A
C1051  C1053   1.405   .     A
C1051  C26     1.412   1_556 S
C1052  C1054   1.405   .     A
C1055  I1105   2.120   .     S
C1055  C3      1.396   1_556 S
C1056  I1106   2.120   .     S
Cu1057 O1069   1.983   .     S
Cu1057 Cu1058  2.674   .     S
Cu1057 N1063   2.010   .     S
Cu1057 O1067   2.020   .     S
Cu1057 O1071   1.983   .     S
Cu1057 O1065   2.020   .     S
Cu1058 N1064   2.010   .     S
Cu1058 O1070   1.983   .     S
Cu1058 O1066   2.020   .     S
Cu1058 O1072   1.983   .     S
Cu1058 O1068   2.020   .     S
O1073  C1074   1.404   .     S
C1074  C1077   1.513   .     S
C1074  H1076   1.111   .     S
C1074  H1075   1.090   .     S
C1077  H1080   1.110   .     S
C1077  H1078   1.106   .     S
C1077  H1079   1.105   .     S
O1081  C1082   1.404   .     S
C1082  H1083   1.090   .     S
C1082  C1085   1.513   .     S
C1082  H1084   1.110   .     S
C1085  H1086   1.106   .     S
C1085  H1087   1.105   .     S
C1085  H1088   1.110   .     S
O1089  C1090   1.405   .     S
C1090  C1093   1.519   .     S
C1090  H1092   1.110   .     S
C1090  H1091   1.106   .     S
C1093  H1094   1.109   .     S
C1093  H1095   1.105   .     S
C1093  H1096   1.111   .     S
O1097  C1098   1.405   .     S
C1098  C1101   1.519   .     S
C1098  H1100   1.110   .     S
C1098  H1099   1.106   .     S
C1101  H1102   1.109   .     S
C1101  H1103   1.105   .     S
C1101  H1104   1.111   .     S
O1109  C1110   1.415   .     S
C1110  C1113   1.516   .     S
C1110  H1112   1.109   .     S
C1110  H1111   1.110   .     S
C1113  H1115   1.110   .     S
C1113  H1116   1.103   .     S
C1113  H1798   1.106   1_545 S
H1114  C1455   1.106   .     S
O1117  C1118   1.415   .     S
C1118  C1121   1.520   .     S
C1118  H1120   1.107   .     S
C1118  H1119   1.110   .     S
C1121  H1124   1.106   .     S
C1121  H1123   1.110   .     S
C1121  H1464   1.108   .     S
H1122  C1805   1.108   1_545 S
O1125  C1126   1.415   .     S
C1126  H1127   1.110   .     S
C1126  H1128   1.108   .     S
C1126  C1129   1.516   .     S
C1129  H1131   1.110   .     S
C1129  H1132   1.103   .     S
C1129  H1814   1.106   1_545 S
H1130  C1471   1.106   .     S
O1133  C1134   1.415   .     S
C1134  H1135   1.110   .     S
C1134  H1136   1.107   .     S
C1134  C1137   1.520   .     S
C1137  H1139   1.110   .     S
C1137  H1140   1.106   .     S
C1137  H1480   1.108   .     S
H1138  C1821   1.108   1_545 S
C1141  C1150   1.493   .     S
C1141  O1179   1.300   .     A
C1141  O1182   1.301   .     A
C1142  O1181   1.300   .     A
C1142  O1180   1.301   .     A
C1142  C1149   1.493   .     S
C1143  C1168   1.409   .     A
C1143  I1221   2.107   .     S
C1144  I1222   2.107   .     S
C1144  C1167   1.409   .     A
C1144  C144    1.396   1_556 S
C1145  O1223   1.385   .     S
C1145  C1150   1.414   .     A
C1146  C1149   1.419   .     A
C1146  O1231   1.385   .     S
C1146  C1262   1.409   .     S
C1147  O1239   1.385   .     S
C1147  C1149   1.414   .     A
C1147  C1259   1.407   .     S
C1148  O1247   1.385   .     S
C1148  C1150   1.419   .     A
C1151  H1173   1.081   .     S
C1151  N1178   1.366   .     A
C1151  C1838   1.414   1_545 S
C1152  N1177   1.366   .     A
C1152  H1174   1.081   .     S
C1152  C1495   1.414   .     S
C1153  H1175   1.081   .     S
C1153  N1178   1.366   .     A
C1153  C1836   1.414   1_545 S
C1154  H1176   1.081   .     S
C1154  N1177   1.366   .     A
C1154  C1493   1.414   .     S
C1155  C1160   1.477   .     S
C1155  O1183   1.298   .     A
C1155  O1186   1.295   .     A
C1156  O1184   1.295   .     A
C1156  O1185   1.298   .     A
C1156  C1159   1.477   .     S
C1157  C1167   1.415   .     A
C1157  O1187   1.383   .     S
C1157  C1159   1.423   .     A
C1158  C1168   1.415   .     A
C1158  O1195   1.383   .     S
C1158  C1160   1.423   .     A
C1159  C1161   1.406   .     A
C1160  C1162   1.406   .     A
C1161  C1163   1.406   .     A
C1161  O1203   1.384   .     S
C1162  C1164   1.406   .     A
C1162  O1211   1.384   .     S
C1163  C1169   1.399   .     A
C1163  C1165   1.401   .     A
C1164  C1166   1.401   .     A
C1164  C1170   1.399   .     A
C1165  C1167   1.405   .     A
C1165  C140    1.412   1_556 S
C1166  C1168   1.405   .     A
C1169  I1219   2.120   .     S
C1169  C117    1.396   1_556 S
C1170  I1220   2.120   .     S
Cu1171 O1183   1.983   .     S
Cu1171 Cu1172  2.674   .     S
Cu1171 N1177   2.010   .     S
Cu1171 O1181   2.020   .     S
Cu1171 O1185   1.983   .     S
Cu1171 O1179   2.020   .     S
Cu1172 N1178   2.010   .     S
Cu1172 O1184   1.983   .     S
Cu1172 O1180   2.020   .     S
Cu1172 O1186   1.983   .     S
Cu1172 O1182   2.020   .     S
O1187  C1188   1.404   .     S
C1188  C1191   1.513   .     S
C1188  H1190   1.111   .     S
C1188  H1189   1.090   .     S
C1191  H1194   1.110   .     S
C1191  H1192   1.106   .     S
C1191  H1193   1.105   .     S
O1195  C1196   1.404   .     S
C1196  H1197   1.090   .     S
C1196  C1199   1.513   .     S
C1196  H1198   1.110   .     S
C1199  H1200   1.106   .     S
C1199  H1201   1.105   .     S
C1199  H1202   1.110   .     S
O1203  C1204   1.405   .     S
C1204  C1207   1.519   .     S
C1204  H1206   1.110   .     S
C1204  H1205   1.106   .     S
C1207  H1208   1.109   .     S
C1207  H1209   1.105   .     S
C1207  H1210   1.111   .     S
O1211  C1212   1.405   .     S
C1212  C1215   1.519   .     S
C1212  H1214   1.110   .     S
C1212  H1213   1.106   .     S
C1215  H1216   1.109   .     S
C1215  H1217   1.105   .     S
C1215  H1218   1.111   .     S
O1223  C1224   1.415   .     S
C1224  C1227   1.516   .     S
C1224  H1226   1.109   .     S
C1224  H1225   1.110   .     S
C1227  H1229   1.110   .     S
C1227  H1230   1.103   .     S
C1227  H1912   1.106   1_545 S
H1228  C1569   1.106   .     S
O1231  C1232   1.415   .     S
C1232  C1235   1.520   .     S
C1232  H1234   1.107   .     S
C1232  H1233   1.110   .     S
C1235  H1238   1.106   .     S
C1235  H1237   1.110   .     S
C1235  H1578   1.108   .     S
H1236  C1919   1.108   1_545 S
O1239  C1240   1.415   .     S
C1240  H1241   1.110   .     S
C1240  H1242   1.108   .     S
C1240  C1243   1.516   .     S
C1243  H1245   1.110   .     S
C1243  H1246   1.103   .     S
C1243  H1928   1.106   1_545 S
H1244  C1585   1.106   .     S
O1247  C1248   1.415   .     S
C1248  H1249   1.110   .     S
C1248  H1250   1.107   .     S
C1248  C1251   1.520   .     S
C1251  H1253   1.110   .     S
C1251  H1254   1.106   .     S
C1251  H1594   1.108   .     S
H1252  C1935   1.108   1_545 S
C1255  C1264   1.493   .     S
C1255  O1293   1.300   .     A
C1255  O1296   1.301   .     A
C1256  O1295   1.300   .     A
C1256  O1294   1.301   .     A
C1256  C1263   1.493   .     S
C1257  C1282   1.409   .     A
C1257  I1335   2.107   .     S
C1258  I1336   2.107   .     S
C1258  C1281   1.409   .     A
C1258  C258    1.396   1_556 S
C1259  O1337   1.385   .     S
C1259  C1264   1.414   .     A
C1260  C1263   1.419   .     A
C1260  O1345   1.385   .     S
C1260  C1034   1.409   1_655 S
C1261  O1353   1.385   .     S
C1261  C1263   1.414   .     A
C1261  C1031   1.407   1_655 S
C1262  O1361   1.385   .     S
C1262  C1264   1.419   .     A
C1265  H1287   1.081   .     S
C1265  N1292   1.366   .     A
C1265  C1952   1.414   1_545 S
C1266  N1291   1.366   .     A
C1266  H1288   1.081   .     S
C1266  C1609   1.414   .     S
C1267  H1289   1.081   .     S
C1267  N1292   1.366   .     A
C1267  C1950   1.414   1_545 S
C1268  H1290   1.081   .     S
C1268  N1291   1.366   .     A
C1268  C1607   1.414   .     S
C1269  C1274   1.477   .     S
C1269  O1297   1.298   .     A
C1269  O1300   1.295   .     A
C1270  O1298   1.295   .     A
C1270  O1299   1.298   .     A
C1270  C1273   1.477   .     S
C1271  C1281   1.415   .     A
C1271  O1301   1.383   .     S
C1271  C1273   1.423   .     A
C1272  C1282   1.415   .     A
C1272  O1309   1.383   .     S
C1272  C1274   1.423   .     A
C1273  C1275   1.406   .     A
C1274  C1276   1.406   .     A
C1275  C1277   1.406   .     A
C1275  O1317   1.384   .     S
C1276  C1278   1.406   .     A
C1276  O1325   1.384   .     S
C1277  C1283   1.399   .     A
C1277  C1279   1.401   .     A
C1278  C1280   1.401   .     A
C1278  C1284   1.399   .     A
C1279  C1281   1.405   .     A
C1279  C254    1.412   1_556 S
C1280  C1282   1.405   .     A
C1283  I1333   2.120   .     S
C1283  C231    1.396   1_556 S
C1284  I1334   2.120   .     S
Cu1285 O1297   1.983   .     S
Cu1285 Cu1286  2.674   .     S
Cu1285 N1291   2.010   .     S
Cu1285 O1295   2.020   .     S
Cu1285 O1299   1.983   .     S
Cu1285 O1293   2.020   .     S
Cu1286 N1292   2.010   .     S
Cu1286 O1298   1.983   .     S
Cu1286 O1294   2.020   .     S
Cu1286 O1300   1.983   .     S
Cu1286 O1296   2.020   .     S
O1301  C1302   1.404   .     S
C1302  C1305   1.513   .     S
C1302  H1304   1.111   .     S
C1302  H1303   1.090   .     S
C1305  H1308   1.110   .     S
C1305  H1306   1.106   .     S
C1305  H1307   1.105   .     S
O1309  C1310   1.404   .     S
C1310  H1311   1.090   .     S
C1310  C1313   1.513   .     S
C1310  H1312   1.110   .     S
C1313  H1314   1.106   .     S
C1313  H1315   1.105   .     S
C1313  H1316   1.110   .     S
O1317  C1318   1.405   .     S
C1318  C1321   1.519   .     S
C1318  H1320   1.110   .     S
C1318  H1319   1.106   .     S
C1321  H1322   1.109   .     S
C1321  H1323   1.105   .     S
C1321  H1324   1.111   .     S
O1325  C1326   1.405   .     S
C1326  C1329   1.519   .     S
C1326  H1328   1.110   .     S
C1326  H1327   1.106   .     S
C1329  H1330   1.109   .     S
C1329  H1331   1.105   .     S
C1329  H1332   1.111   .     S
O1337  C1338   1.415   .     S
C1338  C1341   1.516   .     S
C1338  H1340   1.109   .     S
C1338  H1339   1.110   .     S
C1341  H1343   1.110   .     S
C1341  H1344   1.103   .     S
C1341  H2026   1.106   1_545 S
H1342  C1683   1.106   .     S
O1345  C1346   1.415   .     S
C1346  C1349   1.520   .     S
C1346  H1348   1.107   .     S
C1346  H1347   1.110   .     S
C1349  H1352   1.106   .     S
C1349  H1351   1.110   .     S
C1349  H1692   1.108   .     S
H1350  C2033   1.108   1_545 S
O1353  C1354   1.415   .     S
C1354  H1355   1.110   .     S
C1354  H1356   1.108   .     S
C1354  C1357   1.516   .     S
C1357  H1359   1.110   .     S
C1357  H1360   1.103   .     S
C1357  H2042   1.106   1_545 S
H1358  C1699   1.106   .     S
O1361  C1362   1.415   .     S
C1362  H1363   1.110   .     S
C1362  H1364   1.107   .     S
C1362  C1365   1.520   .     S
C1365  H1367   1.110   .     S
C1365  H1368   1.106   .     S
C1365  H1708   1.108   .     S
H1366  C2049   1.108   1_545 S
C1369  C1378   1.493   .     S
C1369  O1407   1.300   .     A
C1369  O1410   1.301   .     A
C1370  O1409   1.300   .     A
C1370  O1408   1.301   .     A
C1370  C1377   1.493   .     S
C1371  C1396   1.409   .     A
C1371  I1449   2.107   .     S
C1372  I1450   2.107   .     S
C1372  C1395   1.409   .     A
C1372  C372    1.396   1_556 S
C1373  O1451   1.385   .     S
C1373  C1378   1.414   .     A
C1373  C1603   1.407   1_455 S
C1374  C1377   1.419   .     A
C1374  O1459   1.385   .     S
C1374  C1490   1.409   .     S
C1375  O1467   1.385   .     S
C1375  C1377   1.414   .     A
C1375  C1487   1.407   .     S
C1376  O1475   1.385   .     S
C1376  C1378   1.419   .     A
C1376  C1602   1.409   1_455 S
C1379  H1401   1.081   .     S
C1379  N1406   1.366   .     A
C1380  N1405   1.366   .     A
C1380  H1402   1.081   .     S
C1380  C1723   1.414   .     S
C1381  H1403   1.081   .     S
C1381  N1406   1.366   .     A
C1382  H1404   1.081   .     S
C1382  N1405   1.366   .     A
C1382  C1721   1.414   .     S
C1383  C1388   1.477   .     S
C1383  O1411   1.298   .     A
C1383  O1414   1.295   .     A
C1384  O1412   1.295   .     A
C1384  O1413   1.298   .     A
C1384  C1387   1.477   .     S
C1385  C1395   1.415   .     A
C1385  O1415   1.383   .     S
C1385  C1387   1.423   .     A
C1386  C1396   1.415   .     A
C1386  O1423   1.383   .     S
C1386  C1388   1.423   .     A
C1387  C1389   1.406   .     A
C1388  C1390   1.406   .     A
C1389  C1391   1.406   .     A
C1389  O1431   1.384   .     S
C1390  C1392   1.406   .     A
C1390  O1439   1.384   .     S
C1391  C1397   1.399   .     A
C1391  C1393   1.401   .     A
C1392  C1394   1.401   .     A
C1392  C1398   1.399   .     A
C1393  C1395   1.405   .     A
C1393  C368    1.412   1_556 S
C1394  C1396   1.405   .     A
C1397  I1447   2.120   .     S
C1397  C345    1.396   1_556 S
C1398  I1448   2.120   .     S
Cu1399 O1411   1.983   .     S
Cu1399 Cu1400  2.674   .     S
Cu1399 N1405   2.010   .     S
Cu1399 O1409   2.020   .     S
Cu1399 O1413   1.983   .     S
Cu1399 O1407   2.020   .     S
Cu1400 N1406   2.010   .     S
Cu1400 O1412   1.983   .     S
Cu1400 O1408   2.020   .     S
Cu1400 O1414   1.983   .     S
Cu1400 O1410   2.020   .     S
O1415  C1416   1.404   .     S
C1416  C1419   1.513   .     S
C1416  H1418   1.111   .     S
C1416  H1417   1.090   .     S
C1419  H1422   1.110   .     S
C1419  H1420   1.106   .     S
C1419  H1421   1.105   .     S
O1423  C1424   1.404   .     S
C1424  H1425   1.090   .     S
C1424  C1427   1.513   .     S
C1424  H1426   1.110   .     S
C1427  H1428   1.106   .     S
C1427  H1429   1.105   .     S
C1427  H1430   1.110   .     S
O1431  C1432   1.405   .     S
C1432  C1435   1.519   .     S
C1432  H1434   1.110   .     S
C1432  H1433   1.106   .     S
C1435  H1436   1.109   .     S
C1435  H1437   1.105   .     S
C1435  H1438   1.111   .     S
O1439  C1440   1.405   .     S
C1440  C1443   1.519   .     S
C1440  H1442   1.110   .     S
C1440  H1441   1.106   .     S
C1443  H1444   1.109   .     S
C1443  H1445   1.105   .     S
C1443  H1446   1.111   .     S
O1451  C1452   1.415   .     S
C1452  C1455   1.516   .     S
C1452  H1454   1.109   .     S
C1452  H1453   1.110   .     S
C1455  H1457   1.110   .     S
C1455  H1458   1.103   .     S
H1456  C1797   1.106   .     S
O1459  C1460   1.415   .     S
C1460  C1463   1.520   .     S
C1460  H1462   1.107   .     S
C1460  H1461   1.110   .     S
C1463  H1466   1.106   .     S
C1463  H1465   1.110   .     S
C1463  H1806   1.108   .     S
O1467  C1468   1.415   .     S
C1468  H1469   1.110   .     S
C1468  H1470   1.108   .     S
C1468  C1471   1.516   .     S
C1471  H1473   1.110   .     S
C1471  H1474   1.103   .     S
H1472  C1813   1.106   .     S
O1475  C1476   1.415   .     S
C1476  H1477   1.110   .     S
C1476  H1478   1.107   .     S
C1476  C1479   1.520   .     S
C1479  H1481   1.110   .     S
C1479  H1482   1.106   .     S
C1479  H1822   1.108   .     S
C1483  C1492   1.493   .     S
C1483  O1521   1.300   .     A
C1483  O1524   1.301   .     A
C1484  O1523   1.300   .     A
C1484  O1522   1.301   .     A
C1484  C1491   1.493   .     S
C1485  C1510   1.409   .     A
C1485  I1563   2.107   .     S
C1486  I1564   2.107   .     S
C1486  C1509   1.409   .     A
C1486  C486    1.396   1_556 S
C1487  O1565   1.385   .     S
C1487  C1492   1.414   .     A
C1488  C1491   1.419   .     A
C1488  O1573   1.385   .     S
C1488  C1604   1.409   .     S
C1489  O1581   1.385   .     S
C1489  C1491   1.414   .     A
C1489  C1601   1.407   .     S
C1490  O1589   1.385   .     S
C1490  C1492   1.419   .     A
C1493  H1515   1.081   .     S
C1493  N1520   1.366   .     A
C1494  N1519   1.366   .     A
C1494  H1516   1.081   .     S
C1494  C1837   1.414   .     S
C1495  H1517   1.081   .     S
C1495  N1520   1.366   .     A
C1496  H1518   1.081   .     S
C1496  N1519   1.366   .     A
C1496  C1835   1.414   .     S
C1497  C1502   1.477   .     S
C1497  O1525   1.298   .     A
C1497  O1528   1.295   .     A
C1498  O1526   1.295   .     A
C1498  O1527   1.298   .     A
C1498  C1501   1.477   .     S
C1499  C1509   1.415   .     A
C1499  O1529   1.383   .     S
C1499  C1501   1.423   .     A
C1500  C1510   1.415   .     A
C1500  O1537   1.383   .     S
C1500  C1502   1.423   .     A
C1501  C1503   1.406   .     A
C1502  C1504   1.406   .     A
C1503  C1505   1.406   .     A
C1503  O1545   1.384   .     S
C1504  C1506   1.406   .     A
C1504  O1553   1.384   .     S
C1505  C1511   1.399   .     A
C1505  C1507   1.401   .     A
C1506  C1508   1.401   .     A
C1506  C1512   1.399   .     A
C1507  C1509   1.405   .     A
C1507  C482    1.412   1_556 S
C1508  C1510   1.405   .     A
C1511  I1561   2.120   .     S
C1511  C459    1.396   1_556 S
C1512  I1562   2.120   .     S
Cu1513 O1525   1.983   .     S
Cu1513 Cu1514  2.674   .     S
Cu1513 N1519   2.010   .     S
Cu1513 O1523   2.020   .     S
Cu1513 O1527   1.983   .     S
Cu1513 O1521   2.020   .     S
Cu1514 N1520   2.010   .     S
Cu1514 O1526   1.983   .     S
Cu1514 O1522   2.020   .     S
Cu1514 O1528   1.983   .     S
Cu1514 O1524   2.020   .     S
O1529  C1530   1.404   .     S
C1530  C1533   1.513   .     S
C1530  H1532   1.111   .     S
C1530  H1531   1.090   .     S
C1533  H1536   1.110   .     S
C1533  H1534   1.106   .     S
C1533  H1535   1.105   .     S
O1537  C1538   1.404   .     S
C1538  H1539   1.090   .     S
C1538  C1541   1.513   .     S
C1538  H1540   1.110   .     S
C1541  H1542   1.106   .     S
C1541  H1543   1.105   .     S
C1541  H1544   1.110   .     S
O1545  C1546   1.405   .     S
C1546  C1549   1.519   .     S
C1546  H1548   1.110   .     S
C1546  H1547   1.106   .     S
C1549  H1550   1.109   .     S
C1549  H1551   1.105   .     S
C1549  H1552   1.111   .     S
O1553  C1554   1.405   .     S
C1554  C1557   1.519   .     S
C1554  H1556   1.110   .     S
C1554  H1555   1.106   .     S
C1557  H1558   1.109   .     S
C1557  H1559   1.105   .     S
C1557  H1560   1.111   .     S
O1565  C1566   1.415   .     S
C1566  C1569   1.516   .     S
C1566  H1568   1.109   .     S
C1566  H1567   1.110   .     S
C1569  H1571   1.110   .     S
C1569  H1572   1.103   .     S
H1570  C1911   1.106   .     S
O1573  C1574   1.415   .     S
C1574  C1577   1.520   .     S
C1574  H1576   1.107   .     S
C1574  H1575   1.110   .     S
C1577  H1580   1.106   .     S
C1577  H1579   1.110   .     S
C1577  H1920   1.108   .     S
O1581  C1582   1.415   .     S
C1582  H1583   1.110   .     S
C1582  H1584   1.108   .     S
C1582  C1585   1.516   .     S
C1585  H1587   1.110   .     S
C1585  H1588   1.103   .     S
H1586  C1927   1.106   .     S
O1589  C1590   1.415   .     S
C1590  H1591   1.110   .     S
C1590  H1592   1.107   .     S
C1590  C1593   1.520   .     S
C1593  H1595   1.110   .     S
C1593  H1596   1.106   .     S
C1593  H1936   1.108   .     S
C1597  C1606   1.493   .     S
C1597  O1635   1.300   .     A
C1597  O1638   1.301   .     A
C1598  O1637   1.300   .     A
C1598  O1636   1.301   .     A
C1598  C1605   1.493   .     S
C1599  C1624   1.409   .     A
C1599  I1677   2.107   .     S
C1600  I1678   2.107   .     S
C1600  C1623   1.409   .     A
C1600  C600    1.396   1_556 S
C1601  O1679   1.385   .     S
C1601  C1606   1.414   .     A
C1602  C1605   1.419   .     A
C1602  O1687   1.385   .     S
C1602  C1376   1.409   1_655 S
C1603  O1695   1.385   .     S
C1603  C1605   1.414   .     A
C1603  C1373   1.407   1_655 S
C1604  O1703   1.385   .     S
C1604  C1606   1.419   .     A
C1607  H1629   1.081   .     S
C1607  N1634   1.366   .     A
C1608  N1633   1.366   .     A
C1608  H1630   1.081   .     S
C1608  C1951   1.414   .     S
C1609  H1631   1.081   .     S
C1609  N1634   1.366   .     A
C1610  H1632   1.081   .     S
C1610  N1633   1.366   .     A
C1610  C1949   1.414   .     S
C1611  C1616   1.477   .     S
C1611  O1639   1.298   .     A
C1611  O1642   1.295   .     A
C1612  O1640   1.295   .     A
C1612  O1641   1.298   .     A
C1612  C1615   1.477   .     S
C1613  C1623   1.415   .     A
C1613  O1643   1.383   .     S
C1613  C1615   1.423   .     A
C1614  C1624   1.415   .     A
C1614  O1651   1.383   .     S
C1614  C1616   1.423   .     A
C1615  C1617   1.406   .     A
C1616  C1618   1.406   .     A
C1617  C1619   1.406   .     A
C1617  O1659   1.384   .     S
C1618  C1620   1.406   .     A
C1618  O1667   1.384   .     S
C1619  C1625   1.399   .     A
C1619  C1621   1.401   .     A
C1620  C1622   1.401   .     A
C1620  C1626   1.399   .     A
C1621  C1623   1.405   .     A
C1621  C596    1.412   1_556 S
C1622  C1624   1.405   .     A
C1625  I1675   2.120   .     S
C1625  C573    1.396   1_556 S
C1626  I1676   2.120   .     S
Cu1627 O1639   1.983   .     S
Cu1627 Cu1628  2.674   .     S
Cu1627 N1633   2.010   .     S
Cu1627 O1637   2.020   .     S
Cu1627 O1641   1.983   .     S
Cu1627 O1635   2.020   .     S
Cu1628 N1634   2.010   .     S
Cu1628 O1640   1.983   .     S
Cu1628 O1636   2.020   .     S
Cu1628 O1642   1.983   .     S
Cu1628 O1638   2.020   .     S
O1643  C1644   1.404   .     S
C1644  C1647   1.513   .     S
C1644  H1646   1.111   .     S
C1644  H1645   1.090   .     S
C1647  H1650   1.110   .     S
C1647  H1648   1.106   .     S
C1647  H1649   1.105   .     S
O1651  C1652   1.404   .     S
C1652  H1653   1.090   .     S
C1652  C1655   1.513   .     S
C1652  H1654   1.110   .     S
C1655  H1656   1.106   .     S
C1655  H1657   1.105   .     S
C1655  H1658   1.110   .     S
O1659  C1660   1.405   .     S
C1660  C1663   1.519   .     S
C1660  H1662   1.110   .     S
C1660  H1661   1.106   .     S
C1663  H1664   1.109   .     S
C1663  H1665   1.105   .     S
C1663  H1666   1.111   .     S
O1667  C1668   1.405   .     S
C1668  C1671   1.519   .     S
C1668  H1670   1.110   .     S
C1668  H1669   1.106   .     S
C1671  H1672   1.109   .     S
C1671  H1673   1.105   .     S
C1671  H1674   1.111   .     S
O1679  C1680   1.415   .     S
C1680  C1683   1.516   .     S
C1680  H1682   1.109   .     S
C1680  H1681   1.110   .     S
C1683  H1685   1.110   .     S
C1683  H1686   1.103   .     S
H1684  C2025   1.106   .     S
O1687  C1688   1.415   .     S
C1688  C1691   1.520   .     S
C1688  H1690   1.107   .     S
C1688  H1689   1.110   .     S
C1691  H1694   1.106   .     S
C1691  H1693   1.110   .     S
C1691  H2034   1.108   .     S
O1695  C1696   1.415   .     S
C1696  H1697   1.110   .     S
C1696  H1698   1.108   .     S
C1696  C1699   1.516   .     S
C1699  H1701   1.110   .     S
C1699  H1702   1.103   .     S
H1700  C2041   1.106   .     S
O1703  C1704   1.415   .     S
C1704  H1705   1.110   .     S
C1704  H1706   1.107   .     S
C1704  C1707   1.520   .     S
C1707  H1709   1.110   .     S
C1707  H1710   1.106   .     S
C1707  H2050   1.108   .     S
C1711  C1720   1.493   .     S
C1711  O1749   1.300   .     A
C1711  O1752   1.301   .     A
C1712  O1751   1.300   .     A
C1712  O1750   1.301   .     A
C1712  C1719   1.493   .     S
C1713  C1738   1.409   .     A
C1713  I1791   2.107   .     S
C1714  I1792   2.107   .     S
C1714  C1737   1.409   .     A
C1714  C714    1.396   1_556 S
C1715  O1793   1.385   .     S
C1715  C1720   1.414   .     A
C1715  C1945   1.407   1_455 S
C1716  C1719   1.419   .     A
C1716  O1801   1.385   .     S
C1716  C1832   1.409   .     S
C1717  O1809   1.385   .     S
C1717  C1719   1.414   .     A
C1717  C1829   1.407   .     S
C1718  O1817   1.385   .     S
C1718  C1720   1.419   .     A
C1718  C1944   1.409   1_455 S
C1721  H1743   1.081   .     S
C1721  N1748   1.366   .     A
C1722  N1747   1.366   .     A
C1722  H1744   1.081   .     S
C1722  C1039   1.414   1_565 S
C1723  H1745   1.081   .     S
C1723  N1748   1.366   .     A
C1724  H1746   1.081   .     S
C1724  N1747   1.366   .     A
C1724  C1037   1.414   1_565 S
C1725  C1730   1.477   .     S
C1725  O1753   1.298   .     A
C1725  O1756   1.295   .     A
C1726  O1754   1.295   .     A
C1726  O1755   1.298   .     A
C1726  C1729   1.477   .     S
C1727  C1737   1.415   .     A
C1727  O1757   1.383   .     S
C1727  C1729   1.423   .     A
C1728  C1738   1.415   .     A
C1728  O1765   1.383   .     S
C1728  C1730   1.423   .     A
C1729  C1731   1.406   .     A
C1730  C1732   1.406   .     A
C1731  C1733   1.406   .     A
C1731  O1773   1.384   .     S
C1732  C1734   1.406   .     A
C1732  O1781   1.384   .     S
C1733  C1739   1.399   .     A
C1733  C1735   1.401   .     A
C1734  C1736   1.401   .     A
C1734  C1740   1.399   .     A
C1735  C1737   1.405   .     A
C1735  C710    1.412   1_556 S
C1736  C1738   1.405   .     A
C1739  I1789   2.120   .     S
C1739  C687    1.396   1_556 S
C1740  I1790   2.120   .     S
Cu1741 O1753   1.983   .     S
Cu1741 Cu1742  2.674   .     S
Cu1741 N1747   2.010   .     S
Cu1741 O1751   2.020   .     S
Cu1741 O1755   1.983   .     S
Cu1741 O1749   2.020   .     S
Cu1742 N1748   2.010   .     S
Cu1742 O1754   1.983   .     S
Cu1742 O1750   2.020   .     S
Cu1742 O1756   1.983   .     S
Cu1742 O1752   2.020   .     S
O1757  C1758   1.404   .     S
C1758  C1761   1.513   .     S
C1758  H1760   1.111   .     S
C1758  H1759   1.090   .     S
C1761  H1764   1.110   .     S
C1761  H1762   1.106   .     S
C1761  H1763   1.105   .     S
O1765  C1766   1.404   .     S
C1766  H1767   1.090   .     S
C1766  C1769   1.513   .     S
C1766  H1768   1.110   .     S
C1769  H1770   1.106   .     S
C1769  H1771   1.105   .     S
C1769  H1772   1.110   .     S
O1773  C1774   1.405   .     S
C1774  C1777   1.519   .     S
C1774  H1776   1.110   .     S
C1774  H1775   1.106   .     S
C1777  H1778   1.109   .     S
C1777  H1779   1.105   .     S
C1777  H1780   1.111   .     S
O1781  C1782   1.405   .     S
C1782  C1785   1.519   .     S
C1782  H1784   1.110   .     S
C1782  H1783   1.106   .     S
C1785  H1786   1.109   .     S
C1785  H1787   1.105   .     S
C1785  H1788   1.111   .     S
O1793  C1794   1.415   .     S
C1794  C1797   1.516   .     S
C1794  H1796   1.109   .     S
C1794  H1795   1.110   .     S
C1797  H1799   1.110   .     S
C1797  H1800   1.103   .     S
H1798  C1113   1.106   1_565 S
O1801  C1802   1.415   .     S
C1802  C1805   1.520   .     S
C1802  H1804   1.107   .     S
C1802  H1803   1.110   .     S
C1805  H1808   1.106   .     S
C1805  H1807   1.110   .     S
C1805  H1122   1.108   1_565 S
O1809  C1810   1.415   .     S
C1810  H1811   1.110   .     S
C1810  H1812   1.108   .     S
C1810  C1813   1.516   .     S
C1813  H1815   1.110   .     S
C1813  H1816   1.103   .     S
H1814  C1129   1.106   1_565 S
O1817  C1818   1.415   .     S
C1818  H1819   1.110   .     S
C1818  H1820   1.107   .     S
C1818  C1821   1.520   .     S
C1821  H1823   1.110   .     S
C1821  H1824   1.106   .     S
C1821  H1138   1.108   1_565 S
C1825  C1834   1.493   .     S
C1825  O1863   1.300   .     A
C1825  O1866   1.301   .     A
C1826  O1865   1.300   .     A
C1826  O1864   1.301   .     A
C1826  C1833   1.493   .     S
C1827  C1852   1.409   .     A
C1827  I1905   2.107   .     S
C1828  I1906   2.107   .     S
C1828  C1851   1.409   .     A
C1828  C828    1.396   1_556 S
C1829  O1907   1.385   .     S
C1829  C1834   1.414   .     A
C1830  C1833   1.419   .     A
C1830  O1915   1.385   .     S
C1830  C1946   1.409   .     S
C1831  O1923   1.385   .     S
C1831  C1833   1.414   .     A
C1831  C1943   1.407   .     S
C1832  O1931   1.385   .     S
C1832  C1834   1.419   .     A
C1835  H1857   1.081   .     S
C1835  N1862   1.366   .     A
C1836  N1861   1.366   .     A
C1836  H1858   1.081   .     S
C1836  C1153   1.414   1_565 S
C1837  H1859   1.081   .     S
C1837  N1862   1.366   .     A
C1838  H1860   1.081   .     S
C1838  N1861   1.366   .     A
C1838  C1151   1.414   1_565 S
C1839  C1844   1.477   .     S
C1839  O1867   1.298   .     A
C1839  O1870   1.295   .     A
C1840  O1868   1.295   .     A
C1840  O1869   1.298   .     A
C1840  C1843   1.477   .     S
C1841  C1851   1.415   .     A
C1841  O1871   1.383   .     S
C1841  C1843   1.423   .     A
C1842  C1852   1.415   .     A
C1842  O1879   1.383   .     S
C1842  C1844   1.423   .     A
C1843  C1845   1.406   .     A
C1844  C1846   1.406   .     A
C1845  C1847   1.406   .     A
C1845  O1887   1.384   .     S
C1846  C1848   1.406   .     A
C1846  O1895   1.384   .     S
C1847  C1853   1.399   .     A
C1847  C1849   1.401   .     A
C1848  C1850   1.401   .     A
C1848  C1854   1.399   .     A
C1849  C1851   1.405   .     A
C1849  C824    1.412   1_556 S
C1850  C1852   1.405   .     A
C1853  I1903   2.120   .     S
C1853  C801    1.396   1_556 S
C1854  I1904   2.120   .     S
Cu1855 O1867   1.983   .     S
Cu1855 Cu1856  2.674   .     S
Cu1855 N1861   2.010   .     S
Cu1855 O1865   2.020   .     S
Cu1855 O1869   1.983   .     S
Cu1855 O1863   2.020   .     S
Cu1856 N1862   2.010   .     S
Cu1856 O1868   1.983   .     S
Cu1856 O1864   2.020   .     S
Cu1856 O1870   1.983   .     S
Cu1856 O1866   2.020   .     S
O1871  C1872   1.404   .     S
C1872  C1875   1.513   .     S
C1872  H1874   1.111   .     S
C1872  H1873   1.090   .     S
C1875  H1878   1.110   .     S
C1875  H1876   1.106   .     S
C1875  H1877   1.105   .     S
O1879  C1880   1.404   .     S
C1880  H1881   1.090   .     S
C1880  C1883   1.513   .     S
C1880  H1882   1.110   .     S
C1883  H1884   1.106   .     S
C1883  H1885   1.105   .     S
C1883  H1886   1.110   .     S
O1887  C1888   1.405   .     S
C1888  C1891   1.519   .     S
C1888  H1890   1.110   .     S
C1888  H1889   1.106   .     S
C1891  H1892   1.109   .     S
C1891  H1893   1.105   .     S
C1891  H1894   1.111   .     S
O1895  C1896   1.405   .     S
C1896  C1899   1.519   .     S
C1896  H1898   1.110   .     S
C1896  H1897   1.106   .     S
C1899  H1900   1.109   .     S
C1899  H1901   1.105   .     S
C1899  H1902   1.111   .     S
O1907  C1908   1.415   .     S
C1908  C1911   1.516   .     S
C1908  H1910   1.109   .     S
C1908  H1909   1.110   .     S
C1911  H1913   1.110   .     S
C1911  H1914   1.103   .     S
H1912  C1227   1.106   1_565 S
O1915  C1916   1.415   .     S
C1916  C1919   1.520   .     S
C1916  H1918   1.107   .     S
C1916  H1917   1.110   .     S
C1919  H1922   1.106   .     S
C1919  H1921   1.110   .     S
C1919  H1236   1.108   1_565 S
O1923  C1924   1.415   .     S
C1924  H1925   1.110   .     S
C1924  H1926   1.108   .     S
C1924  C1927   1.516   .     S
C1927  H1929   1.110   .     S
C1927  H1930   1.103   .     S
H1928  C1243   1.106   1_565 S
O1931  C1932   1.415   .     S
C1932  H1933   1.110   .     S
C1932  H1934   1.107   .     S
C1932  C1935   1.520   .     S
C1935  H1937   1.110   .     S
C1935  H1938   1.106   .     S
C1935  H1252   1.108   1_565 S
C1939  C1948   1.493   .     S
C1939  O1977   1.300   .     A
C1939  O1980   1.301   .     A
C1940  O1979   1.300   .     A
C1940  O1978   1.301   .     A
C1940  C1947   1.493   .     S
C1941  C1966   1.409   .     A
C1941  I2019   2.107   .     S
C1942  I2020   2.107   .     S
C1942  C1965   1.409   .     A
C1942  C942    1.396   1_556 S
C1943  O2021   1.385   .     S
C1943  C1948   1.414   .     A
C1944  C1947   1.419   .     A
C1944  O2029   1.385   .     S
C1944  C1718   1.409   1_655 S
C1945  O2037   1.385   .     S
C1945  C1947   1.414   .     A
C1945  C1715   1.407   1_655 S
C1946  O2045   1.385   .     S
C1946  C1948   1.419   .     A
C1949  H1971   1.081   .     S
C1949  N1976   1.366   .     A
C1950  N1975   1.366   .     A
C1950  H1972   1.081   .     S
C1950  C1267   1.414   1_565 S
C1951  H1973   1.081   .     S
C1951  N1976   1.366   .     A
C1952  H1974   1.081   .     S
C1952  N1975   1.366   .     A
C1952  C1265   1.414   1_565 S
C1953  C1958   1.477   .     S
C1953  O1981   1.298   .     A
C1953  O1984   1.295   .     A
C1954  O1982   1.295   .     A
C1954  O1983   1.298   .     A
C1954  C1957   1.477   .     S
C1955  C1965   1.415   .     A
C1955  O1985   1.383   .     S
C1955  C1957   1.423   .     A
C1956  C1966   1.415   .     A
C1956  O1993   1.383   .     S
C1956  C1958   1.423   .     A
C1957  C1959   1.406   .     A
C1958  C1960   1.406   .     A
C1959  C1961   1.406   .     A
C1959  O2001   1.384   .     S
C1960  C1962   1.406   .     A
C1960  O2009   1.384   .     S
C1961  C1967   1.399   .     A
C1961  C1963   1.401   .     A
C1962  C1964   1.401   .     A
C1962  C1968   1.399   .     A
C1963  C1965   1.405   .     A
C1963  C938    1.412   1_556 S
C1964  C1966   1.405   .     A
C1967  I2017   2.120   .     S
C1967  C915    1.396   1_556 S
C1968  I2018   2.120   .     S
Cu1969 O1981   1.983   .     S
Cu1969 Cu1970  2.674   .     S
Cu1969 N1975   2.010   .     S
Cu1969 O1979   2.020   .     S
Cu1969 O1983   1.983   .     S
Cu1969 O1977   2.020   .     S
Cu1970 N1976   2.010   .     S
Cu1970 O1982   1.983   .     S
Cu1970 O1978   2.020   .     S
Cu1970 O1984   1.983   .     S
Cu1970 O1980   2.020   .     S
O1985  C1986   1.404   .     S
C1986  C1989   1.513   .     S
C1986  H1988   1.111   .     S
C1986  H1987   1.090   .     S
C1989  H1992   1.110   .     S
C1989  H1990   1.106   .     S
C1989  H1991   1.105   .     S
O1993  C1994   1.404   .     S
C1994  H1995   1.090   .     S
C1994  C1997   1.513   .     S
C1994  H1996   1.110   .     S
C1997  H1998   1.106   .     S
C1997  H1999   1.105   .     S
C1997  H2000   1.110   .     S
O2001  C2002   1.405   .     S
C2002  C2005   1.519   .     S
C2002  H2004   1.110   .     S
C2002  H2003   1.106   .     S
C2005  H2006   1.109   .     S
C2005  H2007   1.105   .     S
C2005  H2008   1.111   .     S
O2009  C2010   1.405   .     S
C2010  C2013   1.519   .     S
C2010  H2012   1.110   .     S
C2010  H2011   1.106   .     S
C2013  H2014   1.109   .     S
C2013  H2015   1.105   .     S
C2013  H2016   1.111   .     S
O2021  C2022   1.415   .     S
C2022  C2025   1.516   .     S
C2022  H2024   1.109   .     S
C2022  H2023   1.110   .     S
C2025  H2027   1.110   .     S
C2025  H2028   1.103   .     S
H2026  C1341   1.106   1_565 S
O2029  C2030   1.415   .     S
C2030  C2033   1.520   .     S
C2030  H2032   1.107   .     S
C2030  H2031   1.110   .     S
C2033  H2036   1.106   .     S
C2033  H2035   1.110   .     S
C2033  H1350   1.108   1_565 S
O2037  C2038   1.415   .     S
C2038  H2039   1.110   .     S
C2038  H2040   1.108   .     S
C2038  C2041   1.516   .     S
C2041  H2043   1.110   .     S
C2041  H2044   1.103   .     S
H2042  C1357   1.106   1_565 S
O2045  C2046   1.415   .     S
C2046  H2047   1.110   .     S
C2046  H2048   1.107   .     S
C2046  C2049   1.520   .     S
C2049  H2051   1.110   .     S
C2049  H2052   1.106   .     S
C2049  H1366   1.108   1_565 S
