data_str_m2_o1_o18_pcu_sym.152
_audit_creation_date              2020-01-03
_audit_creation_method            'Materials Studio'
_symmetry_space_group_name_H-M    'P1'
_symmetry_Int_Tables_number       1
_symmetry_cell_setting            triclinic
loop_
_symmetry_equiv_pos_as_xyz
  x,y,z
_cell_length_a                    28.5832
_cell_length_b                    32.3999
_cell_length_c                    30.8598
_cell_angle_alpha                 89.5453
_cell_angle_beta                  74.5914
_cell_angle_gamma                 89.5997
loop_
_atom_site_label
_atom_site_type_symbol
_atom_site_fract_x
_atom_site_fract_y
_atom_site_fract_z
_atom_site_U_iso_or_equiv
_atom_site_adp_type
_atom_site_occupancy
C1     C     0.00005   0.08739   0.25024   0.00000  Uiso   1.00
C2     C     0.33318   0.24596   0.25037   0.00000  Uiso   1.00
C3     C     0.19536   0.16137   0.04853   0.00000  Uiso   1.00
C4     C     0.14382   0.19627   0.45564   0.00000  Uiso   1.00
C5     C     0.24369   0.15466   0.02616   0.00000  Uiso   1.00
C6     C     0.09591   0.20425   0.47832   0.00000  Uiso   1.00
C7     C     0.28942   0.02161   0.26503   0.00000  Uiso   1.00
C8     C     0.04393   0.31182   0.23733   0.00000  Uiso   1.00
C9     C     0.28936   0.31226   0.26553   0.00000  Uiso   1.00
C10    C     0.04407   0.02117   0.23730   0.00000  Uiso   1.00
C11    C     0.33318   0.29060   0.25101   0.00000  Uiso   1.00
C12    C     0.00010   0.04280   0.25082   0.00000  Uiso   1.00
C13    C     0.18351   0.14204   0.27917   0.00000  Uiso   1.00
C14    C     0.15000   0.19030   0.22020   0.00000  Uiso   1.00
C15    C     0.13296   0.14175   0.27965   0.00000  Uiso   1.00
C16    C     0.19939   0.19145   0.22078   0.00000  Uiso   1.00
C17    C     0.30614   0.16630   0.33616   0.00000  Uiso   1.00
C18    C     0.02725   0.16767   0.16388   0.00000  Uiso   1.00
C19    C     0.29132   0.16482   0.38550   0.00000  Uiso   1.00
C20    C     0.04269   0.17382   0.11499   0.00000  Uiso   1.00
C21    C     0.30874   0.14967   0.45703   0.00000  Uiso   1.00
C22    C     0.02952   0.20336   0.04682   0.00000  Uiso   1.00
C23    C     0.32447   0.15483   0.41007   0.00000  Uiso   1.00
C24    C     0.01171   0.19172   0.09185   0.00000  Uiso   1.00
C25    C     0.24279   0.17208   0.40785   0.00000  Uiso   1.00
C26    C     0.09122   0.16625   0.09256   0.00000  Uiso   1.00
C27    C     0.22628   0.17057   0.45491   0.00000  Uiso   1.00
C28    C     0.11065   0.17812   0.04754   0.00000  Uiso   1.00
C29    C     0.25976   0.15843   0.47945   0.00000  Uiso   1.00
C30    C     0.07862   0.19538   0.02408   0.00000  Uiso   1.00
C31    C     0.17705   0.17962   0.47799   0.00000  Uiso   1.00
C32    C     0.16078   0.17258   0.02512   0.00000  Uiso   1.00
Cu33   Cu    0.04689   0.16667   0.25000   0.00000  Uiso   1.00
Cu34   Cu    0.28645   0.16666   0.25000   0.00000  Uiso   1.00
H35    H     0.26845   0.14608   0.04592   0.00000  Uiso   1.00
H36    H     0.07221   0.21708   0.45944   0.00000  Uiso   1.00
H37    H     0.11302   0.15040   0.11110   0.00000  Uiso   1.00
H38    H     0.21826   0.17801   0.38746   0.00000  Uiso   1.00
H39    H     0.30746   0.19805   0.10903   0.00000  Uiso   1.00
H40    H     0.02890   0.15017   0.39254   0.00000  Uiso   1.00
H41    H     0.18663   0.15878   0.08461   0.00000  Uiso   1.00
H42    H     0.15388   0.20505   0.42069   0.00000  Uiso   1.00
H43    H     0.25523   0.03799   0.27620   0.00000  Uiso   1.00
H44    H     0.07816   0.29549   0.22622   0.00000  Uiso   1.00
H45    H     0.25521   0.29627   0.27758   0.00000  Uiso   1.00
H46    H     0.07838   0.03718   0.22612   0.00000  Uiso   1.00
H47    H     0.19777   0.12265   0.30122   0.00000  Uiso   1.00
H48    H     0.13771   0.20786   0.19549   0.00000  Uiso   1.00
N49    N     0.11736   0.16668   0.24999   0.00000  Uiso   1.00
N50    N     0.21597   0.16666   0.25001   0.00000  Uiso   1.00
O51    O     0.03958   0.10655   0.25000   0.00000  Uiso   1.00
O52    O     0.29375   0.22678   0.25000   0.00000  Uiso   1.00
O53    O     0.29372   0.10654   0.25001   0.00000  Uiso   1.00
O54    O     0.03961   0.22679   0.25000   0.00000  Uiso   1.00
O55    O     0.01852   0.16668   0.31492   0.00000  Uiso   1.00
O56    O     0.31481   0.16666   0.18509   0.00000  Uiso   1.00
O57    O     0.27267   0.16667   0.31492   0.00000  Uiso   1.00
O58    O     0.06067   0.16667   0.18508   0.00000  Uiso   1.00
O59    O     0.00738   0.13859   0.48225   0.00000  Uiso   1.00
C60    C     0.03734   0.10495   0.46307   0.00000  Uiso   1.00
H61    H     0.06905   0.11641   0.43653   0.00000  Uiso   1.00
H62    H     0.01706   0.08173   0.44870   0.00000  Uiso   1.00
C63    C     0.05634   0.08382   0.49945   0.00000  Uiso   1.00
H64    H     0.07959   0.10558   0.01187   0.00000  Uiso   1.00
H65    H     0.02527   0.07517   0.02814   0.00000  Uiso   1.00
C66    C     0.08597   0.04528   0.48153   0.00000  Uiso   1.00
H67    H     0.06313   0.02248   0.46994   0.00000  Uiso   1.00
H68    H     0.09950   0.03086   0.00868   0.00000  Uiso   1.00
H69    H     0.11757   0.05351   0.45312   0.00000  Uiso   1.00
O70    O     0.33131   0.22119   0.02488   0.00000  Uiso   1.00
C71    C     0.00378   0.26461   0.02312   0.00000  Uiso   1.00
H72    H     0.00028   0.27544   0.48986   0.00000  Uiso   1.00
H73    H     0.04014   0.27514   0.02561   0.00000  Uiso   1.00
C74    C     0.29704   0.28484   0.05983   0.00000  Uiso   1.00
H75    H     0.26111   0.27573   0.05558   0.00000  Uiso   1.00
H76    H     0.29980   0.27404   0.09332   0.00000  Uiso   1.00
C77    C     0.30107   0.33176   0.05780   0.00000  Uiso   1.00
H78    H     0.00229   0.00804   0.06462   0.00000  Uiso   1.00
H79    H     0.27043   0.01224   0.08362   0.00000  Uiso   1.00
H80    H     0.29971   0.01015   0.02422   0.00000  Uiso   1.00
O81    O     0.09767   0.11709   0.30808   0.00000  Uiso   1.00
C82    C     0.11397   0.08978   0.33698   0.00000  Uiso   1.00
H83    H     0.08139   0.08007   0.36356   0.00000  Uiso   1.00
H84    H     0.13743   0.10509   0.35549   0.00000  Uiso   1.00
C85    C     0.13654   0.05057   0.31214   0.00000  Uiso   1.00
H86    H     0.10872   0.03438   0.29947   0.00000  Uiso   1.00
H87    H     0.16717   0.05838   0.28275   0.00000  Uiso   1.00
C88    C     0.15485   0.02146   0.34318   0.00000  Uiso   1.00
H89    H     0.18353   0.03670   0.35550   0.00000  Uiso   1.00
H90    H     0.17042   0.32658   0.32448   0.00000  Uiso   1.00
H91    H     0.12455   0.01230   0.37236   0.00000  Uiso   1.00
O92    O     0.23150   0.21568   0.18958   0.00000  Uiso   1.00
C93    C     0.22443   0.25799   0.20126   0.00000  Uiso   1.00
H94    H     0.26102   0.27186   0.19512   0.00000  Uiso   1.00
H95    H     0.20546   0.26328   0.23742   0.00000  Uiso   1.00
C96    C     0.19767   0.28111   0.17141   0.00000  Uiso   1.00
H97    H     0.21421   0.27344   0.13565   0.00000  Uiso   1.00
H98    H     0.15904   0.27204   0.18002   0.00000  Uiso   1.00
C99    C     0.19958   0.32772   0.17770   0.00000  Uiso   1.00
H100   H     0.18177   0.00265   0.21316   0.00000  Uiso   1.00
H101   H     0.18019   0.01040   0.15559   0.00000  Uiso   1.00
H102   H     0.23778   0.00515   0.16882   0.00000  Uiso   1.00
C103   C     0.33338   0.08739   0.25024   0.00000  Uiso   1.00
C104   C     0.66651   0.24596   0.25037   0.00000  Uiso   1.00
C105   C     0.52869   0.16137   0.04853   0.00000  Uiso   1.00
C106   C     0.47715   0.19627   0.45564   0.00000  Uiso   1.00
C107   C     0.57702   0.15466   0.02616   0.00000  Uiso   1.00
C108   C     0.42925   0.20425   0.47832   0.00000  Uiso   1.00
C109   C     0.62276   0.02161   0.26503   0.00000  Uiso   1.00
C110   C     0.37726   0.31182   0.23733   0.00000  Uiso   1.00
C111   C     0.62269   0.31226   0.26553   0.00000  Uiso   1.00
C112   C     0.37740   0.02117   0.23730   0.00000  Uiso   1.00
C113   C     0.66651   0.29060   0.25101   0.00000  Uiso   1.00
C114   C     0.33343   0.04280   0.25082   0.00000  Uiso   1.00
C115   C     0.51685   0.14204   0.27917   0.00000  Uiso   1.00
C116   C     0.48333   0.19030   0.22020   0.00000  Uiso   1.00
C117   C     0.46629   0.14175   0.27965   0.00000  Uiso   1.00
C118   C     0.53272   0.19145   0.22078   0.00000  Uiso   1.00
C119   C     0.63947   0.16630   0.33616   0.00000  Uiso   1.00
C120   C     0.36058   0.16767   0.16388   0.00000  Uiso   1.00
C121   C     0.62466   0.16482   0.38550   0.00000  Uiso   1.00
C122   C     0.37602   0.17382   0.11499   0.00000  Uiso   1.00
C123   C     0.64208   0.14967   0.45703   0.00000  Uiso   1.00
C124   C     0.36285   0.20336   0.04682   0.00000  Uiso   1.00
C125   C     0.65780   0.15483   0.41007   0.00000  Uiso   1.00
C126   C     0.34504   0.19172   0.09185   0.00000  Uiso   1.00
C127   C     0.57613   0.17208   0.40785   0.00000  Uiso   1.00
C128   C     0.42455   0.16625   0.09256   0.00000  Uiso   1.00
C129   C     0.55961   0.17057   0.45491   0.00000  Uiso   1.00
C130   C     0.44398   0.17812   0.04754   0.00000  Uiso   1.00
C131   C     0.59309   0.15843   0.47945   0.00000  Uiso   1.00
C132   C     0.41195   0.19538   0.02408   0.00000  Uiso   1.00
C133   C     0.51039   0.17962   0.47799   0.00000  Uiso   1.00
C134   C     0.49411   0.17258   0.02512   0.00000  Uiso   1.00
Cu135  Cu    0.38022   0.16667   0.25000   0.00000  Uiso   1.00
Cu136  Cu    0.61978   0.16666   0.25000   0.00000  Uiso   1.00
H137   H     0.60179   0.14608   0.04592   0.00000  Uiso   1.00
H138   H     0.40554   0.21708   0.45944   0.00000  Uiso   1.00
H139   H     0.44635   0.15040   0.11110   0.00000  Uiso   1.00
H140   H     0.55159   0.17801   0.38746   0.00000  Uiso   1.00
H141   H     0.64079   0.19805   0.10903   0.00000  Uiso   1.00
H142   H     0.36224   0.15017   0.39254   0.00000  Uiso   1.00
H143   H     0.51996   0.15878   0.08461   0.00000  Uiso   1.00
H144   H     0.48722   0.20505   0.42069   0.00000  Uiso   1.00
H145   H     0.58857   0.03799   0.27620   0.00000  Uiso   1.00
H146   H     0.41150   0.29549   0.22622   0.00000  Uiso   1.00
H147   H     0.58854   0.29627   0.27758   0.00000  Uiso   1.00
H148   H     0.41171   0.03718   0.22612   0.00000  Uiso   1.00
H149   H     0.53111   0.12265   0.30122   0.00000  Uiso   1.00
H150   H     0.47104   0.20786   0.19549   0.00000  Uiso   1.00
N151   N     0.45069   0.16668   0.24999   0.00000  Uiso   1.00
N152   N     0.54931   0.16666   0.25001   0.00000  Uiso   1.00
O153   O     0.37291   0.10655   0.25000   0.00000  Uiso   1.00
O154   O     0.62709   0.22678   0.25000   0.00000  Uiso   1.00
O155   O     0.62706   0.10654   0.25001   0.00000  Uiso   1.00
O156   O     0.37294   0.22679   0.25000   0.00000  Uiso   1.00
O157   O     0.35186   0.16668   0.31492   0.00000  Uiso   1.00
O158   O     0.64814   0.16666   0.18509   0.00000  Uiso   1.00
O159   O     0.60600   0.16667   0.31492   0.00000  Uiso   1.00
O160   O     0.39400   0.16667   0.18508   0.00000  Uiso   1.00
O161   O     0.34071   0.13859   0.48225   0.00000  Uiso   1.00
C162   C     0.37067   0.10495   0.46307   0.00000  Uiso   1.00
H163   H     0.40239   0.11641   0.43653   0.00000  Uiso   1.00
H164   H     0.35039   0.08173   0.44870   0.00000  Uiso   1.00
C165   C     0.38967   0.08382   0.49945   0.00000  Uiso   1.00
H166   H     0.41292   0.10558   0.01187   0.00000  Uiso   1.00
H167   H     0.35861   0.07517   0.02814   0.00000  Uiso   1.00
C168   C     0.41930   0.04528   0.48153   0.00000  Uiso   1.00
H169   H     0.39647   0.02248   0.46994   0.00000  Uiso   1.00
H170   H     0.43283   0.03086   0.00868   0.00000  Uiso   1.00
H171   H     0.45090   0.05351   0.45312   0.00000  Uiso   1.00
O172   O     0.66465   0.22119   0.02488   0.00000  Uiso   1.00
C173   C     0.33712   0.26461   0.02312   0.00000  Uiso   1.00
H174   H     0.33362   0.27544   0.48986   0.00000  Uiso   1.00
H175   H     0.37347   0.27514   0.02561   0.00000  Uiso   1.00
C176   C     0.63038   0.28484   0.05983   0.00000  Uiso   1.00
H177   H     0.59444   0.27573   0.05558   0.00000  Uiso   1.00
H178   H     0.63313   0.27404   0.09332   0.00000  Uiso   1.00
C179   C     0.63440   0.33176   0.05780   0.00000  Uiso   1.00
H180   H     0.33563   0.00804   0.06462   0.00000  Uiso   1.00
H181   H     0.60377   0.01224   0.08362   0.00000  Uiso   1.00
H182   H     0.63304   0.01015   0.02422   0.00000  Uiso   1.00
O183   O     0.43100   0.11709   0.30808   0.00000  Uiso   1.00
C184   C     0.44730   0.08978   0.33698   0.00000  Uiso   1.00
H185   H     0.41472   0.08007   0.36356   0.00000  Uiso   1.00
H186   H     0.47076   0.10509   0.35549   0.00000  Uiso   1.00
C187   C     0.46987   0.05057   0.31214   0.00000  Uiso   1.00
H188   H     0.44205   0.03438   0.29947   0.00000  Uiso   1.00
H189   H     0.50050   0.05838   0.28275   0.00000  Uiso   1.00
C190   C     0.48819   0.02146   0.34318   0.00000  Uiso   1.00
H191   H     0.51687   0.03670   0.35550   0.00000  Uiso   1.00
H192   H     0.50375   0.32658   0.32448   0.00000  Uiso   1.00
H193   H     0.45788   0.01230   0.37236   0.00000  Uiso   1.00
O194   O     0.56483   0.21568   0.18958   0.00000  Uiso   1.00
C195   C     0.55776   0.25799   0.20126   0.00000  Uiso   1.00
H196   H     0.59435   0.27186   0.19512   0.00000  Uiso   1.00
H197   H     0.53879   0.26328   0.23742   0.00000  Uiso   1.00
C198   C     0.53100   0.28111   0.17141   0.00000  Uiso   1.00
H199   H     0.54754   0.27344   0.13565   0.00000  Uiso   1.00
H200   H     0.49237   0.27204   0.18002   0.00000  Uiso   1.00
C201   C     0.53291   0.32772   0.17770   0.00000  Uiso   1.00
H202   H     0.51510   0.00265   0.21316   0.00000  Uiso   1.00
H203   H     0.51352   0.01040   0.15559   0.00000  Uiso   1.00
H204   H     0.57111   0.00515   0.16882   0.00000  Uiso   1.00
C205   C     0.66672   0.08739   0.25024   0.00000  Uiso   1.00
C206   C     0.99985   0.24596   0.25037   0.00000  Uiso   1.00
C207   C     0.86203   0.16137   0.04853   0.00000  Uiso   1.00
C208   C     0.81048   0.19627   0.45564   0.00000  Uiso   1.00
C209   C     0.91035   0.15466   0.02616   0.00000  Uiso   1.00
C210   C     0.76258   0.20425   0.47832   0.00000  Uiso   1.00
C211   C     0.95609   0.02161   0.26503   0.00000  Uiso   1.00
C212   C     0.71060   0.31182   0.23733   0.00000  Uiso   1.00
C213   C     0.95602   0.31226   0.26553   0.00000  Uiso   1.00
C214   C     0.71073   0.02117   0.23730   0.00000  Uiso   1.00
C215   C     0.99985   0.29060   0.25101   0.00000  Uiso   1.00
C216   C     0.66677   0.04280   0.25082   0.00000  Uiso   1.00
C217   C     0.85018   0.14204   0.27917   0.00000  Uiso   1.00
C218   C     0.81666   0.19030   0.22020   0.00000  Uiso   1.00
C219   C     0.79962   0.14175   0.27965   0.00000  Uiso   1.00
C220   C     0.86606   0.19145   0.22078   0.00000  Uiso   1.00
C221   C     0.97280   0.16630   0.33616   0.00000  Uiso   1.00
C222   C     0.69392   0.16767   0.16388   0.00000  Uiso   1.00
C223   C     0.95799   0.16482   0.38550   0.00000  Uiso   1.00
C224   C     0.70935   0.17382   0.11499   0.00000  Uiso   1.00
C225   C     0.97541   0.14967   0.45703   0.00000  Uiso   1.00
C226   C     0.69618   0.20336   0.04682   0.00000  Uiso   1.00
C227   C     0.99113   0.15483   0.41007   0.00000  Uiso   1.00
C228   C     0.67838   0.19172   0.09185   0.00000  Uiso   1.00
C229   C     0.90946   0.17208   0.40785   0.00000  Uiso   1.00
C230   C     0.75788   0.16625   0.09256   0.00000  Uiso   1.00
C231   C     0.89294   0.17057   0.45491   0.00000  Uiso   1.00
C232   C     0.77732   0.17812   0.04754   0.00000  Uiso   1.00
C233   C     0.92643   0.15843   0.47945   0.00000  Uiso   1.00
C234   C     0.74529   0.19538   0.02408   0.00000  Uiso   1.00
C235   C     0.84372   0.17962   0.47799   0.00000  Uiso   1.00
C236   C     0.82744   0.17258   0.02512   0.00000  Uiso   1.00
Cu237  Cu    0.71355   0.16667   0.25000   0.00000  Uiso   1.00
Cu238  Cu    0.95311   0.16666   0.25000   0.00000  Uiso   1.00
H239   H     0.93512   0.14608   0.04592   0.00000  Uiso   1.00
H240   H     0.73888   0.21708   0.45944   0.00000  Uiso   1.00
H241   H     0.77968   0.15040   0.11110   0.00000  Uiso   1.00
H242   H     0.88492   0.17801   0.38746   0.00000  Uiso   1.00
H243   H     0.97412   0.19805   0.10903   0.00000  Uiso   1.00
H244   H     0.69557   0.15017   0.39254   0.00000  Uiso   1.00
H245   H     0.85330   0.15878   0.08461   0.00000  Uiso   1.00
H246   H     0.82055   0.20505   0.42069   0.00000  Uiso   1.00
H247   H     0.92190   0.03799   0.27620   0.00000  Uiso   1.00
H248   H     0.74483   0.29549   0.22622   0.00000  Uiso   1.00
H249   H     0.92187   0.29627   0.27758   0.00000  Uiso   1.00
H250   H     0.74504   0.03718   0.22612   0.00000  Uiso   1.00
H251   H     0.86444   0.12265   0.30122   0.00000  Uiso   1.00
H252   H     0.80437   0.20786   0.19549   0.00000  Uiso   1.00
N253   N     0.78403   0.16668   0.24999   0.00000  Uiso   1.00
N254   N     0.88264   0.16666   0.25001   0.00000  Uiso   1.00
O255   O     0.70625   0.10655   0.25000   0.00000  Uiso   1.00
O256   O     0.96042   0.22678   0.25000   0.00000  Uiso   1.00
O257   O     0.96039   0.10654   0.25001   0.00000  Uiso   1.00
O258   O     0.70628   0.22679   0.25000   0.00000  Uiso   1.00
O259   O     0.68519   0.16668   0.31492   0.00000  Uiso   1.00
O260   O     0.98148   0.16666   0.18509   0.00000  Uiso   1.00
O261   O     0.93933   0.16667   0.31492   0.00000  Uiso   1.00
O262   O     0.72733   0.16667   0.18508   0.00000  Uiso   1.00
O263   O     0.67404   0.13859   0.48225   0.00000  Uiso   1.00
C264   C     0.70400   0.10495   0.46307   0.00000  Uiso   1.00
H265   H     0.73572   0.11641   0.43653   0.00000  Uiso   1.00
H266   H     0.68372   0.08173   0.44870   0.00000  Uiso   1.00
C267   C     0.72301   0.08382   0.49945   0.00000  Uiso   1.00
H268   H     0.74626   0.10558   0.01187   0.00000  Uiso   1.00
H269   H     0.69194   0.07517   0.02814   0.00000  Uiso   1.00
C270   C     0.75264   0.04528   0.48153   0.00000  Uiso   1.00
H271   H     0.72980   0.02248   0.46994   0.00000  Uiso   1.00
H272   H     0.76616   0.03086   0.00868   0.00000  Uiso   1.00
H273   H     0.78423   0.05351   0.45312   0.00000  Uiso   1.00
O274   O     0.99798   0.22119   0.02488   0.00000  Uiso   1.00
C275   C     0.67045   0.26461   0.02312   0.00000  Uiso   1.00
H276   H     0.66695   0.27544   0.48986   0.00000  Uiso   1.00
H277   H     0.70680   0.27514   0.02561   0.00000  Uiso   1.00
C278   C     0.96371   0.28484   0.05983   0.00000  Uiso   1.00
H279   H     0.92778   0.27573   0.05558   0.00000  Uiso   1.00
H280   H     0.96646   0.27404   0.09332   0.00000  Uiso   1.00
C281   C     0.96773   0.33176   0.05780   0.00000  Uiso   1.00
H282   H     0.66896   0.00804   0.06462   0.00000  Uiso   1.00
H283   H     0.93710   0.01224   0.08362   0.00000  Uiso   1.00
H284   H     0.96638   0.01015   0.02422   0.00000  Uiso   1.00
O285   O     0.76433   0.11709   0.30808   0.00000  Uiso   1.00
C286   C     0.78064   0.08978   0.33698   0.00000  Uiso   1.00
H287   H     0.74806   0.08007   0.36356   0.00000  Uiso   1.00
H288   H     0.80409   0.10509   0.35549   0.00000  Uiso   1.00
C289   C     0.80321   0.05057   0.31214   0.00000  Uiso   1.00
H290   H     0.77539   0.03438   0.29947   0.00000  Uiso   1.00
H291   H     0.83384   0.05838   0.28275   0.00000  Uiso   1.00
C292   C     0.82152   0.02146   0.34318   0.00000  Uiso   1.00
H293   H     0.85020   0.03670   0.35550   0.00000  Uiso   1.00
H294   H     0.83709   0.32658   0.32448   0.00000  Uiso   1.00
H295   H     0.79121   0.01230   0.37236   0.00000  Uiso   1.00
O296   O     0.89816   0.21568   0.18958   0.00000  Uiso   1.00
C297   C     0.89109   0.25799   0.20126   0.00000  Uiso   1.00
H298   H     0.92768   0.27186   0.19512   0.00000  Uiso   1.00
H299   H     0.87213   0.26328   0.23742   0.00000  Uiso   1.00
C300   C     0.86433   0.28111   0.17141   0.00000  Uiso   1.00
H301   H     0.88087   0.27344   0.13565   0.00000  Uiso   1.00
H302   H     0.82571   0.27204   0.18002   0.00000  Uiso   1.00
C303   C     0.86624   0.32772   0.17770   0.00000  Uiso   1.00
H304   H     0.84844   0.00265   0.21316   0.00000  Uiso   1.00
H305   H     0.84685   0.01040   0.15559   0.00000  Uiso   1.00
H306   H     0.90445   0.00515   0.16882   0.00000  Uiso   1.00
C307   C     0.00005   0.42072   0.25024   0.00000  Uiso   1.00
C308   C     0.33318   0.57930   0.25037   0.00000  Uiso   1.00
C309   C     0.19536   0.49470   0.04853   0.00000  Uiso   1.00
C310   C     0.14382   0.52961   0.45564   0.00000  Uiso   1.00
C311   C     0.24369   0.48799   0.02616   0.00000  Uiso   1.00
C312   C     0.09591   0.53759   0.47832   0.00000  Uiso   1.00
C313   C     0.28942   0.35494   0.26503   0.00000  Uiso   1.00
C314   C     0.04393   0.64515   0.23733   0.00000  Uiso   1.00
C315   C     0.28936   0.64559   0.26553   0.00000  Uiso   1.00
C316   C     0.04407   0.35450   0.23730   0.00000  Uiso   1.00
C317   C     0.33318   0.62393   0.25101   0.00000  Uiso   1.00
C318   C     0.00010   0.37613   0.25082   0.00000  Uiso   1.00
C319   C     0.18351   0.47537   0.27917   0.00000  Uiso   1.00
C320   C     0.15000   0.52364   0.22020   0.00000  Uiso   1.00
C321   C     0.13296   0.47508   0.27965   0.00000  Uiso   1.00
C322   C     0.19939   0.52478   0.22078   0.00000  Uiso   1.00
C323   C     0.30614   0.49963   0.33616   0.00000  Uiso   1.00
C324   C     0.02725   0.50101   0.16388   0.00000  Uiso   1.00
C325   C     0.29132   0.49815   0.38550   0.00000  Uiso   1.00
C326   C     0.04269   0.50715   0.11499   0.00000  Uiso   1.00
C327   C     0.30874   0.48301   0.45703   0.00000  Uiso   1.00
C328   C     0.02952   0.53669   0.04682   0.00000  Uiso   1.00
C329   C     0.32447   0.48817   0.41007   0.00000  Uiso   1.00
C330   C     0.01171   0.52505   0.09185   0.00000  Uiso   1.00
C331   C     0.24279   0.50541   0.40785   0.00000  Uiso   1.00
C332   C     0.09122   0.49958   0.09256   0.00000  Uiso   1.00
C333   C     0.22628   0.50390   0.45491   0.00000  Uiso   1.00
C334   C     0.11065   0.51145   0.04754   0.00000  Uiso   1.00
C335   C     0.25976   0.49176   0.47945   0.00000  Uiso   1.00
C336   C     0.07862   0.52871   0.02408   0.00000  Uiso   1.00
C337   C     0.17705   0.51295   0.47799   0.00000  Uiso   1.00
C338   C     0.16078   0.50592   0.02512   0.00000  Uiso   1.00
Cu339  Cu    0.04689   0.50001   0.25000   0.00000  Uiso   1.00
Cu340  Cu    0.28645   0.49999   0.25000   0.00000  Uiso   1.00
H341   H     0.26845   0.47941   0.04592   0.00000  Uiso   1.00
H342   H     0.07221   0.55042   0.45944   0.00000  Uiso   1.00
H343   H     0.11302   0.48373   0.11110   0.00000  Uiso   1.00
H344   H     0.21826   0.51135   0.38746   0.00000  Uiso   1.00
H345   H     0.30746   0.53138   0.10903   0.00000  Uiso   1.00
H346   H     0.02890   0.48351   0.39254   0.00000  Uiso   1.00
H347   H     0.18663   0.49211   0.08461   0.00000  Uiso   1.00
H348   H     0.15388   0.53838   0.42069   0.00000  Uiso   1.00
H349   H     0.25523   0.37132   0.27620   0.00000  Uiso   1.00
H350   H     0.07816   0.62882   0.22622   0.00000  Uiso   1.00
H351   H     0.25521   0.62961   0.27758   0.00000  Uiso   1.00
H352   H     0.07838   0.37051   0.22612   0.00000  Uiso   1.00
H353   H     0.19777   0.45598   0.30122   0.00000  Uiso   1.00
H354   H     0.13771   0.54119   0.19549   0.00000  Uiso   1.00
N355   N     0.11736   0.50001   0.24999   0.00000  Uiso   1.00
N356   N     0.21597   0.49999   0.25001   0.00000  Uiso   1.00
O357   O     0.03958   0.43989   0.25000   0.00000  Uiso   1.00
O358   O     0.29375   0.56011   0.25000   0.00000  Uiso   1.00
O359   O     0.29372   0.43988   0.25001   0.00000  Uiso   1.00
O360   O     0.03961   0.56012   0.25000   0.00000  Uiso   1.00
O361   O     0.01852   0.50001   0.31492   0.00000  Uiso   1.00
O362   O     0.31481   0.49999   0.18509   0.00000  Uiso   1.00
O363   O     0.27267   0.50000   0.31492   0.00000  Uiso   1.00
O364   O     0.06067   0.50000   0.18508   0.00000  Uiso   1.00
O365   O     0.00738   0.47193   0.48225   0.00000  Uiso   1.00
C366   C     0.03734   0.43829   0.46307   0.00000  Uiso   1.00
H367   H     0.06905   0.44974   0.43653   0.00000  Uiso   1.00
H368   H     0.01706   0.41506   0.44870   0.00000  Uiso   1.00
C369   C     0.05634   0.41716   0.49945   0.00000  Uiso   1.00
H370   H     0.07959   0.43891   0.01187   0.00000  Uiso   1.00
H371   H     0.02527   0.40850   0.02814   0.00000  Uiso   1.00
C372   C     0.08597   0.37861   0.48153   0.00000  Uiso   1.00
H373   H     0.06313   0.35582   0.46994   0.00000  Uiso   1.00
H374   H     0.09950   0.36420   0.00868   0.00000  Uiso   1.00
H375   H     0.11757   0.38685   0.45312   0.00000  Uiso   1.00
O376   O     0.33131   0.55453   0.02488   0.00000  Uiso   1.00
C377   C     0.00378   0.59795   0.02312   0.00000  Uiso   1.00
H378   H     0.00028   0.60877   0.48986   0.00000  Uiso   1.00
H379   H     0.04014   0.60847   0.02561   0.00000  Uiso   1.00
C380   C     0.29704   0.61817   0.05983   0.00000  Uiso   1.00
H381   H     0.26111   0.60906   0.05558   0.00000  Uiso   1.00
H382   H     0.29980   0.60737   0.09332   0.00000  Uiso   1.00
C383   C     0.30107   0.66509   0.05780   0.00000  Uiso   1.00
H384   H     0.00229   0.34137   0.06462   0.00000  Uiso   1.00
H385   H     0.27043   0.34557   0.08362   0.00000  Uiso   1.00
H386   H     0.29971   0.34348   0.02422   0.00000  Uiso   1.00
O387   O     0.09767   0.45042   0.30808   0.00000  Uiso   1.00
C388   C     0.11397   0.42311   0.33698   0.00000  Uiso   1.00
H389   H     0.08139   0.41340   0.36356   0.00000  Uiso   1.00
H390   H     0.13743   0.43842   0.35549   0.00000  Uiso   1.00
C391   C     0.13654   0.38390   0.31214   0.00000  Uiso   1.00
H392   H     0.10872   0.36771   0.29947   0.00000  Uiso   1.00
H393   H     0.16717   0.39172   0.28275   0.00000  Uiso   1.00
C394   C     0.15485   0.35479   0.34318   0.00000  Uiso   1.00
H395   H     0.18353   0.37003   0.35550   0.00000  Uiso   1.00
H396   H     0.17042   0.65991   0.32448   0.00000  Uiso   1.00
H397   H     0.12455   0.34563   0.37236   0.00000  Uiso   1.00
O398   O     0.23150   0.54901   0.18958   0.00000  Uiso   1.00
C399   C     0.22443   0.59132   0.20126   0.00000  Uiso   1.00
H400   H     0.26102   0.60519   0.19512   0.00000  Uiso   1.00
H401   H     0.20546   0.59662   0.23742   0.00000  Uiso   1.00
C402   C     0.19767   0.61444   0.17141   0.00000  Uiso   1.00
H403   H     0.21421   0.60678   0.13565   0.00000  Uiso   1.00
H404   H     0.15904   0.60538   0.18002   0.00000  Uiso   1.00
C405   C     0.19958   0.66105   0.17770   0.00000  Uiso   1.00
H406   H     0.18177   0.33598   0.21316   0.00000  Uiso   1.00
H407   H     0.18019   0.34373   0.15559   0.00000  Uiso   1.00
H408   H     0.23778   0.33849   0.16882   0.00000  Uiso   1.00
C409   C     0.33338   0.42072   0.25024   0.00000  Uiso   1.00
C410   C     0.66651   0.57930   0.25037   0.00000  Uiso   1.00
C411   C     0.52869   0.49470   0.04853   0.00000  Uiso   1.00
C412   C     0.47715   0.52961   0.45564   0.00000  Uiso   1.00
C413   C     0.57702   0.48799   0.02616   0.00000  Uiso   1.00
C414   C     0.42925   0.53759   0.47832   0.00000  Uiso   1.00
C415   C     0.62276   0.35494   0.26503   0.00000  Uiso   1.00
C416   C     0.37726   0.64515   0.23733   0.00000  Uiso   1.00
C417   C     0.62269   0.64559   0.26553   0.00000  Uiso   1.00
C418   C     0.37740   0.35450   0.23730   0.00000  Uiso   1.00
C419   C     0.66651   0.62393   0.25101   0.00000  Uiso   1.00
C420   C     0.33343   0.37613   0.25082   0.00000  Uiso   1.00
C421   C     0.51685   0.47537   0.27917   0.00000  Uiso   1.00
C422   C     0.48333   0.52364   0.22020   0.00000  Uiso   1.00
C423   C     0.46629   0.47508   0.27965   0.00000  Uiso   1.00
C424   C     0.53272   0.52478   0.22078   0.00000  Uiso   1.00
C425   C     0.63947   0.49963   0.33616   0.00000  Uiso   1.00
C426   C     0.36058   0.50101   0.16388   0.00000  Uiso   1.00
C427   C     0.62466   0.49815   0.38550   0.00000  Uiso   1.00
C428   C     0.37602   0.50715   0.11499   0.00000  Uiso   1.00
C429   C     0.64208   0.48301   0.45703   0.00000  Uiso   1.00
C430   C     0.36285   0.53669   0.04682   0.00000  Uiso   1.00
C431   C     0.65780   0.48817   0.41007   0.00000  Uiso   1.00
C432   C     0.34504   0.52505   0.09185   0.00000  Uiso   1.00
C433   C     0.57613   0.50541   0.40785   0.00000  Uiso   1.00
C434   C     0.42455   0.49958   0.09256   0.00000  Uiso   1.00
C435   C     0.55961   0.50390   0.45491   0.00000  Uiso   1.00
C436   C     0.44398   0.51145   0.04754   0.00000  Uiso   1.00
C437   C     0.59309   0.49176   0.47945   0.00000  Uiso   1.00
C438   C     0.41195   0.52871   0.02408   0.00000  Uiso   1.00
C439   C     0.51039   0.51295   0.47799   0.00000  Uiso   1.00
C440   C     0.49411   0.50592   0.02512   0.00000  Uiso   1.00
Cu441  Cu    0.38022   0.50001   0.25000   0.00000  Uiso   1.00
Cu442  Cu    0.61978   0.49999   0.25000   0.00000  Uiso   1.00
H443   H     0.60179   0.47941   0.04592   0.00000  Uiso   1.00
H444   H     0.40554   0.55042   0.45944   0.00000  Uiso   1.00
H445   H     0.44635   0.48373   0.11110   0.00000  Uiso   1.00
H446   H     0.55159   0.51135   0.38746   0.00000  Uiso   1.00
H447   H     0.64079   0.53138   0.10903   0.00000  Uiso   1.00
H448   H     0.36224   0.48351   0.39254   0.00000  Uiso   1.00
H449   H     0.51996   0.49211   0.08461   0.00000  Uiso   1.00
H450   H     0.48722   0.53838   0.42069   0.00000  Uiso   1.00
H451   H     0.58857   0.37132   0.27620   0.00000  Uiso   1.00
H452   H     0.41150   0.62882   0.22622   0.00000  Uiso   1.00
H453   H     0.58854   0.62961   0.27758   0.00000  Uiso   1.00
H454   H     0.41171   0.37051   0.22612   0.00000  Uiso   1.00
H455   H     0.53111   0.45598   0.30122   0.00000  Uiso   1.00
H456   H     0.47104   0.54119   0.19549   0.00000  Uiso   1.00
N457   N     0.45069   0.50001   0.24999   0.00000  Uiso   1.00
N458   N     0.54931   0.49999   0.25001   0.00000  Uiso   1.00
O459   O     0.37291   0.43989   0.25000   0.00000  Uiso   1.00
O460   O     0.62709   0.56011   0.25000   0.00000  Uiso   1.00
O461   O     0.62706   0.43988   0.25001   0.00000  Uiso   1.00
O462   O     0.37294   0.56012   0.25000   0.00000  Uiso   1.00
O463   O     0.35186   0.50001   0.31492   0.00000  Uiso   1.00
O464   O     0.64814   0.49999   0.18509   0.00000  Uiso   1.00
O465   O     0.60600   0.50000   0.31492   0.00000  Uiso   1.00
O466   O     0.39400   0.50000   0.18508   0.00000  Uiso   1.00
O467   O     0.34071   0.47193   0.48225   0.00000  Uiso   1.00
C468   C     0.37067   0.43829   0.46307   0.00000  Uiso   1.00
H469   H     0.40239   0.44974   0.43653   0.00000  Uiso   1.00
H470   H     0.35039   0.41506   0.44870   0.00000  Uiso   1.00
C471   C     0.38967   0.41716   0.49945   0.00000  Uiso   1.00
H472   H     0.41292   0.43891   0.01187   0.00000  Uiso   1.00
H473   H     0.35861   0.40850   0.02814   0.00000  Uiso   1.00
C474   C     0.41930   0.37861   0.48153   0.00000  Uiso   1.00
H475   H     0.39647   0.35582   0.46994   0.00000  Uiso   1.00
H476   H     0.43283   0.36420   0.00868   0.00000  Uiso   1.00
H477   H     0.45090   0.38685   0.45312   0.00000  Uiso   1.00
O478   O     0.66465   0.55453   0.02488   0.00000  Uiso   1.00
C479   C     0.33712   0.59795   0.02312   0.00000  Uiso   1.00
H480   H     0.33362   0.60877   0.48986   0.00000  Uiso   1.00
H481   H     0.37347   0.60847   0.02561   0.00000  Uiso   1.00
C482   C     0.63038   0.61817   0.05983   0.00000  Uiso   1.00
H483   H     0.59444   0.60906   0.05558   0.00000  Uiso   1.00
H484   H     0.63313   0.60737   0.09332   0.00000  Uiso   1.00
C485   C     0.63440   0.66509   0.05780   0.00000  Uiso   1.00
H486   H     0.33563   0.34137   0.06462   0.00000  Uiso   1.00
H487   H     0.60377   0.34557   0.08362   0.00000  Uiso   1.00
H488   H     0.63304   0.34348   0.02422   0.00000  Uiso   1.00
O489   O     0.43100   0.45042   0.30808   0.00000  Uiso   1.00
C490   C     0.44730   0.42311   0.33698   0.00000  Uiso   1.00
H491   H     0.41472   0.41340   0.36356   0.00000  Uiso   1.00
H492   H     0.47076   0.43842   0.35549   0.00000  Uiso   1.00
C493   C     0.46987   0.38390   0.31214   0.00000  Uiso   1.00
H494   H     0.44205   0.36771   0.29947   0.00000  Uiso   1.00
H495   H     0.50050   0.39172   0.28275   0.00000  Uiso   1.00
C496   C     0.48819   0.35479   0.34318   0.00000  Uiso   1.00
H497   H     0.51687   0.37003   0.35550   0.00000  Uiso   1.00
H498   H     0.50375   0.65991   0.32448   0.00000  Uiso   1.00
H499   H     0.45788   0.34563   0.37236   0.00000  Uiso   1.00
O500   O     0.56483   0.54901   0.18958   0.00000  Uiso   1.00
C501   C     0.55776   0.59132   0.20126   0.00000  Uiso   1.00
H502   H     0.59435   0.60519   0.19512   0.00000  Uiso   1.00
H503   H     0.53879   0.59662   0.23742   0.00000  Uiso   1.00
C504   C     0.53100   0.61444   0.17141   0.00000  Uiso   1.00
H505   H     0.54754   0.60678   0.13565   0.00000  Uiso   1.00
H506   H     0.49237   0.60538   0.18002   0.00000  Uiso   1.00
C507   C     0.53291   0.66105   0.17770   0.00000  Uiso   1.00
H508   H     0.51510   0.33598   0.21316   0.00000  Uiso   1.00
H509   H     0.51352   0.34373   0.15559   0.00000  Uiso   1.00
H510   H     0.57111   0.33849   0.16882   0.00000  Uiso   1.00
C511   C     0.66672   0.42072   0.25024   0.00000  Uiso   1.00
C512   C     0.99985   0.57930   0.25037   0.00000  Uiso   1.00
C513   C     0.86203   0.49470   0.04853   0.00000  Uiso   1.00
C514   C     0.81048   0.52961   0.45564   0.00000  Uiso   1.00
C515   C     0.91035   0.48799   0.02616   0.00000  Uiso   1.00
C516   C     0.76258   0.53759   0.47832   0.00000  Uiso   1.00
C517   C     0.95609   0.35494   0.26503   0.00000  Uiso   1.00
C518   C     0.71060   0.64515   0.23733   0.00000  Uiso   1.00
C519   C     0.95602   0.64559   0.26553   0.00000  Uiso   1.00
C520   C     0.71073   0.35450   0.23730   0.00000  Uiso   1.00
C521   C     0.99985   0.62393   0.25101   0.00000  Uiso   1.00
C522   C     0.66677   0.37613   0.25082   0.00000  Uiso   1.00
C523   C     0.85018   0.47537   0.27917   0.00000  Uiso   1.00
C524   C     0.81666   0.52364   0.22020   0.00000  Uiso   1.00
C525   C     0.79962   0.47508   0.27965   0.00000  Uiso   1.00
C526   C     0.86606   0.52478   0.22078   0.00000  Uiso   1.00
C527   C     0.97280   0.49963   0.33616   0.00000  Uiso   1.00
C528   C     0.69392   0.50101   0.16388   0.00000  Uiso   1.00
C529   C     0.95799   0.49815   0.38550   0.00000  Uiso   1.00
C530   C     0.70935   0.50715   0.11499   0.00000  Uiso   1.00
C531   C     0.97541   0.48301   0.45703   0.00000  Uiso   1.00
C532   C     0.69618   0.53669   0.04682   0.00000  Uiso   1.00
C533   C     0.99113   0.48817   0.41007   0.00000  Uiso   1.00
C534   C     0.67838   0.52505   0.09185   0.00000  Uiso   1.00
C535   C     0.90946   0.50541   0.40785   0.00000  Uiso   1.00
C536   C     0.75788   0.49958   0.09256   0.00000  Uiso   1.00
C537   C     0.89294   0.50390   0.45491   0.00000  Uiso   1.00
C538   C     0.77732   0.51145   0.04754   0.00000  Uiso   1.00
C539   C     0.92643   0.49176   0.47945   0.00000  Uiso   1.00
C540   C     0.74529   0.52871   0.02408   0.00000  Uiso   1.00
C541   C     0.84372   0.51295   0.47799   0.00000  Uiso   1.00
C542   C     0.82744   0.50592   0.02512   0.00000  Uiso   1.00
Cu543  Cu    0.71355   0.50001   0.25000   0.00000  Uiso   1.00
Cu544  Cu    0.95311   0.49999   0.25000   0.00000  Uiso   1.00
H545   H     0.93512   0.47941   0.04592   0.00000  Uiso   1.00
H546   H     0.73888   0.55042   0.45944   0.00000  Uiso   1.00
H547   H     0.77968   0.48373   0.11110   0.00000  Uiso   1.00
H548   H     0.88492   0.51135   0.38746   0.00000  Uiso   1.00
H549   H     0.97412   0.53138   0.10903   0.00000  Uiso   1.00
H550   H     0.69557   0.48351   0.39254   0.00000  Uiso   1.00
H551   H     0.85330   0.49211   0.08461   0.00000  Uiso   1.00
H552   H     0.82055   0.53838   0.42069   0.00000  Uiso   1.00
H553   H     0.92190   0.37132   0.27620   0.00000  Uiso   1.00
H554   H     0.74483   0.62882   0.22622   0.00000  Uiso   1.00
H555   H     0.92187   0.62961   0.27758   0.00000  Uiso   1.00
H556   H     0.74504   0.37051   0.22612   0.00000  Uiso   1.00
H557   H     0.86444   0.45598   0.30122   0.00000  Uiso   1.00
H558   H     0.80437   0.54119   0.19549   0.00000  Uiso   1.00
N559   N     0.78403   0.50001   0.24999   0.00000  Uiso   1.00
N560   N     0.88264   0.49999   0.25001   0.00000  Uiso   1.00
O561   O     0.70625   0.43989   0.25000   0.00000  Uiso   1.00
O562   O     0.96042   0.56011   0.25000   0.00000  Uiso   1.00
O563   O     0.96039   0.43988   0.25001   0.00000  Uiso   1.00
O564   O     0.70628   0.56012   0.25000   0.00000  Uiso   1.00
O565   O     0.68519   0.50001   0.31492   0.00000  Uiso   1.00
O566   O     0.98148   0.49999   0.18509   0.00000  Uiso   1.00
O567   O     0.93933   0.50000   0.31492   0.00000  Uiso   1.00
O568   O     0.72733   0.50000   0.18508   0.00000  Uiso   1.00
O569   O     0.67404   0.47193   0.48225   0.00000  Uiso   1.00
C570   C     0.70400   0.43829   0.46307   0.00000  Uiso   1.00
H571   H     0.73572   0.44974   0.43653   0.00000  Uiso   1.00
H572   H     0.68372   0.41506   0.44870   0.00000  Uiso   1.00
C573   C     0.72301   0.41716   0.49945   0.00000  Uiso   1.00
H574   H     0.74626   0.43891   0.01187   0.00000  Uiso   1.00
H575   H     0.69194   0.40850   0.02814   0.00000  Uiso   1.00
C576   C     0.75264   0.37861   0.48153   0.00000  Uiso   1.00
H577   H     0.72980   0.35582   0.46994   0.00000  Uiso   1.00
H578   H     0.76616   0.36420   0.00868   0.00000  Uiso   1.00
H579   H     0.78423   0.38685   0.45312   0.00000  Uiso   1.00
O580   O     0.99798   0.55453   0.02488   0.00000  Uiso   1.00
C581   C     0.67045   0.59795   0.02312   0.00000  Uiso   1.00
H582   H     0.66695   0.60877   0.48986   0.00000  Uiso   1.00
H583   H     0.70680   0.60847   0.02561   0.00000  Uiso   1.00
C584   C     0.96371   0.61817   0.05983   0.00000  Uiso   1.00
H585   H     0.92778   0.60906   0.05558   0.00000  Uiso   1.00
H586   H     0.96646   0.60737   0.09332   0.00000  Uiso   1.00
C587   C     0.96773   0.66509   0.05780   0.00000  Uiso   1.00
H588   H     0.66896   0.34137   0.06462   0.00000  Uiso   1.00
H589   H     0.93710   0.34557   0.08362   0.00000  Uiso   1.00
H590   H     0.96638   0.34348   0.02422   0.00000  Uiso   1.00
O591   O     0.76433   0.45042   0.30808   0.00000  Uiso   1.00
C592   C     0.78064   0.42311   0.33698   0.00000  Uiso   1.00
H593   H     0.74806   0.41340   0.36356   0.00000  Uiso   1.00
H594   H     0.80409   0.43842   0.35549   0.00000  Uiso   1.00
C595   C     0.80321   0.38390   0.31214   0.00000  Uiso   1.00
H596   H     0.77539   0.36771   0.29947   0.00000  Uiso   1.00
H597   H     0.83384   0.39172   0.28275   0.00000  Uiso   1.00
C598   C     0.82152   0.35479   0.34318   0.00000  Uiso   1.00
H599   H     0.85020   0.37003   0.35550   0.00000  Uiso   1.00
H600   H     0.83709   0.65991   0.32448   0.00000  Uiso   1.00
H601   H     0.79121   0.34563   0.37236   0.00000  Uiso   1.00
O602   O     0.89816   0.54901   0.18958   0.00000  Uiso   1.00
C603   C     0.89109   0.59132   0.20126   0.00000  Uiso   1.00
H604   H     0.92768   0.60519   0.19512   0.00000  Uiso   1.00
H605   H     0.87213   0.59662   0.23742   0.00000  Uiso   1.00
C606   C     0.86433   0.61444   0.17141   0.00000  Uiso   1.00
H607   H     0.88087   0.60678   0.13565   0.00000  Uiso   1.00
H608   H     0.82571   0.60538   0.18002   0.00000  Uiso   1.00
C609   C     0.86624   0.66105   0.17770   0.00000  Uiso   1.00
H610   H     0.84844   0.33598   0.21316   0.00000  Uiso   1.00
H611   H     0.84685   0.34373   0.15559   0.00000  Uiso   1.00
H612   H     0.90445   0.33849   0.16882   0.00000  Uiso   1.00
C613   C     0.00005   0.75406   0.25024   0.00000  Uiso   1.00
C614   C     0.33318   0.91263   0.25037   0.00000  Uiso   1.00
C615   C     0.19536   0.82803   0.04853   0.00000  Uiso   1.00
C616   C     0.14382   0.86294   0.45564   0.00000  Uiso   1.00
C617   C     0.24369   0.82133   0.02616   0.00000  Uiso   1.00
C618   C     0.09591   0.87092   0.47832   0.00000  Uiso   1.00
C619   C     0.28942   0.68827   0.26503   0.00000  Uiso   1.00
C620   C     0.04393   0.97848   0.23733   0.00000  Uiso   1.00
C621   C     0.28936   0.97893   0.26553   0.00000  Uiso   1.00
C622   C     0.04407   0.68784   0.23730   0.00000  Uiso   1.00
C623   C     0.33318   0.95726   0.25101   0.00000  Uiso   1.00
C624   C     0.00010   0.70947   0.25082   0.00000  Uiso   1.00
C625   C     0.18351   0.80870   0.27917   0.00000  Uiso   1.00
C626   C     0.15000   0.85697   0.22020   0.00000  Uiso   1.00
C627   C     0.13296   0.80842   0.27965   0.00000  Uiso   1.00
C628   C     0.19939   0.85812   0.22078   0.00000  Uiso   1.00
C629   C     0.30614   0.83297   0.33616   0.00000  Uiso   1.00
C630   C     0.02725   0.83434   0.16388   0.00000  Uiso   1.00
C631   C     0.29132   0.83149   0.38550   0.00000  Uiso   1.00
C632   C     0.04269   0.84048   0.11499   0.00000  Uiso   1.00
C633   C     0.30874   0.81634   0.45703   0.00000  Uiso   1.00
C634   C     0.02952   0.87003   0.04682   0.00000  Uiso   1.00
C635   C     0.32447   0.82150   0.41007   0.00000  Uiso   1.00
C636   C     0.01171   0.85839   0.09185   0.00000  Uiso   1.00
C637   C     0.24279   0.83875   0.40785   0.00000  Uiso   1.00
C638   C     0.09122   0.83291   0.09256   0.00000  Uiso   1.00
C639   C     0.22628   0.83723   0.45491   0.00000  Uiso   1.00
C640   C     0.11065   0.84479   0.04754   0.00000  Uiso   1.00
C641   C     0.25976   0.82509   0.47945   0.00000  Uiso   1.00
C642   C     0.07862   0.86205   0.02408   0.00000  Uiso   1.00
C643   C     0.17705   0.84629   0.47799   0.00000  Uiso   1.00
C644   C     0.16078   0.83925   0.02512   0.00000  Uiso   1.00
Cu645  Cu    0.04689   0.83334   0.25000   0.00000  Uiso   1.00
Cu646  Cu    0.28645   0.83333   0.25000   0.00000  Uiso   1.00
H647   H     0.26845   0.81275   0.04592   0.00000  Uiso   1.00
H648   H     0.07221   0.88375   0.45944   0.00000  Uiso   1.00
H649   H     0.11302   0.81707   0.11110   0.00000  Uiso   1.00
H650   H     0.21826   0.84468   0.38746   0.00000  Uiso   1.00
H651   H     0.30746   0.86472   0.10903   0.00000  Uiso   1.00
H652   H     0.02890   0.81684   0.39254   0.00000  Uiso   1.00
H653   H     0.18663   0.82544   0.08461   0.00000  Uiso   1.00
H654   H     0.15388   0.87171   0.42069   0.00000  Uiso   1.00
H655   H     0.25523   0.70465   0.27620   0.00000  Uiso   1.00
H656   H     0.07816   0.96215   0.22622   0.00000  Uiso   1.00
H657   H     0.25521   0.96294   0.27758   0.00000  Uiso   1.00
H658   H     0.07838   0.70384   0.22612   0.00000  Uiso   1.00
H659   H     0.19777   0.78931   0.30122   0.00000  Uiso   1.00
H660   H     0.13771   0.87452   0.19549   0.00000  Uiso   1.00
N661   N     0.11736   0.83334   0.24999   0.00000  Uiso   1.00
N662   N     0.21597   0.83332   0.25001   0.00000  Uiso   1.00
O663   O     0.03958   0.77322   0.25000   0.00000  Uiso   1.00
O664   O     0.29375   0.89345   0.25000   0.00000  Uiso   1.00
O665   O     0.29372   0.77321   0.25001   0.00000  Uiso   1.00
O666   O     0.03961   0.89346   0.25000   0.00000  Uiso   1.00
O667   O     0.01852   0.83334   0.31492   0.00000  Uiso   1.00
O668   O     0.31481   0.83332   0.18509   0.00000  Uiso   1.00
O669   O     0.27267   0.83333   0.31492   0.00000  Uiso   1.00
O670   O     0.06067   0.83333   0.18508   0.00000  Uiso   1.00
O671   O     0.00738   0.80526   0.48225   0.00000  Uiso   1.00
C672   C     0.03734   0.77162   0.46307   0.00000  Uiso   1.00
H673   H     0.06905   0.78307   0.43653   0.00000  Uiso   1.00
H674   H     0.01706   0.74839   0.44870   0.00000  Uiso   1.00
C675   C     0.05634   0.75049   0.49945   0.00000  Uiso   1.00
H676   H     0.07959   0.77224   0.01187   0.00000  Uiso   1.00
H677   H     0.02527   0.74184   0.02814   0.00000  Uiso   1.00
C678   C     0.08597   0.71195   0.48153   0.00000  Uiso   1.00
H679   H     0.06313   0.68915   0.46994   0.00000  Uiso   1.00
H680   H     0.09950   0.69753   0.00868   0.00000  Uiso   1.00
H681   H     0.11757   0.72018   0.45312   0.00000  Uiso   1.00
O682   O     0.33131   0.88786   0.02488   0.00000  Uiso   1.00
C683   C     0.00378   0.93128   0.02312   0.00000  Uiso   1.00
H684   H     0.00028   0.94210   0.48986   0.00000  Uiso   1.00
H685   H     0.04014   0.94180   0.02561   0.00000  Uiso   1.00
C686   C     0.29704   0.95150   0.05983   0.00000  Uiso   1.00
H687   H     0.26111   0.94239   0.05558   0.00000  Uiso   1.00
H688   H     0.29980   0.94071   0.09332   0.00000  Uiso   1.00
C689   C     0.30107   0.99842   0.05780   0.00000  Uiso   1.00
H690   H     0.00229   0.67470   0.06462   0.00000  Uiso   1.00
H691   H     0.27043   0.67891   0.08362   0.00000  Uiso   1.00
H692   H     0.29971   0.67682   0.02422   0.00000  Uiso   1.00
O693   O     0.09767   0.78376   0.30808   0.00000  Uiso   1.00
C694   C     0.11397   0.75644   0.33698   0.00000  Uiso   1.00
H695   H     0.08139   0.74673   0.36356   0.00000  Uiso   1.00
H696   H     0.13743   0.77176   0.35549   0.00000  Uiso   1.00
C697   C     0.13654   0.71724   0.31214   0.00000  Uiso   1.00
H698   H     0.10872   0.70104   0.29947   0.00000  Uiso   1.00
H699   H     0.16717   0.72505   0.28275   0.00000  Uiso   1.00
C700   C     0.15485   0.68813   0.34318   0.00000  Uiso   1.00
H701   H     0.18353   0.70337   0.35550   0.00000  Uiso   1.00
H702   H     0.17042   0.99325   0.32448   0.00000  Uiso   1.00
H703   H     0.12455   0.67896   0.37236   0.00000  Uiso   1.00
O704   O     0.23150   0.88235   0.18958   0.00000  Uiso   1.00
C705   C     0.22443   0.92466   0.20126   0.00000  Uiso   1.00
H706   H     0.26102   0.93853   0.19512   0.00000  Uiso   1.00
H707   H     0.20546   0.92995   0.23742   0.00000  Uiso   1.00
C708   C     0.19767   0.94778   0.17141   0.00000  Uiso   1.00
H709   H     0.21421   0.94011   0.13565   0.00000  Uiso   1.00
H710   H     0.15904   0.93871   0.18002   0.00000  Uiso   1.00
C711   C     0.19958   0.99439   0.17770   0.00000  Uiso   1.00
H712   H     0.18177   0.66932   0.21316   0.00000  Uiso   1.00
H713   H     0.18019   0.67707   0.15559   0.00000  Uiso   1.00
H714   H     0.23778   0.67182   0.16882   0.00000  Uiso   1.00
C715   C     0.33338   0.75406   0.25024   0.00000  Uiso   1.00
C716   C     0.66651   0.91263   0.25037   0.00000  Uiso   1.00
C717   C     0.52869   0.82803   0.04853   0.00000  Uiso   1.00
C718   C     0.47715   0.86294   0.45564   0.00000  Uiso   1.00
C719   C     0.57702   0.82133   0.02616   0.00000  Uiso   1.00
C720   C     0.42925   0.87092   0.47832   0.00000  Uiso   1.00
C721   C     0.62276   0.68827   0.26503   0.00000  Uiso   1.00
C722   C     0.37726   0.97848   0.23733   0.00000  Uiso   1.00
C723   C     0.62269   0.97893   0.26553   0.00000  Uiso   1.00
C724   C     0.37740   0.68784   0.23730   0.00000  Uiso   1.00
C725   C     0.66651   0.95726   0.25101   0.00000  Uiso   1.00
C726   C     0.33343   0.70947   0.25082   0.00000  Uiso   1.00
C727   C     0.51685   0.80870   0.27917   0.00000  Uiso   1.00
C728   C     0.48333   0.85697   0.22020   0.00000  Uiso   1.00
C729   C     0.46629   0.80842   0.27965   0.00000  Uiso   1.00
C730   C     0.53272   0.85812   0.22078   0.00000  Uiso   1.00
C731   C     0.63947   0.83297   0.33616   0.00000  Uiso   1.00
C732   C     0.36058   0.83434   0.16388   0.00000  Uiso   1.00
C733   C     0.62466   0.83149   0.38550   0.00000  Uiso   1.00
C734   C     0.37602   0.84048   0.11499   0.00000  Uiso   1.00
C735   C     0.64208   0.81634   0.45703   0.00000  Uiso   1.00
C736   C     0.36285   0.87003   0.04682   0.00000  Uiso   1.00
C737   C     0.65780   0.82150   0.41007   0.00000  Uiso   1.00
C738   C     0.34504   0.85839   0.09185   0.00000  Uiso   1.00
C739   C     0.57613   0.83875   0.40785   0.00000  Uiso   1.00
C740   C     0.42455   0.83291   0.09256   0.00000  Uiso   1.00
C741   C     0.55961   0.83723   0.45491   0.00000  Uiso   1.00
C742   C     0.44398   0.84479   0.04754   0.00000  Uiso   1.00
C743   C     0.59309   0.82509   0.47945   0.00000  Uiso   1.00
C744   C     0.41195   0.86205   0.02408   0.00000  Uiso   1.00
C745   C     0.51039   0.84629   0.47799   0.00000  Uiso   1.00
C746   C     0.49411   0.83925   0.02512   0.00000  Uiso   1.00
Cu747  Cu    0.38022   0.83334   0.25000   0.00000  Uiso   1.00
Cu748  Cu    0.61978   0.83333   0.25000   0.00000  Uiso   1.00
H749   H     0.60179   0.81275   0.04592   0.00000  Uiso   1.00
H750   H     0.40554   0.88375   0.45944   0.00000  Uiso   1.00
H751   H     0.44635   0.81707   0.11110   0.00000  Uiso   1.00
H752   H     0.55159   0.84468   0.38746   0.00000  Uiso   1.00
H753   H     0.64079   0.86472   0.10903   0.00000  Uiso   1.00
H754   H     0.36224   0.81684   0.39254   0.00000  Uiso   1.00
H755   H     0.51996   0.82544   0.08461   0.00000  Uiso   1.00
H756   H     0.48722   0.87171   0.42069   0.00000  Uiso   1.00
H757   H     0.58857   0.70465   0.27620   0.00000  Uiso   1.00
H758   H     0.41150   0.96215   0.22622   0.00000  Uiso   1.00
H759   H     0.58854   0.96294   0.27758   0.00000  Uiso   1.00
H760   H     0.41171   0.70384   0.22612   0.00000  Uiso   1.00
H761   H     0.53111   0.78931   0.30122   0.00000  Uiso   1.00
H762   H     0.47104   0.87452   0.19549   0.00000  Uiso   1.00
N763   N     0.45069   0.83334   0.24999   0.00000  Uiso   1.00
N764   N     0.54931   0.83332   0.25001   0.00000  Uiso   1.00
O765   O     0.37291   0.77322   0.25000   0.00000  Uiso   1.00
O766   O     0.62709   0.89345   0.25000   0.00000  Uiso   1.00
O767   O     0.62706   0.77321   0.25001   0.00000  Uiso   1.00
O768   O     0.37294   0.89346   0.25000   0.00000  Uiso   1.00
O769   O     0.35186   0.83334   0.31492   0.00000  Uiso   1.00
O770   O     0.64814   0.83332   0.18509   0.00000  Uiso   1.00
O771   O     0.60600   0.83333   0.31492   0.00000  Uiso   1.00
O772   O     0.39400   0.83333   0.18508   0.00000  Uiso   1.00
O773   O     0.34071   0.80526   0.48225   0.00000  Uiso   1.00
C774   C     0.37067   0.77162   0.46307   0.00000  Uiso   1.00
H775   H     0.40239   0.78307   0.43653   0.00000  Uiso   1.00
H776   H     0.35039   0.74839   0.44870   0.00000  Uiso   1.00
C777   C     0.38967   0.75049   0.49945   0.00000  Uiso   1.00
H778   H     0.41292   0.77224   0.01187   0.00000  Uiso   1.00
H779   H     0.35861   0.74184   0.02814   0.00000  Uiso   1.00
C780   C     0.41930   0.71195   0.48153   0.00000  Uiso   1.00
H781   H     0.39647   0.68915   0.46994   0.00000  Uiso   1.00
H782   H     0.43283   0.69753   0.00868   0.00000  Uiso   1.00
H783   H     0.45090   0.72018   0.45312   0.00000  Uiso   1.00
O784   O     0.66465   0.88786   0.02488   0.00000  Uiso   1.00
C785   C     0.33712   0.93128   0.02312   0.00000  Uiso   1.00
H786   H     0.33362   0.94210   0.48986   0.00000  Uiso   1.00
H787   H     0.37347   0.94180   0.02561   0.00000  Uiso   1.00
C788   C     0.63038   0.95150   0.05983   0.00000  Uiso   1.00
H789   H     0.59444   0.94239   0.05558   0.00000  Uiso   1.00
H790   H     0.63313   0.94071   0.09332   0.00000  Uiso   1.00
C791   C     0.63440   0.99842   0.05780   0.00000  Uiso   1.00
H792   H     0.33563   0.67470   0.06462   0.00000  Uiso   1.00
H793   H     0.60377   0.67891   0.08362   0.00000  Uiso   1.00
H794   H     0.63304   0.67682   0.02422   0.00000  Uiso   1.00
O795   O     0.43100   0.78376   0.30808   0.00000  Uiso   1.00
C796   C     0.44730   0.75644   0.33698   0.00000  Uiso   1.00
H797   H     0.41472   0.74673   0.36356   0.00000  Uiso   1.00
H798   H     0.47076   0.77176   0.35549   0.00000  Uiso   1.00
C799   C     0.46987   0.71724   0.31214   0.00000  Uiso   1.00
H800   H     0.44205   0.70104   0.29947   0.00000  Uiso   1.00
H801   H     0.50050   0.72505   0.28275   0.00000  Uiso   1.00
C802   C     0.48819   0.68813   0.34318   0.00000  Uiso   1.00
H803   H     0.51687   0.70337   0.35550   0.00000  Uiso   1.00
H804   H     0.50375   0.99325   0.32448   0.00000  Uiso   1.00
H805   H     0.45788   0.67896   0.37236   0.00000  Uiso   1.00
O806   O     0.56483   0.88235   0.18958   0.00000  Uiso   1.00
C807   C     0.55776   0.92466   0.20126   0.00000  Uiso   1.00
H808   H     0.59435   0.93853   0.19512   0.00000  Uiso   1.00
H809   H     0.53879   0.92995   0.23742   0.00000  Uiso   1.00
C810   C     0.53100   0.94778   0.17141   0.00000  Uiso   1.00
H811   H     0.54754   0.94011   0.13565   0.00000  Uiso   1.00
H812   H     0.49237   0.93871   0.18002   0.00000  Uiso   1.00
C813   C     0.53291   0.99439   0.17770   0.00000  Uiso   1.00
H814   H     0.51510   0.66932   0.21316   0.00000  Uiso   1.00
H815   H     0.51352   0.67707   0.15559   0.00000  Uiso   1.00
H816   H     0.57111   0.67182   0.16882   0.00000  Uiso   1.00
C817   C     0.66672   0.75406   0.25024   0.00000  Uiso   1.00
C818   C     0.99985   0.91263   0.25037   0.00000  Uiso   1.00
C819   C     0.86203   0.82803   0.04853   0.00000  Uiso   1.00
C820   C     0.81048   0.86294   0.45564   0.00000  Uiso   1.00
C821   C     0.91035   0.82133   0.02616   0.00000  Uiso   1.00
C822   C     0.76258   0.87092   0.47832   0.00000  Uiso   1.00
C823   C     0.95609   0.68827   0.26503   0.00000  Uiso   1.00
C824   C     0.71060   0.97848   0.23733   0.00000  Uiso   1.00
C825   C     0.95602   0.97893   0.26553   0.00000  Uiso   1.00
C826   C     0.71073   0.68784   0.23730   0.00000  Uiso   1.00
C827   C     0.99985   0.95726   0.25101   0.00000  Uiso   1.00
C828   C     0.66677   0.70947   0.25082   0.00000  Uiso   1.00
C829   C     0.85018   0.80870   0.27917   0.00000  Uiso   1.00
C830   C     0.81666   0.85697   0.22020   0.00000  Uiso   1.00
C831   C     0.79962   0.80842   0.27965   0.00000  Uiso   1.00
C832   C     0.86606   0.85812   0.22078   0.00000  Uiso   1.00
C833   C     0.97280   0.83297   0.33616   0.00000  Uiso   1.00
C834   C     0.69392   0.83434   0.16388   0.00000  Uiso   1.00
C835   C     0.95799   0.83149   0.38550   0.00000  Uiso   1.00
C836   C     0.70935   0.84048   0.11499   0.00000  Uiso   1.00
C837   C     0.97541   0.81634   0.45703   0.00000  Uiso   1.00
C838   C     0.69618   0.87003   0.04682   0.00000  Uiso   1.00
C839   C     0.99113   0.82150   0.41007   0.00000  Uiso   1.00
C840   C     0.67838   0.85839   0.09185   0.00000  Uiso   1.00
C841   C     0.90946   0.83875   0.40785   0.00000  Uiso   1.00
C842   C     0.75788   0.83291   0.09256   0.00000  Uiso   1.00
C843   C     0.89294   0.83723   0.45491   0.00000  Uiso   1.00
C844   C     0.77732   0.84479   0.04754   0.00000  Uiso   1.00
C845   C     0.92643   0.82509   0.47945   0.00000  Uiso   1.00
C846   C     0.74529   0.86205   0.02408   0.00000  Uiso   1.00
C847   C     0.84372   0.84629   0.47799   0.00000  Uiso   1.00
C848   C     0.82744   0.83925   0.02512   0.00000  Uiso   1.00
Cu849  Cu    0.71355   0.83334   0.25000   0.00000  Uiso   1.00
Cu850  Cu    0.95311   0.83333   0.25000   0.00000  Uiso   1.00
H851   H     0.93512   0.81275   0.04592   0.00000  Uiso   1.00
H852   H     0.73888   0.88375   0.45944   0.00000  Uiso   1.00
H853   H     0.77968   0.81707   0.11110   0.00000  Uiso   1.00
H854   H     0.88492   0.84468   0.38746   0.00000  Uiso   1.00
H855   H     0.97412   0.86472   0.10903   0.00000  Uiso   1.00
H856   H     0.69557   0.81684   0.39254   0.00000  Uiso   1.00
H857   H     0.85330   0.82544   0.08461   0.00000  Uiso   1.00
H858   H     0.82055   0.87171   0.42069   0.00000  Uiso   1.00
H859   H     0.92190   0.70465   0.27620   0.00000  Uiso   1.00
H860   H     0.74483   0.96215   0.22622   0.00000  Uiso   1.00
H861   H     0.92187   0.96294   0.27758   0.00000  Uiso   1.00
H862   H     0.74504   0.70384   0.22612   0.00000  Uiso   1.00
H863   H     0.86444   0.78931   0.30122   0.00000  Uiso   1.00
H864   H     0.80437   0.87452   0.19549   0.00000  Uiso   1.00
N865   N     0.78403   0.83334   0.24999   0.00000  Uiso   1.00
N866   N     0.88264   0.83332   0.25001   0.00000  Uiso   1.00
O867   O     0.70625   0.77322   0.25000   0.00000  Uiso   1.00
O868   O     0.96042   0.89345   0.25000   0.00000  Uiso   1.00
O869   O     0.96039   0.77321   0.25001   0.00000  Uiso   1.00
O870   O     0.70628   0.89346   0.25000   0.00000  Uiso   1.00
O871   O     0.68519   0.83334   0.31492   0.00000  Uiso   1.00
O872   O     0.98148   0.83332   0.18509   0.00000  Uiso   1.00
O873   O     0.93933   0.83333   0.31492   0.00000  Uiso   1.00
O874   O     0.72733   0.83333   0.18508   0.00000  Uiso   1.00
O875   O     0.67404   0.80526   0.48225   0.00000  Uiso   1.00
C876   C     0.70400   0.77162   0.46307   0.00000  Uiso   1.00
H877   H     0.73572   0.78307   0.43653   0.00000  Uiso   1.00
H878   H     0.68372   0.74839   0.44870   0.00000  Uiso   1.00
C879   C     0.72301   0.75049   0.49945   0.00000  Uiso   1.00
H880   H     0.74626   0.77224   0.01187   0.00000  Uiso   1.00
H881   H     0.69194   0.74184   0.02814   0.00000  Uiso   1.00
C882   C     0.75264   0.71195   0.48153   0.00000  Uiso   1.00
H883   H     0.72980   0.68915   0.46994   0.00000  Uiso   1.00
H884   H     0.76616   0.69753   0.00868   0.00000  Uiso   1.00
H885   H     0.78423   0.72018   0.45312   0.00000  Uiso   1.00
O886   O     0.99798   0.88786   0.02488   0.00000  Uiso   1.00
C887   C     0.67045   0.93128   0.02312   0.00000  Uiso   1.00
H888   H     0.66695   0.94210   0.48986   0.00000  Uiso   1.00
H889   H     0.70680   0.94180   0.02561   0.00000  Uiso   1.00
C890   C     0.96371   0.95150   0.05983   0.00000  Uiso   1.00
H891   H     0.92778   0.94239   0.05558   0.00000  Uiso   1.00
H892   H     0.96646   0.94071   0.09332   0.00000  Uiso   1.00
C893   C     0.96773   0.99842   0.05780   0.00000  Uiso   1.00
H894   H     0.66896   0.67470   0.06462   0.00000  Uiso   1.00
H895   H     0.93710   0.67891   0.08362   0.00000  Uiso   1.00
H896   H     0.96638   0.67682   0.02422   0.00000  Uiso   1.00
O897   O     0.76433   0.78376   0.30808   0.00000  Uiso   1.00
C898   C     0.78064   0.75644   0.33698   0.00000  Uiso   1.00
H899   H     0.74806   0.74673   0.36356   0.00000  Uiso   1.00
H900   H     0.80409   0.77176   0.35549   0.00000  Uiso   1.00
C901   C     0.80321   0.71724   0.31214   0.00000  Uiso   1.00
H902   H     0.77539   0.70104   0.29947   0.00000  Uiso   1.00
H903   H     0.83384   0.72505   0.28275   0.00000  Uiso   1.00
C904   C     0.82152   0.68813   0.34318   0.00000  Uiso   1.00
H905   H     0.85020   0.70337   0.35550   0.00000  Uiso   1.00
H906   H     0.83709   0.99325   0.32448   0.00000  Uiso   1.00
H907   H     0.79121   0.67896   0.37236   0.00000  Uiso   1.00
O908   O     0.89816   0.88235   0.18958   0.00000  Uiso   1.00
C909   C     0.89109   0.92466   0.20126   0.00000  Uiso   1.00
H910   H     0.92768   0.93853   0.19512   0.00000  Uiso   1.00
H911   H     0.87213   0.92995   0.23742   0.00000  Uiso   1.00
C912   C     0.86433   0.94778   0.17141   0.00000  Uiso   1.00
H913   H     0.88087   0.94011   0.13565   0.00000  Uiso   1.00
H914   H     0.82571   0.93871   0.18002   0.00000  Uiso   1.00
C915   C     0.86624   0.99439   0.17770   0.00000  Uiso   1.00
H916   H     0.84844   0.66932   0.21316   0.00000  Uiso   1.00
H917   H     0.84685   0.67707   0.15559   0.00000  Uiso   1.00
H918   H     0.90445   0.67182   0.16882   0.00000  Uiso   1.00
C919   C     0.00005   0.08739   0.75024   0.00000  Uiso   1.00
C920   C     0.33318   0.24596   0.75037   0.00000  Uiso   1.00
C921   C     0.19536   0.16137   0.54853   0.00000  Uiso   1.00
C922   C     0.14382   0.19627   0.95564   0.00000  Uiso   1.00
C923   C     0.24369   0.15466   0.52616   0.00000  Uiso   1.00
C924   C     0.09591   0.20425   0.97832   0.00000  Uiso   1.00
C925   C     0.28942   0.02161   0.76503   0.00000  Uiso   1.00
C926   C     0.04393   0.31182   0.73733   0.00000  Uiso   1.00
C927   C     0.28936   0.31226   0.76553   0.00000  Uiso   1.00
C928   C     0.04407   0.02117   0.73730   0.00000  Uiso   1.00
C929   C     0.33318   0.29060   0.75101   0.00000  Uiso   1.00
C930   C     0.00010   0.04280   0.75082   0.00000  Uiso   1.00
C931   C     0.18351   0.14204   0.77917   0.00000  Uiso   1.00
C932   C     0.15000   0.19030   0.72020   0.00000  Uiso   1.00
C933   C     0.13296   0.14175   0.77965   0.00000  Uiso   1.00
C934   C     0.19939   0.19145   0.72078   0.00000  Uiso   1.00
C935   C     0.30614   0.16630   0.83616   0.00000  Uiso   1.00
C936   C     0.02725   0.16767   0.66388   0.00000  Uiso   1.00
C937   C     0.29132   0.16482   0.88550   0.00000  Uiso   1.00
C938   C     0.04269   0.17382   0.61499   0.00000  Uiso   1.00
C939   C     0.30874   0.14967   0.95703   0.00000  Uiso   1.00
C940   C     0.02952   0.20336   0.54682   0.00000  Uiso   1.00
C941   C     0.32447   0.15483   0.91007   0.00000  Uiso   1.00
C942   C     0.01171   0.19172   0.59185   0.00000  Uiso   1.00
C943   C     0.24279   0.17208   0.90785   0.00000  Uiso   1.00
C944   C     0.09122   0.16625   0.59256   0.00000  Uiso   1.00
C945   C     0.22628   0.17057   0.95491   0.00000  Uiso   1.00
C946   C     0.11065   0.17812   0.54754   0.00000  Uiso   1.00
C947   C     0.25976   0.15843   0.97945   0.00000  Uiso   1.00
C948   C     0.07862   0.19538   0.52408   0.00000  Uiso   1.00
C949   C     0.17705   0.17962   0.97799   0.00000  Uiso   1.00
C950   C     0.16078   0.17258   0.52512   0.00000  Uiso   1.00
Cu951  Cu    0.04689   0.16667   0.75000   0.00000  Uiso   1.00
Cu952  Cu    0.28645   0.16666   0.75000   0.00000  Uiso   1.00
H953   H     0.26845   0.14608   0.54592   0.00000  Uiso   1.00
H954   H     0.07221   0.21708   0.95944   0.00000  Uiso   1.00
H955   H     0.11302   0.15040   0.61110   0.00000  Uiso   1.00
H956   H     0.21826   0.17801   0.88746   0.00000  Uiso   1.00
H957   H     0.30746   0.19805   0.60903   0.00000  Uiso   1.00
H958   H     0.02890   0.15017   0.89254   0.00000  Uiso   1.00
H959   H     0.18663   0.15878   0.58461   0.00000  Uiso   1.00
H960   H     0.15388   0.20505   0.92069   0.00000  Uiso   1.00
H961   H     0.25523   0.03799   0.77620   0.00000  Uiso   1.00
H962   H     0.07816   0.29549   0.72622   0.00000  Uiso   1.00
H963   H     0.25521   0.29627   0.77758   0.00000  Uiso   1.00
H964   H     0.07838   0.03718   0.72612   0.00000  Uiso   1.00
H965   H     0.19777   0.12265   0.80122   0.00000  Uiso   1.00
H966   H     0.13771   0.20786   0.69549   0.00000  Uiso   1.00
N967   N     0.11736   0.16668   0.74999   0.00000  Uiso   1.00
N968   N     0.21597   0.16666   0.75001   0.00000  Uiso   1.00
O969   O     0.03958   0.10655   0.75000   0.00000  Uiso   1.00
O970   O     0.29375   0.22678   0.75000   0.00000  Uiso   1.00
O971   O     0.29372   0.10654   0.75001   0.00000  Uiso   1.00
O972   O     0.03961   0.22679   0.75000   0.00000  Uiso   1.00
O973   O     0.01852   0.16668   0.81492   0.00000  Uiso   1.00
O974   O     0.31481   0.16666   0.68509   0.00000  Uiso   1.00
O975   O     0.27267   0.16667   0.81492   0.00000  Uiso   1.00
O976   O     0.06067   0.16667   0.68508   0.00000  Uiso   1.00
O977   O     0.00738   0.13859   0.98225   0.00000  Uiso   1.00
C978   C     0.03734   0.10495   0.96307   0.00000  Uiso   1.00
H979   H     0.06905   0.11641   0.93653   0.00000  Uiso   1.00
H980   H     0.01706   0.08173   0.94870   0.00000  Uiso   1.00
C981   C     0.05634   0.08382   0.99945   0.00000  Uiso   1.00
H982   H     0.07959   0.10558   0.51187   0.00000  Uiso   1.00
H983   H     0.02527   0.07517   0.52814   0.00000  Uiso   1.00
C984   C     0.08597   0.04528   0.98153   0.00000  Uiso   1.00
H985   H     0.06313   0.02248   0.96994   0.00000  Uiso   1.00
H986   H     0.09950   0.03086   0.50868   0.00000  Uiso   1.00
H987   H     0.11757   0.05351   0.95312   0.00000  Uiso   1.00
O988   O     0.33131   0.22119   0.52488   0.00000  Uiso   1.00
C989   C     0.00378   0.26461   0.52312   0.00000  Uiso   1.00
H990   H     0.00028   0.27544   0.98986   0.00000  Uiso   1.00
H991   H     0.04014   0.27514   0.52561   0.00000  Uiso   1.00
C992   C     0.29704   0.28484   0.55983   0.00000  Uiso   1.00
H993   H     0.26111   0.27573   0.55558   0.00000  Uiso   1.00
H994   H     0.29980   0.27404   0.59332   0.00000  Uiso   1.00
C995   C     0.30107   0.33176   0.55780   0.00000  Uiso   1.00
H996   H     0.00229   0.00804   0.56462   0.00000  Uiso   1.00
H997   H     0.27043   0.01224   0.58362   0.00000  Uiso   1.00
H998   H     0.29971   0.01015   0.52422   0.00000  Uiso   1.00
O999   O     0.09767   0.11709   0.80808   0.00000  Uiso   1.00
C1000  C     0.11397   0.08978   0.83698   0.00000  Uiso   1.00
H1001  H     0.08139   0.08007   0.86356   0.00000  Uiso   1.00
H1002  H     0.13743   0.10509   0.85549   0.00000  Uiso   1.00
C1003  C     0.13654   0.05057   0.81214   0.00000  Uiso   1.00
H1004  H     0.10872   0.03438   0.79947   0.00000  Uiso   1.00
H1005  H     0.16717   0.05838   0.78275   0.00000  Uiso   1.00
C1006  C     0.15485   0.02146   0.84318   0.00000  Uiso   1.00
H1007  H     0.18353   0.03670   0.85550   0.00000  Uiso   1.00
H1008  H     0.17042   0.32658   0.82448   0.00000  Uiso   1.00
H1009  H     0.12455   0.01230   0.87236   0.00000  Uiso   1.00
O1010  O     0.23150   0.21568   0.68958   0.00000  Uiso   1.00
C1011  C     0.22443   0.25799   0.70126   0.00000  Uiso   1.00
H1012  H     0.26102   0.27186   0.69512   0.00000  Uiso   1.00
H1013  H     0.20546   0.26328   0.73742   0.00000  Uiso   1.00
C1014  C     0.19767   0.28111   0.67141   0.00000  Uiso   1.00
H1015  H     0.21421   0.27344   0.63565   0.00000  Uiso   1.00
H1016  H     0.15904   0.27204   0.68002   0.00000  Uiso   1.00
C1017  C     0.19958   0.32772   0.67770   0.00000  Uiso   1.00
H1018  H     0.18177   0.00265   0.71316   0.00000  Uiso   1.00
H1019  H     0.18019   0.01040   0.65559   0.00000  Uiso   1.00
H1020  H     0.23778   0.00515   0.66882   0.00000  Uiso   1.00
C1021  C     0.33338   0.08739   0.75024   0.00000  Uiso   1.00
C1022  C     0.66651   0.24596   0.75037   0.00000  Uiso   1.00
C1023  C     0.52869   0.16137   0.54853   0.00000  Uiso   1.00
C1024  C     0.47715   0.19627   0.95564   0.00000  Uiso   1.00
C1025  C     0.57702   0.15466   0.52616   0.00000  Uiso   1.00
C1026  C     0.42925   0.20425   0.97832   0.00000  Uiso   1.00
C1027  C     0.62276   0.02161   0.76503   0.00000  Uiso   1.00
C1028  C     0.37726   0.31182   0.73733   0.00000  Uiso   1.00
C1029  C     0.62269   0.31226   0.76553   0.00000  Uiso   1.00
C1030  C     0.37740   0.02117   0.73730   0.00000  Uiso   1.00
C1031  C     0.66651   0.29060   0.75101   0.00000  Uiso   1.00
C1032  C     0.33343   0.04280   0.75082   0.00000  Uiso   1.00
C1033  C     0.51685   0.14204   0.77917   0.00000  Uiso   1.00
C1034  C     0.48333   0.19030   0.72020   0.00000  Uiso   1.00
C1035  C     0.46629   0.14175   0.77965   0.00000  Uiso   1.00
C1036  C     0.53272   0.19145   0.72078   0.00000  Uiso   1.00
C1037  C     0.63947   0.16630   0.83616   0.00000  Uiso   1.00
C1038  C     0.36058   0.16767   0.66388   0.00000  Uiso   1.00
C1039  C     0.62466   0.16482   0.88550   0.00000  Uiso   1.00
C1040  C     0.37602   0.17382   0.61499   0.00000  Uiso   1.00
C1041  C     0.64208   0.14967   0.95703   0.00000  Uiso   1.00
C1042  C     0.36285   0.20336   0.54682   0.00000  Uiso   1.00
C1043  C     0.65780   0.15483   0.91007   0.00000  Uiso   1.00
C1044  C     0.34504   0.19172   0.59185   0.00000  Uiso   1.00
C1045  C     0.57613   0.17208   0.90785   0.00000  Uiso   1.00
C1046  C     0.42455   0.16625   0.59256   0.00000  Uiso   1.00
C1047  C     0.55961   0.17057   0.95491   0.00000  Uiso   1.00
C1048  C     0.44398   0.17812   0.54754   0.00000  Uiso   1.00
C1049  C     0.59309   0.15843   0.97945   0.00000  Uiso   1.00
C1050  C     0.41195   0.19538   0.52408   0.00000  Uiso   1.00
C1051  C     0.51039   0.17962   0.97799   0.00000  Uiso   1.00
C1052  C     0.49411   0.17258   0.52512   0.00000  Uiso   1.00
Cu1053 Cu    0.38022   0.16667   0.75000   0.00000  Uiso   1.00
Cu1054 Cu    0.61978   0.16666   0.75000   0.00000  Uiso   1.00
H1055  H     0.60179   0.14608   0.54592   0.00000  Uiso   1.00
H1056  H     0.40554   0.21708   0.95944   0.00000  Uiso   1.00
H1057  H     0.44635   0.15040   0.61110   0.00000  Uiso   1.00
H1058  H     0.55159   0.17801   0.88746   0.00000  Uiso   1.00
H1059  H     0.64079   0.19805   0.60903   0.00000  Uiso   1.00
H1060  H     0.36224   0.15017   0.89254   0.00000  Uiso   1.00
H1061  H     0.51996   0.15878   0.58461   0.00000  Uiso   1.00
H1062  H     0.48722   0.20505   0.92069   0.00000  Uiso   1.00
H1063  H     0.58857   0.03799   0.77620   0.00000  Uiso   1.00
H1064  H     0.41150   0.29549   0.72622   0.00000  Uiso   1.00
H1065  H     0.58854   0.29627   0.77758   0.00000  Uiso   1.00
H1066  H     0.41171   0.03718   0.72612   0.00000  Uiso   1.00
H1067  H     0.53111   0.12265   0.80122   0.00000  Uiso   1.00
H1068  H     0.47104   0.20786   0.69549   0.00000  Uiso   1.00
N1069  N     0.45069   0.16668   0.74999   0.00000  Uiso   1.00
N1070  N     0.54931   0.16666   0.75001   0.00000  Uiso   1.00
O1071  O     0.37291   0.10655   0.75000   0.00000  Uiso   1.00
O1072  O     0.62709   0.22678   0.75000   0.00000  Uiso   1.00
O1073  O     0.62706   0.10654   0.75001   0.00000  Uiso   1.00
O1074  O     0.37294   0.22679   0.75000   0.00000  Uiso   1.00
O1075  O     0.35186   0.16668   0.81492   0.00000  Uiso   1.00
O1076  O     0.64814   0.16666   0.68509   0.00000  Uiso   1.00
O1077  O     0.60600   0.16667   0.81492   0.00000  Uiso   1.00
O1078  O     0.39400   0.16667   0.68508   0.00000  Uiso   1.00
O1079  O     0.34071   0.13859   0.98225   0.00000  Uiso   1.00
C1080  C     0.37067   0.10495   0.96307   0.00000  Uiso   1.00
H1081  H     0.40239   0.11641   0.93653   0.00000  Uiso   1.00
H1082  H     0.35039   0.08173   0.94870   0.00000  Uiso   1.00
C1083  C     0.38967   0.08382   0.99945   0.00000  Uiso   1.00
H1084  H     0.41292   0.10558   0.51187   0.00000  Uiso   1.00
H1085  H     0.35861   0.07517   0.52814   0.00000  Uiso   1.00
C1086  C     0.41930   0.04528   0.98153   0.00000  Uiso   1.00
H1087  H     0.39647   0.02248   0.96994   0.00000  Uiso   1.00
H1088  H     0.43283   0.03086   0.50868   0.00000  Uiso   1.00
H1089  H     0.45090   0.05351   0.95312   0.00000  Uiso   1.00
O1090  O     0.66465   0.22119   0.52488   0.00000  Uiso   1.00
C1091  C     0.33712   0.26461   0.52312   0.00000  Uiso   1.00
H1092  H     0.33362   0.27544   0.98986   0.00000  Uiso   1.00
H1093  H     0.37347   0.27514   0.52561   0.00000  Uiso   1.00
C1094  C     0.63038   0.28484   0.55983   0.00000  Uiso   1.00
H1095  H     0.59444   0.27573   0.55558   0.00000  Uiso   1.00
H1096  H     0.63313   0.27404   0.59332   0.00000  Uiso   1.00
C1097  C     0.63440   0.33176   0.55780   0.00000  Uiso   1.00
H1098  H     0.33563   0.00804   0.56462   0.00000  Uiso   1.00
H1099  H     0.60377   0.01224   0.58362   0.00000  Uiso   1.00
H1100  H     0.63304   0.01015   0.52422   0.00000  Uiso   1.00
O1101  O     0.43100   0.11709   0.80808   0.00000  Uiso   1.00
C1102  C     0.44730   0.08978   0.83698   0.00000  Uiso   1.00
H1103  H     0.41472   0.08007   0.86356   0.00000  Uiso   1.00
H1104  H     0.47076   0.10509   0.85549   0.00000  Uiso   1.00
C1105  C     0.46987   0.05057   0.81214   0.00000  Uiso   1.00
H1106  H     0.44205   0.03438   0.79947   0.00000  Uiso   1.00
H1107  H     0.50050   0.05838   0.78275   0.00000  Uiso   1.00
C1108  C     0.48819   0.02146   0.84318   0.00000  Uiso   1.00
H1109  H     0.51687   0.03670   0.85550   0.00000  Uiso   1.00
H1110  H     0.50375   0.32658   0.82448   0.00000  Uiso   1.00
H1111  H     0.45788   0.01230   0.87236   0.00000  Uiso   1.00
O1112  O     0.56483   0.21568   0.68958   0.00000  Uiso   1.00
C1113  C     0.55776   0.25799   0.70126   0.00000  Uiso   1.00
H1114  H     0.59435   0.27186   0.69512   0.00000  Uiso   1.00
H1115  H     0.53879   0.26328   0.73742   0.00000  Uiso   1.00
C1116  C     0.53100   0.28111   0.67141   0.00000  Uiso   1.00
H1117  H     0.54754   0.27344   0.63565   0.00000  Uiso   1.00
H1118  H     0.49237   0.27204   0.68002   0.00000  Uiso   1.00
C1119  C     0.53291   0.32772   0.67770   0.00000  Uiso   1.00
H1120  H     0.51510   0.00265   0.71316   0.00000  Uiso   1.00
H1121  H     0.51352   0.01040   0.65559   0.00000  Uiso   1.00
H1122  H     0.57111   0.00515   0.66882   0.00000  Uiso   1.00
C1123  C     0.66672   0.08739   0.75024   0.00000  Uiso   1.00
C1124  C     0.99985   0.24596   0.75037   0.00000  Uiso   1.00
C1125  C     0.86203   0.16137   0.54853   0.00000  Uiso   1.00
C1126  C     0.81048   0.19627   0.95564   0.00000  Uiso   1.00
C1127  C     0.91035   0.15466   0.52616   0.00000  Uiso   1.00
C1128  C     0.76258   0.20425   0.97832   0.00000  Uiso   1.00
C1129  C     0.95609   0.02161   0.76503   0.00000  Uiso   1.00
C1130  C     0.71060   0.31182   0.73733   0.00000  Uiso   1.00
C1131  C     0.95602   0.31226   0.76553   0.00000  Uiso   1.00
C1132  C     0.71073   0.02117   0.73730   0.00000  Uiso   1.00
C1133  C     0.99985   0.29060   0.75101   0.00000  Uiso   1.00
C1134  C     0.66677   0.04280   0.75082   0.00000  Uiso   1.00
C1135  C     0.85018   0.14204   0.77917   0.00000  Uiso   1.00
C1136  C     0.81666   0.19030   0.72020   0.00000  Uiso   1.00
C1137  C     0.79962   0.14175   0.77965   0.00000  Uiso   1.00
C1138  C     0.86606   0.19145   0.72078   0.00000  Uiso   1.00
C1139  C     0.97280   0.16630   0.83616   0.00000  Uiso   1.00
C1140  C     0.69392   0.16767   0.66388   0.00000  Uiso   1.00
C1141  C     0.95799   0.16482   0.88550   0.00000  Uiso   1.00
C1142  C     0.70935   0.17382   0.61499   0.00000  Uiso   1.00
C1143  C     0.97541   0.14967   0.95703   0.00000  Uiso   1.00
C1144  C     0.69618   0.20336   0.54682   0.00000  Uiso   1.00
C1145  C     0.99113   0.15483   0.91007   0.00000  Uiso   1.00
C1146  C     0.67838   0.19172   0.59185   0.00000  Uiso   1.00
C1147  C     0.90946   0.17208   0.90785   0.00000  Uiso   1.00
C1148  C     0.75788   0.16625   0.59256   0.00000  Uiso   1.00
C1149  C     0.89294   0.17057   0.95491   0.00000  Uiso   1.00
C1150  C     0.77732   0.17812   0.54754   0.00000  Uiso   1.00
C1151  C     0.92643   0.15843   0.97945   0.00000  Uiso   1.00
C1152  C     0.74529   0.19538   0.52408   0.00000  Uiso   1.00
C1153  C     0.84372   0.17962   0.97799   0.00000  Uiso   1.00
C1154  C     0.82744   0.17258   0.52512   0.00000  Uiso   1.00
Cu1155 Cu    0.71355   0.16667   0.75000   0.00000  Uiso   1.00
Cu1156 Cu    0.95311   0.16666   0.75000   0.00000  Uiso   1.00
H1157  H     0.93512   0.14608   0.54592   0.00000  Uiso   1.00
H1158  H     0.73888   0.21708   0.95944   0.00000  Uiso   1.00
H1159  H     0.77968   0.15040   0.61110   0.00000  Uiso   1.00
H1160  H     0.88492   0.17801   0.88746   0.00000  Uiso   1.00
H1161  H     0.97412   0.19805   0.60903   0.00000  Uiso   1.00
H1162  H     0.69557   0.15017   0.89254   0.00000  Uiso   1.00
H1163  H     0.85330   0.15878   0.58461   0.00000  Uiso   1.00
H1164  H     0.82055   0.20505   0.92069   0.00000  Uiso   1.00
H1165  H     0.92190   0.03799   0.77620   0.00000  Uiso   1.00
H1166  H     0.74483   0.29549   0.72622   0.00000  Uiso   1.00
H1167  H     0.92187   0.29627   0.77758   0.00000  Uiso   1.00
H1168  H     0.74504   0.03718   0.72612   0.00000  Uiso   1.00
H1169  H     0.86444   0.12265   0.80122   0.00000  Uiso   1.00
H1170  H     0.80437   0.20786   0.69549   0.00000  Uiso   1.00
N1171  N     0.78403   0.16668   0.74999   0.00000  Uiso   1.00
N1172  N     0.88264   0.16666   0.75001   0.00000  Uiso   1.00
O1173  O     0.70625   0.10655   0.75000   0.00000  Uiso   1.00
O1174  O     0.96042   0.22678   0.75000   0.00000  Uiso   1.00
O1175  O     0.96039   0.10654   0.75001   0.00000  Uiso   1.00
O1176  O     0.70628   0.22679   0.75000   0.00000  Uiso   1.00
O1177  O     0.68519   0.16668   0.81492   0.00000  Uiso   1.00
O1178  O     0.98148   0.16666   0.68509   0.00000  Uiso   1.00
O1179  O     0.93933   0.16667   0.81492   0.00000  Uiso   1.00
O1180  O     0.72733   0.16667   0.68508   0.00000  Uiso   1.00
O1181  O     0.67404   0.13859   0.98225   0.00000  Uiso   1.00
C1182  C     0.70400   0.10495   0.96307   0.00000  Uiso   1.00
H1183  H     0.73572   0.11641   0.93653   0.00000  Uiso   1.00
H1184  H     0.68372   0.08173   0.94870   0.00000  Uiso   1.00
C1185  C     0.72301   0.08382   0.99945   0.00000  Uiso   1.00
H1186  H     0.74626   0.10558   0.51187   0.00000  Uiso   1.00
H1187  H     0.69194   0.07517   0.52814   0.00000  Uiso   1.00
C1188  C     0.75264   0.04528   0.98153   0.00000  Uiso   1.00
H1189  H     0.72980   0.02248   0.96994   0.00000  Uiso   1.00
H1190  H     0.76616   0.03086   0.50868   0.00000  Uiso   1.00
H1191  H     0.78423   0.05351   0.95312   0.00000  Uiso   1.00
O1192  O     0.99798   0.22119   0.52488   0.00000  Uiso   1.00
C1193  C     0.67045   0.26461   0.52312   0.00000  Uiso   1.00
H1194  H     0.66695   0.27544   0.98986   0.00000  Uiso   1.00
H1195  H     0.70680   0.27514   0.52561   0.00000  Uiso   1.00
C1196  C     0.96371   0.28484   0.55983   0.00000  Uiso   1.00
H1197  H     0.92778   0.27573   0.55558   0.00000  Uiso   1.00
H1198  H     0.96646   0.27404   0.59332   0.00000  Uiso   1.00
C1199  C     0.96773   0.33176   0.55780   0.00000  Uiso   1.00
H1200  H     0.66896   0.00804   0.56462   0.00000  Uiso   1.00
H1201  H     0.93710   0.01224   0.58362   0.00000  Uiso   1.00
H1202  H     0.96638   0.01015   0.52422   0.00000  Uiso   1.00
O1203  O     0.76433   0.11709   0.80808   0.00000  Uiso   1.00
C1204  C     0.78064   0.08978   0.83698   0.00000  Uiso   1.00
H1205  H     0.74806   0.08007   0.86356   0.00000  Uiso   1.00
H1206  H     0.80409   0.10509   0.85549   0.00000  Uiso   1.00
C1207  C     0.80321   0.05057   0.81214   0.00000  Uiso   1.00
H1208  H     0.77539   0.03438   0.79947   0.00000  Uiso   1.00
H1209  H     0.83384   0.05838   0.78275   0.00000  Uiso   1.00
C1210  C     0.82152   0.02146   0.84318   0.00000  Uiso   1.00
H1211  H     0.85020   0.03670   0.85550   0.00000  Uiso   1.00
H1212  H     0.83709   0.32658   0.82448   0.00000  Uiso   1.00
H1213  H     0.79121   0.01230   0.87236   0.00000  Uiso   1.00
O1214  O     0.89816   0.21568   0.68958   0.00000  Uiso   1.00
C1215  C     0.89109   0.25799   0.70126   0.00000  Uiso   1.00
H1216  H     0.92768   0.27186   0.69512   0.00000  Uiso   1.00
H1217  H     0.87213   0.26328   0.73742   0.00000  Uiso   1.00
C1218  C     0.86433   0.28111   0.67141   0.00000  Uiso   1.00
H1219  H     0.88087   0.27344   0.63565   0.00000  Uiso   1.00
H1220  H     0.82571   0.27204   0.68002   0.00000  Uiso   1.00
C1221  C     0.86624   0.32772   0.67770   0.00000  Uiso   1.00
H1222  H     0.84844   0.00265   0.71316   0.00000  Uiso   1.00
H1223  H     0.84685   0.01040   0.65559   0.00000  Uiso   1.00
H1224  H     0.90445   0.00515   0.66882   0.00000  Uiso   1.00
C1225  C     0.00005   0.42072   0.75024   0.00000  Uiso   1.00
C1226  C     0.33318   0.57930   0.75037   0.00000  Uiso   1.00
C1227  C     0.19536   0.49470   0.54853   0.00000  Uiso   1.00
C1228  C     0.14382   0.52961   0.95564   0.00000  Uiso   1.00
C1229  C     0.24369   0.48799   0.52616   0.00000  Uiso   1.00
C1230  C     0.09591   0.53759   0.97832   0.00000  Uiso   1.00
C1231  C     0.28942   0.35494   0.76503   0.00000  Uiso   1.00
C1232  C     0.04393   0.64515   0.73733   0.00000  Uiso   1.00
C1233  C     0.28936   0.64559   0.76553   0.00000  Uiso   1.00
C1234  C     0.04407   0.35450   0.73730   0.00000  Uiso   1.00
C1235  C     0.33318   0.62393   0.75101   0.00000  Uiso   1.00
C1236  C     0.00010   0.37613   0.75082   0.00000  Uiso   1.00
C1237  C     0.18351   0.47537   0.77917   0.00000  Uiso   1.00
C1238  C     0.15000   0.52364   0.72020   0.00000  Uiso   1.00
C1239  C     0.13296   0.47508   0.77965   0.00000  Uiso   1.00
C1240  C     0.19939   0.52478   0.72078   0.00000  Uiso   1.00
C1241  C     0.30614   0.49963   0.83616   0.00000  Uiso   1.00
C1242  C     0.02725   0.50101   0.66388   0.00000  Uiso   1.00
C1243  C     0.29132   0.49815   0.88550   0.00000  Uiso   1.00
C1244  C     0.04269   0.50715   0.61499   0.00000  Uiso   1.00
C1245  C     0.30874   0.48301   0.95703   0.00000  Uiso   1.00
C1246  C     0.02952   0.53669   0.54682   0.00000  Uiso   1.00
C1247  C     0.32447   0.48817   0.91007   0.00000  Uiso   1.00
C1248  C     0.01171   0.52505   0.59185   0.00000  Uiso   1.00
C1249  C     0.24279   0.50541   0.90785   0.00000  Uiso   1.00
C1250  C     0.09122   0.49958   0.59256   0.00000  Uiso   1.00
C1251  C     0.22628   0.50390   0.95491   0.00000  Uiso   1.00
C1252  C     0.11065   0.51145   0.54754   0.00000  Uiso   1.00
C1253  C     0.25976   0.49176   0.97945   0.00000  Uiso   1.00
C1254  C     0.07862   0.52871   0.52408   0.00000  Uiso   1.00
C1255  C     0.17705   0.51295   0.97799   0.00000  Uiso   1.00
C1256  C     0.16078   0.50592   0.52512   0.00000  Uiso   1.00
Cu1257 Cu    0.04689   0.50001   0.75000   0.00000  Uiso   1.00
Cu1258 Cu    0.28645   0.49999   0.75000   0.00000  Uiso   1.00
H1259  H     0.26845   0.47941   0.54592   0.00000  Uiso   1.00
H1260  H     0.07221   0.55042   0.95944   0.00000  Uiso   1.00
H1261  H     0.11302   0.48373   0.61110   0.00000  Uiso   1.00
H1262  H     0.21826   0.51135   0.88746   0.00000  Uiso   1.00
H1263  H     0.30746   0.53138   0.60903   0.00000  Uiso   1.00
H1264  H     0.02890   0.48351   0.89254   0.00000  Uiso   1.00
H1265  H     0.18663   0.49211   0.58461   0.00000  Uiso   1.00
H1266  H     0.15388   0.53838   0.92069   0.00000  Uiso   1.00
H1267  H     0.25523   0.37132   0.77620   0.00000  Uiso   1.00
H1268  H     0.07816   0.62882   0.72622   0.00000  Uiso   1.00
H1269  H     0.25521   0.62961   0.77758   0.00000  Uiso   1.00
H1270  H     0.07838   0.37051   0.72612   0.00000  Uiso   1.00
H1271  H     0.19777   0.45598   0.80122   0.00000  Uiso   1.00
H1272  H     0.13771   0.54119   0.69549   0.00000  Uiso   1.00
N1273  N     0.11736   0.50001   0.74999   0.00000  Uiso   1.00
N1274  N     0.21597   0.49999   0.75001   0.00000  Uiso   1.00
O1275  O     0.03958   0.43989   0.75000   0.00000  Uiso   1.00
O1276  O     0.29375   0.56011   0.75000   0.00000  Uiso   1.00
O1277  O     0.29372   0.43988   0.75001   0.00000  Uiso   1.00
O1278  O     0.03961   0.56012   0.75000   0.00000  Uiso   1.00
O1279  O     0.01852   0.50001   0.81492   0.00000  Uiso   1.00
O1280  O     0.31481   0.49999   0.68509   0.00000  Uiso   1.00
O1281  O     0.27267   0.50000   0.81492   0.00000  Uiso   1.00
O1282  O     0.06067   0.50000   0.68508   0.00000  Uiso   1.00
O1283  O     0.00738   0.47193   0.98225   0.00000  Uiso   1.00
C1284  C     0.03734   0.43829   0.96307   0.00000  Uiso   1.00
H1285  H     0.06905   0.44974   0.93653   0.00000  Uiso   1.00
H1286  H     0.01706   0.41506   0.94870   0.00000  Uiso   1.00
C1287  C     0.05634   0.41716   0.99945   0.00000  Uiso   1.00
H1288  H     0.07959   0.43891   0.51187   0.00000  Uiso   1.00
H1289  H     0.02527   0.40850   0.52814   0.00000  Uiso   1.00
C1290  C     0.08597   0.37861   0.98153   0.00000  Uiso   1.00
H1291  H     0.06313   0.35582   0.96994   0.00000  Uiso   1.00
H1292  H     0.09950   0.36420   0.50868   0.00000  Uiso   1.00
H1293  H     0.11757   0.38685   0.95312   0.00000  Uiso   1.00
O1294  O     0.33131   0.55453   0.52488   0.00000  Uiso   1.00
C1295  C     0.00378   0.59795   0.52312   0.00000  Uiso   1.00
H1296  H     0.00028   0.60877   0.98986   0.00000  Uiso   1.00
H1297  H     0.04014   0.60847   0.52561   0.00000  Uiso   1.00
C1298  C     0.29704   0.61817   0.55983   0.00000  Uiso   1.00
H1299  H     0.26111   0.60906   0.55558   0.00000  Uiso   1.00
H1300  H     0.29980   0.60737   0.59332   0.00000  Uiso   1.00
C1301  C     0.30107   0.66509   0.55780   0.00000  Uiso   1.00
H1302  H     0.00229   0.34137   0.56462   0.00000  Uiso   1.00
H1303  H     0.27043   0.34557   0.58362   0.00000  Uiso   1.00
H1304  H     0.29971   0.34348   0.52422   0.00000  Uiso   1.00
O1305  O     0.09767   0.45042   0.80808   0.00000  Uiso   1.00
C1306  C     0.11397   0.42311   0.83698   0.00000  Uiso   1.00
H1307  H     0.08139   0.41340   0.86356   0.00000  Uiso   1.00
H1308  H     0.13743   0.43842   0.85549   0.00000  Uiso   1.00
C1309  C     0.13654   0.38390   0.81214   0.00000  Uiso   1.00
H1310  H     0.10872   0.36771   0.79947   0.00000  Uiso   1.00
H1311  H     0.16717   0.39172   0.78275   0.00000  Uiso   1.00
C1312  C     0.15485   0.35479   0.84318   0.00000  Uiso   1.00
H1313  H     0.18353   0.37003   0.85550   0.00000  Uiso   1.00
H1314  H     0.17042   0.65991   0.82448   0.00000  Uiso   1.00
H1315  H     0.12455   0.34563   0.87236   0.00000  Uiso   1.00
O1316  O     0.23150   0.54901   0.68958   0.00000  Uiso   1.00
C1317  C     0.22443   0.59132   0.70126   0.00000  Uiso   1.00
H1318  H     0.26102   0.60519   0.69512   0.00000  Uiso   1.00
H1319  H     0.20546   0.59662   0.73742   0.00000  Uiso   1.00
C1320  C     0.19767   0.61444   0.67141   0.00000  Uiso   1.00
H1321  H     0.21421   0.60678   0.63565   0.00000  Uiso   1.00
H1322  H     0.15904   0.60538   0.68002   0.00000  Uiso   1.00
C1323  C     0.19958   0.66105   0.67770   0.00000  Uiso   1.00
H1324  H     0.18177   0.33598   0.71316   0.00000  Uiso   1.00
H1325  H     0.18019   0.34373   0.65559   0.00000  Uiso   1.00
H1326  H     0.23778   0.33849   0.66882   0.00000  Uiso   1.00
C1327  C     0.33338   0.42072   0.75024   0.00000  Uiso   1.00
C1328  C     0.66651   0.57930   0.75037   0.00000  Uiso   1.00
C1329  C     0.52869   0.49470   0.54853   0.00000  Uiso   1.00
C1330  C     0.47715   0.52961   0.95564   0.00000  Uiso   1.00
C1331  C     0.57702   0.48799   0.52616   0.00000  Uiso   1.00
C1332  C     0.42925   0.53759   0.97832   0.00000  Uiso   1.00
C1333  C     0.62276   0.35494   0.76503   0.00000  Uiso   1.00
C1334  C     0.37726   0.64515   0.73733   0.00000  Uiso   1.00
C1335  C     0.62269   0.64559   0.76553   0.00000  Uiso   1.00
C1336  C     0.37740   0.35450   0.73730   0.00000  Uiso   1.00
C1337  C     0.66651   0.62393   0.75101   0.00000  Uiso   1.00
C1338  C     0.33343   0.37613   0.75082   0.00000  Uiso   1.00
C1339  C     0.51685   0.47537   0.77917   0.00000  Uiso   1.00
C1340  C     0.48333   0.52364   0.72020   0.00000  Uiso   1.00
C1341  C     0.46629   0.47508   0.77965   0.00000  Uiso   1.00
C1342  C     0.53272   0.52478   0.72078   0.00000  Uiso   1.00
C1343  C     0.63947   0.49963   0.83616   0.00000  Uiso   1.00
C1344  C     0.36058   0.50101   0.66388   0.00000  Uiso   1.00
C1345  C     0.62466   0.49815   0.88550   0.00000  Uiso   1.00
C1346  C     0.37602   0.50715   0.61499   0.00000  Uiso   1.00
C1347  C     0.64208   0.48301   0.95703   0.00000  Uiso   1.00
C1348  C     0.36285   0.53669   0.54682   0.00000  Uiso   1.00
C1349  C     0.65780   0.48817   0.91007   0.00000  Uiso   1.00
C1350  C     0.34504   0.52505   0.59185   0.00000  Uiso   1.00
C1351  C     0.57613   0.50541   0.90785   0.00000  Uiso   1.00
C1352  C     0.42455   0.49958   0.59256   0.00000  Uiso   1.00
C1353  C     0.55961   0.50390   0.95491   0.00000  Uiso   1.00
C1354  C     0.44398   0.51145   0.54754   0.00000  Uiso   1.00
C1355  C     0.59309   0.49176   0.97945   0.00000  Uiso   1.00
C1356  C     0.41195   0.52871   0.52408   0.00000  Uiso   1.00
C1357  C     0.51039   0.51295   0.97799   0.00000  Uiso   1.00
C1358  C     0.49411   0.50592   0.52512   0.00000  Uiso   1.00
Cu1359 Cu    0.38022   0.50001   0.75000   0.00000  Uiso   1.00
Cu1360 Cu    0.61978   0.49999   0.75000   0.00000  Uiso   1.00
H1361  H     0.60179   0.47941   0.54592   0.00000  Uiso   1.00
H1362  H     0.40554   0.55042   0.95944   0.00000  Uiso   1.00
H1363  H     0.44635   0.48373   0.61110   0.00000  Uiso   1.00
H1364  H     0.55159   0.51135   0.88746   0.00000  Uiso   1.00
H1365  H     0.64079   0.53138   0.60903   0.00000  Uiso   1.00
H1366  H     0.36224   0.48351   0.89254   0.00000  Uiso   1.00
H1367  H     0.51996   0.49211   0.58461   0.00000  Uiso   1.00
H1368  H     0.48722   0.53838   0.92069   0.00000  Uiso   1.00
H1369  H     0.58857   0.37132   0.77620   0.00000  Uiso   1.00
H1370  H     0.41150   0.62882   0.72622   0.00000  Uiso   1.00
H1371  H     0.58854   0.62961   0.77758   0.00000  Uiso   1.00
H1372  H     0.41171   0.37051   0.72612   0.00000  Uiso   1.00
H1373  H     0.53111   0.45598   0.80122   0.00000  Uiso   1.00
H1374  H     0.47104   0.54119   0.69549   0.00000  Uiso   1.00
N1375  N     0.45069   0.50001   0.74999   0.00000  Uiso   1.00
N1376  N     0.54931   0.49999   0.75001   0.00000  Uiso   1.00
O1377  O     0.37291   0.43989   0.75000   0.00000  Uiso   1.00
O1378  O     0.62709   0.56011   0.75000   0.00000  Uiso   1.00
O1379  O     0.62706   0.43988   0.75001   0.00000  Uiso   1.00
O1380  O     0.37294   0.56012   0.75000   0.00000  Uiso   1.00
O1381  O     0.35186   0.50001   0.81492   0.00000  Uiso   1.00
O1382  O     0.64814   0.49999   0.68509   0.00000  Uiso   1.00
O1383  O     0.60600   0.50000   0.81492   0.00000  Uiso   1.00
O1384  O     0.39400   0.50000   0.68508   0.00000  Uiso   1.00
O1385  O     0.34071   0.47193   0.98225   0.00000  Uiso   1.00
C1386  C     0.37067   0.43829   0.96307   0.00000  Uiso   1.00
H1387  H     0.40239   0.44974   0.93653   0.00000  Uiso   1.00
H1388  H     0.35039   0.41506   0.94870   0.00000  Uiso   1.00
C1389  C     0.38967   0.41716   0.99945   0.00000  Uiso   1.00
H1390  H     0.41292   0.43891   0.51187   0.00000  Uiso   1.00
H1391  H     0.35861   0.40850   0.52814   0.00000  Uiso   1.00
C1392  C     0.41930   0.37861   0.98153   0.00000  Uiso   1.00
H1393  H     0.39647   0.35582   0.96994   0.00000  Uiso   1.00
H1394  H     0.43283   0.36420   0.50868   0.00000  Uiso   1.00
H1395  H     0.45090   0.38685   0.95312   0.00000  Uiso   1.00
O1396  O     0.66465   0.55453   0.52488   0.00000  Uiso   1.00
C1397  C     0.33712   0.59795   0.52312   0.00000  Uiso   1.00
H1398  H     0.33362   0.60877   0.98986   0.00000  Uiso   1.00
H1399  H     0.37347   0.60847   0.52561   0.00000  Uiso   1.00
C1400  C     0.63038   0.61817   0.55983   0.00000  Uiso   1.00
H1401  H     0.59444   0.60906   0.55558   0.00000  Uiso   1.00
H1402  H     0.63313   0.60737   0.59332   0.00000  Uiso   1.00
C1403  C     0.63440   0.66509   0.55780   0.00000  Uiso   1.00
H1404  H     0.33563   0.34137   0.56462   0.00000  Uiso   1.00
H1405  H     0.60377   0.34557   0.58362   0.00000  Uiso   1.00
H1406  H     0.63304   0.34348   0.52422   0.00000  Uiso   1.00
O1407  O     0.43100   0.45042   0.80808   0.00000  Uiso   1.00
C1408  C     0.44730   0.42311   0.83698   0.00000  Uiso   1.00
H1409  H     0.41472   0.41340   0.86356   0.00000  Uiso   1.00
H1410  H     0.47076   0.43842   0.85549   0.00000  Uiso   1.00
C1411  C     0.46987   0.38390   0.81214   0.00000  Uiso   1.00
H1412  H     0.44205   0.36771   0.79947   0.00000  Uiso   1.00
H1413  H     0.50050   0.39172   0.78275   0.00000  Uiso   1.00
C1414  C     0.48819   0.35479   0.84318   0.00000  Uiso   1.00
H1415  H     0.51687   0.37003   0.85550   0.00000  Uiso   1.00
H1416  H     0.50375   0.65991   0.82448   0.00000  Uiso   1.00
H1417  H     0.45788   0.34563   0.87236   0.00000  Uiso   1.00
O1418  O     0.56483   0.54901   0.68958   0.00000  Uiso   1.00
C1419  C     0.55776   0.59132   0.70126   0.00000  Uiso   1.00
H1420  H     0.59435   0.60519   0.69512   0.00000  Uiso   1.00
H1421  H     0.53879   0.59662   0.73742   0.00000  Uiso   1.00
C1422  C     0.53100   0.61444   0.67141   0.00000  Uiso   1.00
H1423  H     0.54754   0.60678   0.63565   0.00000  Uiso   1.00
H1424  H     0.49237   0.60538   0.68002   0.00000  Uiso   1.00
C1425  C     0.53291   0.66105   0.67770   0.00000  Uiso   1.00
H1426  H     0.51510   0.33598   0.71316   0.00000  Uiso   1.00
H1427  H     0.51352   0.34373   0.65559   0.00000  Uiso   1.00
H1428  H     0.57111   0.33849   0.66882   0.00000  Uiso   1.00
C1429  C     0.66672   0.42072   0.75024   0.00000  Uiso   1.00
C1430  C     0.99985   0.57930   0.75037   0.00000  Uiso   1.00
C1431  C     0.86203   0.49470   0.54853   0.00000  Uiso   1.00
C1432  C     0.81048   0.52961   0.95564   0.00000  Uiso   1.00
C1433  C     0.91035   0.48799   0.52616   0.00000  Uiso   1.00
C1434  C     0.76258   0.53759   0.97832   0.00000  Uiso   1.00
C1435  C     0.95609   0.35494   0.76503   0.00000  Uiso   1.00
C1436  C     0.71060   0.64515   0.73733   0.00000  Uiso   1.00
C1437  C     0.95602   0.64559   0.76553   0.00000  Uiso   1.00
C1438  C     0.71073   0.35450   0.73730   0.00000  Uiso   1.00
C1439  C     0.99985   0.62393   0.75101   0.00000  Uiso   1.00
C1440  C     0.66677   0.37613   0.75082   0.00000  Uiso   1.00
C1441  C     0.85018   0.47537   0.77917   0.00000  Uiso   1.00
C1442  C     0.81666   0.52364   0.72020   0.00000  Uiso   1.00
C1443  C     0.79962   0.47508   0.77965   0.00000  Uiso   1.00
C1444  C     0.86606   0.52478   0.72078   0.00000  Uiso   1.00
C1445  C     0.97280   0.49963   0.83616   0.00000  Uiso   1.00
C1446  C     0.69392   0.50101   0.66388   0.00000  Uiso   1.00
C1447  C     0.95799   0.49815   0.88550   0.00000  Uiso   1.00
C1448  C     0.70935   0.50715   0.61499   0.00000  Uiso   1.00
C1449  C     0.97541   0.48301   0.95703   0.00000  Uiso   1.00
C1450  C     0.69618   0.53669   0.54682   0.00000  Uiso   1.00
C1451  C     0.99113   0.48817   0.91007   0.00000  Uiso   1.00
C1452  C     0.67838   0.52505   0.59185   0.00000  Uiso   1.00
C1453  C     0.90946   0.50541   0.90785   0.00000  Uiso   1.00
C1454  C     0.75788   0.49958   0.59256   0.00000  Uiso   1.00
C1455  C     0.89294   0.50390   0.95491   0.00000  Uiso   1.00
C1456  C     0.77732   0.51145   0.54754   0.00000  Uiso   1.00
C1457  C     0.92643   0.49176   0.97945   0.00000  Uiso   1.00
C1458  C     0.74529   0.52871   0.52408   0.00000  Uiso   1.00
C1459  C     0.84372   0.51295   0.97799   0.00000  Uiso   1.00
C1460  C     0.82744   0.50592   0.52512   0.00000  Uiso   1.00
Cu1461 Cu    0.71355   0.50001   0.75000   0.00000  Uiso   1.00
Cu1462 Cu    0.95311   0.49999   0.75000   0.00000  Uiso   1.00
H1463  H     0.93512   0.47941   0.54592   0.00000  Uiso   1.00
H1464  H     0.73888   0.55042   0.95944   0.00000  Uiso   1.00
H1465  H     0.77968   0.48373   0.61110   0.00000  Uiso   1.00
H1466  H     0.88492   0.51135   0.88746   0.00000  Uiso   1.00
H1467  H     0.97412   0.53138   0.60903   0.00000  Uiso   1.00
H1468  H     0.69557   0.48351   0.89254   0.00000  Uiso   1.00
H1469  H     0.85330   0.49211   0.58461   0.00000  Uiso   1.00
H1470  H     0.82055   0.53838   0.92069   0.00000  Uiso   1.00
H1471  H     0.92190   0.37132   0.77620   0.00000  Uiso   1.00
H1472  H     0.74483   0.62882   0.72622   0.00000  Uiso   1.00
H1473  H     0.92187   0.62961   0.77758   0.00000  Uiso   1.00
H1474  H     0.74504   0.37051   0.72612   0.00000  Uiso   1.00
H1475  H     0.86444   0.45598   0.80122   0.00000  Uiso   1.00
H1476  H     0.80437   0.54119   0.69549   0.00000  Uiso   1.00
N1477  N     0.78403   0.50001   0.74999   0.00000  Uiso   1.00
N1478  N     0.88264   0.49999   0.75001   0.00000  Uiso   1.00
O1479  O     0.70625   0.43989   0.75000   0.00000  Uiso   1.00
O1480  O     0.96042   0.56011   0.75000   0.00000  Uiso   1.00
O1481  O     0.96039   0.43988   0.75001   0.00000  Uiso   1.00
O1482  O     0.70628   0.56012   0.75000   0.00000  Uiso   1.00
O1483  O     0.68519   0.50001   0.81492   0.00000  Uiso   1.00
O1484  O     0.98148   0.49999   0.68509   0.00000  Uiso   1.00
O1485  O     0.93933   0.50000   0.81492   0.00000  Uiso   1.00
O1486  O     0.72733   0.50000   0.68508   0.00000  Uiso   1.00
O1487  O     0.67404   0.47193   0.98225   0.00000  Uiso   1.00
C1488  C     0.70400   0.43829   0.96307   0.00000  Uiso   1.00
H1489  H     0.73572   0.44974   0.93653   0.00000  Uiso   1.00
H1490  H     0.68372   0.41506   0.94870   0.00000  Uiso   1.00
C1491  C     0.72301   0.41716   0.99945   0.00000  Uiso   1.00
H1492  H     0.74626   0.43891   0.51187   0.00000  Uiso   1.00
H1493  H     0.69194   0.40850   0.52814   0.00000  Uiso   1.00
C1494  C     0.75264   0.37861   0.98153   0.00000  Uiso   1.00
H1495  H     0.72980   0.35582   0.96994   0.00000  Uiso   1.00
H1496  H     0.76616   0.36420   0.50868   0.00000  Uiso   1.00
H1497  H     0.78423   0.38685   0.95312   0.00000  Uiso   1.00
O1498  O     0.99798   0.55453   0.52488   0.00000  Uiso   1.00
C1499  C     0.67045   0.59795   0.52312   0.00000  Uiso   1.00
H1500  H     0.66695   0.60877   0.98986   0.00000  Uiso   1.00
H1501  H     0.70680   0.60847   0.52561   0.00000  Uiso   1.00
C1502  C     0.96371   0.61817   0.55983   0.00000  Uiso   1.00
H1503  H     0.92778   0.60906   0.55558   0.00000  Uiso   1.00
H1504  H     0.96646   0.60737   0.59332   0.00000  Uiso   1.00
C1505  C     0.96773   0.66509   0.55780   0.00000  Uiso   1.00
H1506  H     0.66896   0.34137   0.56462   0.00000  Uiso   1.00
H1507  H     0.93710   0.34557   0.58362   0.00000  Uiso   1.00
H1508  H     0.96638   0.34348   0.52422   0.00000  Uiso   1.00
O1509  O     0.76433   0.45042   0.80808   0.00000  Uiso   1.00
C1510  C     0.78064   0.42311   0.83698   0.00000  Uiso   1.00
H1511  H     0.74806   0.41340   0.86356   0.00000  Uiso   1.00
H1512  H     0.80409   0.43842   0.85549   0.00000  Uiso   1.00
C1513  C     0.80321   0.38390   0.81214   0.00000  Uiso   1.00
H1514  H     0.77539   0.36771   0.79947   0.00000  Uiso   1.00
H1515  H     0.83384   0.39172   0.78275   0.00000  Uiso   1.00
C1516  C     0.82152   0.35479   0.84318   0.00000  Uiso   1.00
H1517  H     0.85020   0.37003   0.85550   0.00000  Uiso   1.00
H1518  H     0.83709   0.65991   0.82448   0.00000  Uiso   1.00
H1519  H     0.79121   0.34563   0.87236   0.00000  Uiso   1.00
O1520  O     0.89816   0.54901   0.68958   0.00000  Uiso   1.00
C1521  C     0.89109   0.59132   0.70126   0.00000  Uiso   1.00
H1522  H     0.92768   0.60519   0.69512   0.00000  Uiso   1.00
H1523  H     0.87213   0.59662   0.73742   0.00000  Uiso   1.00
C1524  C     0.86433   0.61444   0.67141   0.00000  Uiso   1.00
H1525  H     0.88087   0.60678   0.63565   0.00000  Uiso   1.00
H1526  H     0.82571   0.60538   0.68002   0.00000  Uiso   1.00
C1527  C     0.86624   0.66105   0.67770   0.00000  Uiso   1.00
H1528  H     0.84844   0.33598   0.71316   0.00000  Uiso   1.00
H1529  H     0.84685   0.34373   0.65559   0.00000  Uiso   1.00
H1530  H     0.90445   0.33849   0.66882   0.00000  Uiso   1.00
C1531  C     0.00005   0.75406   0.75024   0.00000  Uiso   1.00
C1532  C     0.33318   0.91263   0.75037   0.00000  Uiso   1.00
C1533  C     0.19536   0.82803   0.54853   0.00000  Uiso   1.00
C1534  C     0.14382   0.86294   0.95564   0.00000  Uiso   1.00
C1535  C     0.24369   0.82133   0.52616   0.00000  Uiso   1.00
C1536  C     0.09591   0.87092   0.97832   0.00000  Uiso   1.00
C1537  C     0.28942   0.68827   0.76503   0.00000  Uiso   1.00
C1538  C     0.04393   0.97848   0.73733   0.00000  Uiso   1.00
C1539  C     0.28936   0.97893   0.76553   0.00000  Uiso   1.00
C1540  C     0.04407   0.68784   0.73730   0.00000  Uiso   1.00
C1541  C     0.33318   0.95726   0.75101   0.00000  Uiso   1.00
C1542  C     0.00010   0.70947   0.75082   0.00000  Uiso   1.00
C1543  C     0.18351   0.80870   0.77917   0.00000  Uiso   1.00
C1544  C     0.15000   0.85697   0.72020   0.00000  Uiso   1.00
C1545  C     0.13296   0.80842   0.77965   0.00000  Uiso   1.00
C1546  C     0.19939   0.85812   0.72078   0.00000  Uiso   1.00
C1547  C     0.30614   0.83297   0.83616   0.00000  Uiso   1.00
C1548  C     0.02725   0.83434   0.66388   0.00000  Uiso   1.00
C1549  C     0.29132   0.83149   0.88550   0.00000  Uiso   1.00
C1550  C     0.04269   0.84048   0.61499   0.00000  Uiso   1.00
C1551  C     0.30874   0.81634   0.95703   0.00000  Uiso   1.00
C1552  C     0.02952   0.87003   0.54682   0.00000  Uiso   1.00
C1553  C     0.32447   0.82150   0.91007   0.00000  Uiso   1.00
C1554  C     0.01171   0.85839   0.59185   0.00000  Uiso   1.00
C1555  C     0.24279   0.83875   0.90785   0.00000  Uiso   1.00
C1556  C     0.09122   0.83291   0.59256   0.00000  Uiso   1.00
C1557  C     0.22628   0.83723   0.95491   0.00000  Uiso   1.00
C1558  C     0.11065   0.84479   0.54754   0.00000  Uiso   1.00
C1559  C     0.25976   0.82509   0.97945   0.00000  Uiso   1.00
C1560  C     0.07862   0.86205   0.52408   0.00000  Uiso   1.00
C1561  C     0.17705   0.84629   0.97799   0.00000  Uiso   1.00
C1562  C     0.16078   0.83925   0.52512   0.00000  Uiso   1.00
Cu1563 Cu    0.04689   0.83334   0.75000   0.00000  Uiso   1.00
Cu1564 Cu    0.28645   0.83333   0.75000   0.00000  Uiso   1.00
H1565  H     0.26845   0.81275   0.54592   0.00000  Uiso   1.00
H1566  H     0.07221   0.88375   0.95944   0.00000  Uiso   1.00
H1567  H     0.11302   0.81707   0.61110   0.00000  Uiso   1.00
H1568  H     0.21826   0.84468   0.88746   0.00000  Uiso   1.00
H1569  H     0.30746   0.86472   0.60903   0.00000  Uiso   1.00
H1570  H     0.02890   0.81684   0.89254   0.00000  Uiso   1.00
H1571  H     0.18663   0.82544   0.58461   0.00000  Uiso   1.00
H1572  H     0.15388   0.87171   0.92069   0.00000  Uiso   1.00
H1573  H     0.25523   0.70465   0.77620   0.00000  Uiso   1.00
H1574  H     0.07816   0.96215   0.72622   0.00000  Uiso   1.00
H1575  H     0.25521   0.96294   0.77758   0.00000  Uiso   1.00
H1576  H     0.07838   0.70384   0.72612   0.00000  Uiso   1.00
H1577  H     0.19777   0.78931   0.80122   0.00000  Uiso   1.00
H1578  H     0.13771   0.87452   0.69549   0.00000  Uiso   1.00
N1579  N     0.11736   0.83334   0.74999   0.00000  Uiso   1.00
N1580  N     0.21597   0.83332   0.75001   0.00000  Uiso   1.00
O1581  O     0.03958   0.77322   0.75000   0.00000  Uiso   1.00
O1582  O     0.29375   0.89345   0.75000   0.00000  Uiso   1.00
O1583  O     0.29372   0.77321   0.75001   0.00000  Uiso   1.00
O1584  O     0.03961   0.89346   0.75000   0.00000  Uiso   1.00
O1585  O     0.01852   0.83334   0.81492   0.00000  Uiso   1.00
O1586  O     0.31481   0.83332   0.68509   0.00000  Uiso   1.00
O1587  O     0.27267   0.83333   0.81492   0.00000  Uiso   1.00
O1588  O     0.06067   0.83333   0.68508   0.00000  Uiso   1.00
O1589  O     0.00738   0.80526   0.98225   0.00000  Uiso   1.00
C1590  C     0.03734   0.77162   0.96307   0.00000  Uiso   1.00
H1591  H     0.06905   0.78307   0.93653   0.00000  Uiso   1.00
H1592  H     0.01706   0.74839   0.94870   0.00000  Uiso   1.00
C1593  C     0.05634   0.75049   0.99945   0.00000  Uiso   1.00
H1594  H     0.07959   0.77224   0.51187   0.00000  Uiso   1.00
H1595  H     0.02527   0.74184   0.52814   0.00000  Uiso   1.00
C1596  C     0.08597   0.71195   0.98153   0.00000  Uiso   1.00
H1597  H     0.06313   0.68915   0.96994   0.00000  Uiso   1.00
H1598  H     0.09950   0.69753   0.50868   0.00000  Uiso   1.00
H1599  H     0.11757   0.72018   0.95312   0.00000  Uiso   1.00
O1600  O     0.33131   0.88786   0.52488   0.00000  Uiso   1.00
C1601  C     0.00378   0.93128   0.52312   0.00000  Uiso   1.00
H1602  H     0.00028   0.94210   0.98986   0.00000  Uiso   1.00
H1603  H     0.04014   0.94180   0.52561   0.00000  Uiso   1.00
C1604  C     0.29704   0.95150   0.55983   0.00000  Uiso   1.00
H1605  H     0.26111   0.94239   0.55558   0.00000  Uiso   1.00
H1606  H     0.29980   0.94071   0.59332   0.00000  Uiso   1.00
C1607  C     0.30107   0.99842   0.55780   0.00000  Uiso   1.00
H1608  H     0.00229   0.67470   0.56462   0.00000  Uiso   1.00
H1609  H     0.27043   0.67891   0.58362   0.00000  Uiso   1.00
H1610  H     0.29971   0.67682   0.52422   0.00000  Uiso   1.00
O1611  O     0.09767   0.78376   0.80808   0.00000  Uiso   1.00
C1612  C     0.11397   0.75644   0.83698   0.00000  Uiso   1.00
H1613  H     0.08139   0.74673   0.86356   0.00000  Uiso   1.00
H1614  H     0.13743   0.77176   0.85549   0.00000  Uiso   1.00
C1615  C     0.13654   0.71724   0.81214   0.00000  Uiso   1.00
H1616  H     0.10872   0.70104   0.79947   0.00000  Uiso   1.00
H1617  H     0.16717   0.72505   0.78275   0.00000  Uiso   1.00
C1618  C     0.15485   0.68813   0.84318   0.00000  Uiso   1.00
H1619  H     0.18353   0.70337   0.85550   0.00000  Uiso   1.00
H1620  H     0.17042   0.99325   0.82448   0.00000  Uiso   1.00
H1621  H     0.12455   0.67896   0.87236   0.00000  Uiso   1.00
O1622  O     0.23150   0.88235   0.68958   0.00000  Uiso   1.00
C1623  C     0.22443   0.92466   0.70126   0.00000  Uiso   1.00
H1624  H     0.26102   0.93853   0.69512   0.00000  Uiso   1.00
H1625  H     0.20546   0.92995   0.73742   0.00000  Uiso   1.00
C1626  C     0.19767   0.94778   0.67141   0.00000  Uiso   1.00
H1627  H     0.21421   0.94011   0.63565   0.00000  Uiso   1.00
H1628  H     0.15904   0.93871   0.68002   0.00000  Uiso   1.00
C1629  C     0.19958   0.99439   0.67770   0.00000  Uiso   1.00
H1630  H     0.18177   0.66932   0.71316   0.00000  Uiso   1.00
H1631  H     0.18019   0.67707   0.65559   0.00000  Uiso   1.00
H1632  H     0.23778   0.67182   0.66882   0.00000  Uiso   1.00
C1633  C     0.33338   0.75406   0.75024   0.00000  Uiso   1.00
C1634  C     0.66651   0.91263   0.75037   0.00000  Uiso   1.00
C1635  C     0.52869   0.82803   0.54853   0.00000  Uiso   1.00
C1636  C     0.47715   0.86294   0.95564   0.00000  Uiso   1.00
C1637  C     0.57702   0.82133   0.52616   0.00000  Uiso   1.00
C1638  C     0.42925   0.87092   0.97832   0.00000  Uiso   1.00
C1639  C     0.62276   0.68827   0.76503   0.00000  Uiso   1.00
C1640  C     0.37726   0.97848   0.73733   0.00000  Uiso   1.00
C1641  C     0.62269   0.97893   0.76553   0.00000  Uiso   1.00
C1642  C     0.37740   0.68784   0.73730   0.00000  Uiso   1.00
C1643  C     0.66651   0.95726   0.75101   0.00000  Uiso   1.00
C1644  C     0.33343   0.70947   0.75082   0.00000  Uiso   1.00
C1645  C     0.51685   0.80870   0.77917   0.00000  Uiso   1.00
C1646  C     0.48333   0.85697   0.72020   0.00000  Uiso   1.00
C1647  C     0.46629   0.80842   0.77965   0.00000  Uiso   1.00
C1648  C     0.53272   0.85812   0.72078   0.00000  Uiso   1.00
C1649  C     0.63947   0.83297   0.83616   0.00000  Uiso   1.00
C1650  C     0.36058   0.83434   0.66388   0.00000  Uiso   1.00
C1651  C     0.62466   0.83149   0.88550   0.00000  Uiso   1.00
C1652  C     0.37602   0.84048   0.61499   0.00000  Uiso   1.00
C1653  C     0.64208   0.81634   0.95703   0.00000  Uiso   1.00
C1654  C     0.36285   0.87003   0.54682   0.00000  Uiso   1.00
C1655  C     0.65780   0.82150   0.91007   0.00000  Uiso   1.00
C1656  C     0.34504   0.85839   0.59185   0.00000  Uiso   1.00
C1657  C     0.57613   0.83875   0.90785   0.00000  Uiso   1.00
C1658  C     0.42455   0.83291   0.59256   0.00000  Uiso   1.00
C1659  C     0.55961   0.83723   0.95491   0.00000  Uiso   1.00
C1660  C     0.44398   0.84479   0.54754   0.00000  Uiso   1.00
C1661  C     0.59309   0.82509   0.97945   0.00000  Uiso   1.00
C1662  C     0.41195   0.86205   0.52408   0.00000  Uiso   1.00
C1663  C     0.51039   0.84629   0.97799   0.00000  Uiso   1.00
C1664  C     0.49411   0.83925   0.52512   0.00000  Uiso   1.00
Cu1665 Cu    0.38022   0.83334   0.75000   0.00000  Uiso   1.00
Cu1666 Cu    0.61978   0.83333   0.75000   0.00000  Uiso   1.00
H1667  H     0.60179   0.81275   0.54592   0.00000  Uiso   1.00
H1668  H     0.40554   0.88375   0.95944   0.00000  Uiso   1.00
H1669  H     0.44635   0.81707   0.61110   0.00000  Uiso   1.00
H1670  H     0.55159   0.84468   0.88746   0.00000  Uiso   1.00
H1671  H     0.64079   0.86472   0.60903   0.00000  Uiso   1.00
H1672  H     0.36224   0.81684   0.89254   0.00000  Uiso   1.00
H1673  H     0.51996   0.82544   0.58461   0.00000  Uiso   1.00
H1674  H     0.48722   0.87171   0.92069   0.00000  Uiso   1.00
H1675  H     0.58857   0.70465   0.77620   0.00000  Uiso   1.00
H1676  H     0.41150   0.96215   0.72622   0.00000  Uiso   1.00
H1677  H     0.58854   0.96294   0.77758   0.00000  Uiso   1.00
H1678  H     0.41171   0.70384   0.72612   0.00000  Uiso   1.00
H1679  H     0.53111   0.78931   0.80122   0.00000  Uiso   1.00
H1680  H     0.47104   0.87452   0.69549   0.00000  Uiso   1.00
N1681  N     0.45069   0.83334   0.74999   0.00000  Uiso   1.00
N1682  N     0.54931   0.83332   0.75001   0.00000  Uiso   1.00
O1683  O     0.37291   0.77322   0.75000   0.00000  Uiso   1.00
O1684  O     0.62709   0.89345   0.75000   0.00000  Uiso   1.00
O1685  O     0.62706   0.77321   0.75001   0.00000  Uiso   1.00
O1686  O     0.37294   0.89346   0.75000   0.00000  Uiso   1.00
O1687  O     0.35186   0.83334   0.81492   0.00000  Uiso   1.00
O1688  O     0.64814   0.83332   0.68509   0.00000  Uiso   1.00
O1689  O     0.60600   0.83333   0.81492   0.00000  Uiso   1.00
O1690  O     0.39400   0.83333   0.68508   0.00000  Uiso   1.00
O1691  O     0.34071   0.80526   0.98225   0.00000  Uiso   1.00
C1692  C     0.37067   0.77162   0.96307   0.00000  Uiso   1.00
H1693  H     0.40239   0.78307   0.93653   0.00000  Uiso   1.00
H1694  H     0.35039   0.74839   0.94870   0.00000  Uiso   1.00
C1695  C     0.38967   0.75049   0.99945   0.00000  Uiso   1.00
H1696  H     0.41292   0.77224   0.51187   0.00000  Uiso   1.00
H1697  H     0.35861   0.74184   0.52814   0.00000  Uiso   1.00
C1698  C     0.41930   0.71195   0.98153   0.00000  Uiso   1.00
H1699  H     0.39647   0.68915   0.96994   0.00000  Uiso   1.00
H1700  H     0.43283   0.69753   0.50868   0.00000  Uiso   1.00
H1701  H     0.45090   0.72018   0.95312   0.00000  Uiso   1.00
O1702  O     0.66465   0.88786   0.52488   0.00000  Uiso   1.00
C1703  C     0.33712   0.93128   0.52312   0.00000  Uiso   1.00
H1704  H     0.33362   0.94210   0.98986   0.00000  Uiso   1.00
H1705  H     0.37347   0.94180   0.52561   0.00000  Uiso   1.00
C1706  C     0.63038   0.95150   0.55983   0.00000  Uiso   1.00
H1707  H     0.59444   0.94239   0.55558   0.00000  Uiso   1.00
H1708  H     0.63313   0.94071   0.59332   0.00000  Uiso   1.00
C1709  C     0.63440   0.99842   0.55780   0.00000  Uiso   1.00
H1710  H     0.33563   0.67470   0.56462   0.00000  Uiso   1.00
H1711  H     0.60377   0.67891   0.58362   0.00000  Uiso   1.00
H1712  H     0.63304   0.67682   0.52422   0.00000  Uiso   1.00
O1713  O     0.43100   0.78376   0.80808   0.00000  Uiso   1.00
C1714  C     0.44730   0.75644   0.83698   0.00000  Uiso   1.00
H1715  H     0.41472   0.74673   0.86356   0.00000  Uiso   1.00
H1716  H     0.47076   0.77176   0.85549   0.00000  Uiso   1.00
C1717  C     0.46987   0.71724   0.81214   0.00000  Uiso   1.00
H1718  H     0.44205   0.70104   0.79947   0.00000  Uiso   1.00
H1719  H     0.50050   0.72505   0.78275   0.00000  Uiso   1.00
C1720  C     0.48819   0.68813   0.84318   0.00000  Uiso   1.00
H1721  H     0.51687   0.70337   0.85550   0.00000  Uiso   1.00
H1722  H     0.50375   0.99325   0.82448   0.00000  Uiso   1.00
H1723  H     0.45788   0.67896   0.87236   0.00000  Uiso   1.00
O1724  O     0.56483   0.88235   0.68958   0.00000  Uiso   1.00
C1725  C     0.55776   0.92466   0.70126   0.00000  Uiso   1.00
H1726  H     0.59435   0.93853   0.69512   0.00000  Uiso   1.00
H1727  H     0.53879   0.92995   0.73742   0.00000  Uiso   1.00
C1728  C     0.53100   0.94778   0.67141   0.00000  Uiso   1.00
H1729  H     0.54754   0.94011   0.63565   0.00000  Uiso   1.00
H1730  H     0.49237   0.93871   0.68002   0.00000  Uiso   1.00
C1731  C     0.53291   0.99439   0.67770   0.00000  Uiso   1.00
H1732  H     0.51510   0.66932   0.71316   0.00000  Uiso   1.00
H1733  H     0.51352   0.67707   0.65559   0.00000  Uiso   1.00
H1734  H     0.57111   0.67182   0.66882   0.00000  Uiso   1.00
C1735  C     0.66672   0.75406   0.75024   0.00000  Uiso   1.00
C1736  C     0.99985   0.91263   0.75037   0.00000  Uiso   1.00
C1737  C     0.86203   0.82803   0.54853   0.00000  Uiso   1.00
C1738  C     0.81048   0.86294   0.95564   0.00000  Uiso   1.00
C1739  C     0.91035   0.82133   0.52616   0.00000  Uiso   1.00
C1740  C     0.76258   0.87092   0.97832   0.00000  Uiso   1.00
C1741  C     0.95609   0.68827   0.76503   0.00000  Uiso   1.00
C1742  C     0.71060   0.97848   0.73733   0.00000  Uiso   1.00
C1743  C     0.95602   0.97893   0.76553   0.00000  Uiso   1.00
C1744  C     0.71073   0.68784   0.73730   0.00000  Uiso   1.00
C1745  C     0.99985   0.95726   0.75101   0.00000  Uiso   1.00
C1746  C     0.66677   0.70947   0.75082   0.00000  Uiso   1.00
C1747  C     0.85018   0.80870   0.77917   0.00000  Uiso   1.00
C1748  C     0.81666   0.85697   0.72020   0.00000  Uiso   1.00
C1749  C     0.79962   0.80842   0.77965   0.00000  Uiso   1.00
C1750  C     0.86606   0.85812   0.72078   0.00000  Uiso   1.00
C1751  C     0.97280   0.83297   0.83616   0.00000  Uiso   1.00
C1752  C     0.69392   0.83434   0.66388   0.00000  Uiso   1.00
C1753  C     0.95799   0.83149   0.88550   0.00000  Uiso   1.00
C1754  C     0.70935   0.84048   0.61499   0.00000  Uiso   1.00
C1755  C     0.97541   0.81634   0.95703   0.00000  Uiso   1.00
C1756  C     0.69618   0.87003   0.54682   0.00000  Uiso   1.00
C1757  C     0.99113   0.82150   0.91007   0.00000  Uiso   1.00
C1758  C     0.67838   0.85839   0.59185   0.00000  Uiso   1.00
C1759  C     0.90946   0.83875   0.90785   0.00000  Uiso   1.00
C1760  C     0.75788   0.83291   0.59256   0.00000  Uiso   1.00
C1761  C     0.89294   0.83723   0.95491   0.00000  Uiso   1.00
C1762  C     0.77732   0.84479   0.54754   0.00000  Uiso   1.00
C1763  C     0.92643   0.82509   0.97945   0.00000  Uiso   1.00
C1764  C     0.74529   0.86205   0.52408   0.00000  Uiso   1.00
C1765  C     0.84372   0.84629   0.97799   0.00000  Uiso   1.00
C1766  C     0.82744   0.83925   0.52512   0.00000  Uiso   1.00
Cu1767 Cu    0.71355   0.83334   0.75000   0.00000  Uiso   1.00
Cu1768 Cu    0.95311   0.83333   0.75000   0.00000  Uiso   1.00
H1769  H     0.93512   0.81275   0.54592   0.00000  Uiso   1.00
H1770  H     0.73888   0.88375   0.95944   0.00000  Uiso   1.00
H1771  H     0.77968   0.81707   0.61110   0.00000  Uiso   1.00
H1772  H     0.88492   0.84468   0.88746   0.00000  Uiso   1.00
H1773  H     0.97412   0.86472   0.60903   0.00000  Uiso   1.00
H1774  H     0.69557   0.81684   0.89254   0.00000  Uiso   1.00
H1775  H     0.85330   0.82544   0.58461   0.00000  Uiso   1.00
H1776  H     0.82055   0.87171   0.92069   0.00000  Uiso   1.00
H1777  H     0.92190   0.70465   0.77620   0.00000  Uiso   1.00
H1778  H     0.74483   0.96215   0.72622   0.00000  Uiso   1.00
H1779  H     0.92187   0.96294   0.77758   0.00000  Uiso   1.00
H1780  H     0.74504   0.70384   0.72612   0.00000  Uiso   1.00
H1781  H     0.86444   0.78931   0.80122   0.00000  Uiso   1.00
H1782  H     0.80437   0.87452   0.69549   0.00000  Uiso   1.00
N1783  N     0.78403   0.83334   0.74999   0.00000  Uiso   1.00
N1784  N     0.88264   0.83332   0.75001   0.00000  Uiso   1.00
O1785  O     0.70625   0.77322   0.75000   0.00000  Uiso   1.00
O1786  O     0.96042   0.89345   0.75000   0.00000  Uiso   1.00
O1787  O     0.96039   0.77321   0.75001   0.00000  Uiso   1.00
O1788  O     0.70628   0.89346   0.75000   0.00000  Uiso   1.00
O1789  O     0.68519   0.83334   0.81492   0.00000  Uiso   1.00
O1790  O     0.98148   0.83332   0.68509   0.00000  Uiso   1.00
O1791  O     0.93933   0.83333   0.81492   0.00000  Uiso   1.00
O1792  O     0.72733   0.83333   0.68508   0.00000  Uiso   1.00
O1793  O     0.67404   0.80526   0.98225   0.00000  Uiso   1.00
C1794  C     0.70400   0.77162   0.96307   0.00000  Uiso   1.00
H1795  H     0.73572   0.78307   0.93653   0.00000  Uiso   1.00
H1796  H     0.68372   0.74839   0.94870   0.00000  Uiso   1.00
C1797  C     0.72301   0.75049   0.99945   0.00000  Uiso   1.00
H1798  H     0.74626   0.77224   0.51187   0.00000  Uiso   1.00
H1799  H     0.69194   0.74184   0.52814   0.00000  Uiso   1.00
C1800  C     0.75264   0.71195   0.98153   0.00000  Uiso   1.00
H1801  H     0.72980   0.68915   0.96994   0.00000  Uiso   1.00
H1802  H     0.76616   0.69753   0.50868   0.00000  Uiso   1.00
H1803  H     0.78423   0.72018   0.95312   0.00000  Uiso   1.00
O1804  O     0.99798   0.88786   0.52488   0.00000  Uiso   1.00
C1805  C     0.67045   0.93128   0.52312   0.00000  Uiso   1.00
H1806  H     0.66695   0.94210   0.98986   0.00000  Uiso   1.00
H1807  H     0.70680   0.94180   0.52561   0.00000  Uiso   1.00
C1808  C     0.96371   0.95150   0.55983   0.00000  Uiso   1.00
H1809  H     0.92778   0.94239   0.55558   0.00000  Uiso   1.00
H1810  H     0.96646   0.94071   0.59332   0.00000  Uiso   1.00
C1811  C     0.96773   0.99842   0.55780   0.00000  Uiso   1.00
H1812  H     0.66896   0.67470   0.56462   0.00000  Uiso   1.00
H1813  H     0.93710   0.67891   0.58362   0.00000  Uiso   1.00
H1814  H     0.96638   0.67682   0.52422   0.00000  Uiso   1.00
O1815  O     0.76433   0.78376   0.80808   0.00000  Uiso   1.00
C1816  C     0.78064   0.75644   0.83698   0.00000  Uiso   1.00
H1817  H     0.74806   0.74673   0.86356   0.00000  Uiso   1.00
H1818  H     0.80409   0.77176   0.85549   0.00000  Uiso   1.00
C1819  C     0.80321   0.71724   0.81214   0.00000  Uiso   1.00
H1820  H     0.77539   0.70104   0.79947   0.00000  Uiso   1.00
H1821  H     0.83384   0.72505   0.78275   0.00000  Uiso   1.00
C1822  C     0.82152   0.68813   0.84318   0.00000  Uiso   1.00
H1823  H     0.85020   0.70337   0.85550   0.00000  Uiso   1.00
H1824  H     0.83709   0.99325   0.82448   0.00000  Uiso   1.00
H1825  H     0.79121   0.67896   0.87236   0.00000  Uiso   1.00
O1826  O     0.89816   0.88235   0.68958   0.00000  Uiso   1.00
C1827  C     0.89109   0.92466   0.70126   0.00000  Uiso   1.00
H1828  H     0.92768   0.93853   0.69512   0.00000  Uiso   1.00
H1829  H     0.87213   0.92995   0.73742   0.00000  Uiso   1.00
C1830  C     0.86433   0.94778   0.67141   0.00000  Uiso   1.00
H1831  H     0.88087   0.94011   0.63565   0.00000  Uiso   1.00
H1832  H     0.82571   0.93871   0.68002   0.00000  Uiso   1.00
C1833  C     0.86624   0.99439   0.67770   0.00000  Uiso   1.00
H1834  H     0.84844   0.66932   0.71316   0.00000  Uiso   1.00
H1835  H     0.84685   0.67707   0.65559   0.00000  Uiso   1.00
H1836  H     0.90445   0.67182   0.66882   0.00000  Uiso   1.00
loop_
_geom_bond_atom_site_label_1
_geom_bond_atom_site_label_2
_geom_bond_distance
_geom_bond_site_symmetry_2
_ccdc_geom_bond_type
C1     C12     1.445   .     S
C1     O51     1.291   .     A
C1     O257    1.290   1_455 S
C2     C11     1.446   .     S
C2     O52     1.293   .     A
C2     O156    1.289   .     S
C3     H41     1.077   .     S
C3     C5      1.387   .     A
C3     C32     1.415   .     A
C4     C6      1.386   .     A
C4     H42     1.076   .     S
C4     C31     1.416   .     A
C5     H35     1.084   .     S
C5     C947    1.396   1_554 S
C6     H36     1.083   .     S
C6     C948    1.395   .     S
C7     H43     1.083   .     S
C7     C621    1.383   1_545 S
C7     C114    1.400   .     S
C8     H44     1.083   .     S
C8     C316    1.383   .     S
C8     C215    1.401   1_455 S
C9     H45     1.082   .     S
C9     C11     1.399   .     A
C9     C313    1.383   .     S
C10    H46     1.084   .     S
C10    C12     1.399   .     A
C10    C620    1.383   1_545 S
C11    C110    1.401   .     S
C12    C211    1.400   1_455 S
C13    H47     1.078   .     S
C13    N50     1.365   .     A
C13    C15     1.441   .     A
C14    N49     1.358   .     A
C14    H48     1.078   .     S
C14    C16     1.417   .     A
C15    O81     1.398   .     S
C15    N49     1.374   .     A
C16    N50     1.376   .     A
C16    O92     1.384   .     S
C17    C19     1.469   .     S
C17    O57     1.295   .     A
C17    O157    1.297   .     S
C18    O58     1.293   .     A
C18    C20     1.467   .     S
C18    O260    1.299   1_455 S
C19    C23     1.397   .     A
C19    C25     1.394   .     A
C20    C24     1.397   .     A
C20    C26     1.397   .     A
C21    C29     1.415   .     A
C21    C23     1.408   .     A
C21    O161    1.392   .     S
C22    C24     1.397   .     A
C22    C30     1.416   .     A
C22    O274    1.384   1_455 S
C23    H142    1.081   .     S
C24    H243    1.083   1_455 S
C25    H38     1.075   .     S
C25    C27     1.403   .     A
C26    H37     1.077   .     S
C26    C28     1.404   .     A
C27    C29     1.421   .     A
C27    C31     1.428   .     A
C28    C32     1.427   .     A
C28    C30     1.419   .     A
C29    C923    1.396   .     S
C30    C924    1.395   1_554 S
C31    C950    1.422   .     S
C32    C949    1.422   1_554 S
Cu33   O55     1.951   .     S
Cu33   O58     1.936   .     S
Cu33   N49     2.014   .     S
Cu33   O51     1.960   .     S
Cu33   O54     1.957   .     S
Cu33   Cu238   2.680   1_455 S
Cu34   O56     1.951   .     S
Cu34   O57     1.936   .     S
Cu34   N50     2.014   .     S
Cu34   O52     1.960   .     S
Cu34   O53     1.957   .     S
Cu34   Cu135   2.680   .     S
H39    C126    1.083   .     S
H40    C227    1.081   1_455 S
O53    C103    1.290   .     S
O54    C206    1.289   1_455 S
O55    C221    1.297   1_455 S
O56    C120    1.299   .     S
O59    C60     1.414   .     S
O59    C225    1.392   1_455 S
C60    C63     1.527   .     S
C60    H62     1.117   .     S
C60    H61     1.112   .     S
C63    C66     1.526   .     S
C63    H982    1.110   .     S
C63    H983    1.110   .     S
H64    C981    1.110   1_554 S
H65    C981    1.110   1_554 S
C66    H67     1.111   .     S
C66    H69     1.111   .     S
C66    H986    1.110   .     S
H68    C984    1.110   1_554 S
O70    C124    1.384   .     S
O70    C173    1.417   .     S
C71    H73     1.118   .     S
C71    O274    1.417   1_455 S
C71    H990    1.111   1_554 S
C71    C278    1.529   1_455 S
H72    C989    1.111   .     S
C74    H76     1.111   .     S
C74    C77     1.525   .     S
C74    H75     1.112   .     S
C74    C173    1.529   .     S
C77    H486    1.110   .     S
C77    H385    1.110   .     S
C77    H386    1.111   .     S
H78    C893    1.110   1_445 S
H79    C689    1.110   1_545 S
H80    C689    1.111   1_545 S
O81    C82     1.413   .     S
C82    H84     1.111   .     S
C82    C85     1.536   .     S
C82    H83     1.110   .     S
C85    H86     1.111   .     S
C85    C88     1.525   .     S
C85    H87     1.109   .     S
C88    H91     1.111   .     S
C88    H89     1.111   .     S
C88    H702    1.110   1_545 S
H90    C394    1.110   .     S
O92    C93     1.420   .     S
C93    H94     1.110   .     S
C93    H95     1.117   .     S
C93    C96     1.533   .     S
C96    C99     1.527   .     S
C96    H98     1.106   .     S
C96    H97     1.108   .     S
C99    H406    1.111   .     S
C99    H407    1.110   .     S
C99    H408    1.111   .     S
H100   C711    1.111   1_545 S
H101   C711    1.110   1_545 S
H102   C711    1.111   1_545 S
C103   C114    1.445   .     S
C103   O153    1.291   .     A
C104   C113    1.446   .     S
C104   O154    1.293   .     A
C104   O258    1.289   .     S
C105   H143    1.077   .     S
C105   C107    1.387   .     A
C105   C134    1.415   .     A
C106   C108    1.386   .     A
C106   H144    1.076   .     S
C106   C133    1.416   .     A
C107   H137    1.084   .     S
C107   C1049   1.396   1_554 S
C108   H138    1.083   .     S
C108   C1050   1.395   .     S
C109   H145    1.083   .     S
C109   C723    1.383   1_545 S
C109   C216    1.400   .     S
C110   H146    1.083   .     S
C110   C418    1.383   .     S
C111   H147    1.082   .     S
C111   C113    1.399   .     A
C111   C415    1.383   .     S
C112   H148    1.084   .     S
C112   C114    1.399   .     A
C112   C722    1.383   1_545 S
C113   C212    1.401   .     S
C115   H149    1.078   .     S
C115   N152    1.365   .     A
C115   C117    1.441   .     A
C116   N151    1.358   .     A
C116   H150    1.078   .     S
C116   C118    1.417   .     A
C117   O183    1.398   .     S
C117   N151    1.374   .     A
C118   N152    1.376   .     A
C118   O194    1.384   .     S
C119   C121    1.469   .     S
C119   O159    1.295   .     A
C119   O259    1.297   .     S
C120   O160    1.293   .     A
C120   C122    1.467   .     S
C121   C125    1.397   .     A
C121   C127    1.394   .     A
C122   C126    1.397   .     A
C122   C128    1.397   .     A
C123   C131    1.415   .     A
C123   C125    1.408   .     A
C123   O263    1.392   .     S
C124   C126    1.397   .     A
C124   C132    1.416   .     A
C125   H244    1.081   .     S
C127   H140    1.075   .     S
C127   C129    1.403   .     A
C128   H139    1.077   .     S
C128   C130    1.404   .     A
C129   C131    1.421   .     A
C129   C133    1.428   .     A
C130   C134    1.427   .     A
C130   C132    1.419   .     A
C131   C1025   1.396   .     S
C132   C1026   1.395   1_554 S
C133   C1052   1.422   .     S
C134   C1051   1.422   1_554 S
Cu135  O157    1.951   .     S
Cu135  O160    1.936   .     S
Cu135  N151    2.014   .     S
Cu135  O153    1.960   .     S
Cu135  O156    1.957   .     S
Cu136  O158    1.951   .     S
Cu136  O159    1.936   .     S
Cu136  N152    2.014   .     S
Cu136  O154    1.960   .     S
Cu136  O155    1.957   .     S
Cu136  Cu237   2.680   .     S
H141   C228    1.083   .     S
O155   C205    1.290   .     S
O158   C222    1.299   .     S
O161   C162    1.414   .     S
C162   C165    1.527   .     S
C162   H164    1.117   .     S
C162   H163    1.112   .     S
C165   C168    1.526   .     S
C165   H1084   1.110   .     S
C165   H1085   1.110   .     S
H166   C1083   1.110   1_554 S
H167   C1083   1.110   1_554 S
C168   H169    1.111   .     S
C168   H171    1.111   .     S
C168   H1088   1.110   .     S
H170   C1086   1.110   1_554 S
O172   C226    1.384   .     S
O172   C275    1.417   .     S
C173   H175    1.118   .     S
C173   H1092   1.111   1_554 S
H174   C1091   1.111   .     S
C176   H178    1.111   .     S
C176   C179    1.525   .     S
C176   H177    1.112   .     S
C176   C275    1.529   .     S
C179   H588    1.110   .     S
C179   H487    1.110   .     S
C179   H488    1.111   .     S
H180   C689    1.110   1_545 S
H181   C791    1.110   1_545 S
H182   C791    1.111   1_545 S
O183   C184    1.413   .     S
C184   H186    1.111   .     S
C184   C187    1.536   .     S
C184   H185    1.110   .     S
C187   H188    1.111   .     S
C187   C190    1.525   .     S
C187   H189    1.109   .     S
C190   H193    1.111   .     S
C190   H191    1.111   .     S
C190   H804    1.110   1_545 S
H192   C496    1.110   .     S
O194   C195    1.420   .     S
C195   H196    1.110   .     S
C195   H197    1.117   .     S
C195   C198    1.533   .     S
C198   C201    1.527   .     S
C198   H200    1.106   .     S
C198   H199    1.108   .     S
C201   H508    1.111   .     S
C201   H509    1.110   .     S
C201   H510    1.111   .     S
H202   C813    1.111   1_545 S
H203   C813    1.110   1_545 S
H204   C813    1.111   1_545 S
C205   C216    1.445   .     S
C205   O255    1.291   .     A
C206   C215    1.446   .     S
C206   O256    1.293   .     A
C206   O54     1.289   1_655 S
C207   H245    1.077   .     S
C207   C209    1.387   .     A
C207   C236    1.415   .     A
C208   C210    1.386   .     A
C208   H246    1.076   .     S
C208   C235    1.416   .     A
C209   H239    1.084   .     S
C209   C1151   1.396   1_554 S
C210   H240    1.083   .     S
C210   C1152   1.395   .     S
C211   H247    1.083   .     S
C211   C825    1.383   1_545 S
C211   C12     1.400   1_655 S
C212   H248    1.083   .     S
C212   C520    1.383   .     S
C213   H249    1.082   .     S
C213   C215    1.399   .     A
C213   C517    1.383   .     S
C214   H250    1.084   .     S
C214   C216    1.399   .     A
C214   C824    1.383   1_545 S
C215   C8      1.401   1_655 S
C217   H251    1.078   .     S
C217   N254    1.365   .     A
C217   C219    1.441   .     A
C218   N253    1.358   .     A
C218   H252    1.078   .     S
C218   C220    1.417   .     A
C219   O285    1.398   .     S
C219   N253    1.374   .     A
C220   N254    1.376   .     A
C220   O296    1.384   .     S
C221   C223    1.469   .     S
C221   O261    1.295   .     A
C221   O55     1.297   1_655 S
C222   O262    1.293   .     A
C222   C224    1.467   .     S
C223   C227    1.397   .     A
C223   C229    1.394   .     A
C224   C228    1.397   .     A
C224   C230    1.397   .     A
C225   C233    1.415   .     A
C225   C227    1.408   .     A
C225   O59     1.392   1_655 S
C226   C228    1.397   .     A
C226   C234    1.416   .     A
C227   H40     1.081   1_655 S
C229   H242    1.075   .     S
C229   C231    1.403   .     A
C230   H241    1.077   .     S
C230   C232    1.404   .     A
C231   C233    1.421   .     A
C231   C235    1.428   .     A
C232   C236    1.427   .     A
C232   C234    1.419   .     A
C233   C1127   1.396   .     S
C234   C1128   1.395   1_554 S
C235   C1154   1.422   .     S
C236   C1153   1.422   1_554 S
Cu237  O259    1.951   .     S
Cu237  O262    1.936   .     S
Cu237  N253    2.014   .     S
Cu237  O255    1.960   .     S
Cu237  O258    1.957   .     S
Cu238  O260    1.951   .     S
Cu238  O261    1.936   .     S
Cu238  N254    2.014   .     S
Cu238  O256    1.960   .     S
Cu238  O257    1.957   .     S
Cu238  Cu33    2.680   1_655 S
H243   C24     1.083   1_655 S
O257   C1      1.290   1_655 S
O260   C18     1.299   1_655 S
O263   C264    1.414   .     S
C264   C267    1.527   .     S
C264   H266    1.117   .     S
C264   H265    1.112   .     S
C267   C270    1.526   .     S
C267   H1186   1.110   .     S
C267   H1187   1.110   .     S
H268   C1185   1.110   1_554 S
H269   C1185   1.110   1_554 S
C270   H271    1.111   .     S
C270   H273    1.111   .     S
C270   H1190   1.110   .     S
H272   C1188   1.110   1_554 S
O274   C22     1.384   1_655 S
O274   C71     1.417   1_655 S
C275   H277    1.118   .     S
C275   H1194   1.111   1_554 S
H276   C1193   1.111   .     S
C278   H280    1.111   .     S
C278   C281    1.525   .     S
C278   H279    1.112   .     S
C278   C71     1.529   1_655 S
C281   H384    1.110   1_655 S
C281   H589    1.110   .     S
C281   H590    1.111   .     S
H282   C791    1.110   1_545 S
H283   C893    1.110   1_545 S
H284   C893    1.111   1_545 S
O285   C286    1.413   .     S
C286   H288    1.111   .     S
C286   C289    1.536   .     S
C286   H287    1.110   .     S
C289   H290    1.111   .     S
C289   C292    1.525   .     S
C289   H291    1.109   .     S
C292   H295    1.111   .     S
C292   H293    1.111   .     S
C292   H906    1.110   1_545 S
H294   C598    1.110   .     S
O296   C297    1.420   .     S
C297   H298    1.110   .     S
C297   H299    1.117   .     S
C297   C300    1.533   .     S
C300   C303    1.527   .     S
C300   H302    1.106   .     S
C300   H301    1.108   .     S
C303   H610    1.111   .     S
C303   H611    1.110   .     S
C303   H612    1.111   .     S
H304   C915    1.111   1_545 S
H305   C915    1.110   1_545 S
H306   C915    1.111   1_545 S
C307   C318    1.445   .     S
C307   O357    1.291   .     A
C307   O563    1.290   1_455 S
C308   C317    1.446   .     S
C308   O358    1.293   .     A
C308   O462    1.289   .     S
C309   H347    1.077   .     S
C309   C311    1.387   .     A
C309   C338    1.415   .     A
C310   C312    1.386   .     A
C310   H348    1.076   .     S
C310   C337    1.416   .     A
C311   H341    1.084   .     S
C311   C1253   1.396   1_554 S
C312   H342    1.083   .     S
C312   C1254   1.395   .     S
C313   H349    1.083   .     S
C313   C420    1.400   .     S
C314   H350    1.083   .     S
C314   C622    1.383   .     S
C314   C521    1.401   1_455 S
C315   H351    1.082   .     S
C315   C317    1.399   .     A
C315   C619    1.383   .     S
C316   H352    1.084   .     S
C316   C318    1.399   .     A
C317   C416    1.401   .     S
C318   C517    1.400   1_455 S
C319   H353    1.078   .     S
C319   N356    1.365   .     A
C319   C321    1.441   .     A
C320   N355    1.358   .     A
C320   H354    1.078   .     S
C320   C322    1.417   .     A
C321   O387    1.398   .     S
C321   N355    1.374   .     A
C322   N356    1.376   .     A
C322   O398    1.384   .     S
C323   C325    1.469   .     S
C323   O363    1.295   .     A
C323   O463    1.297   .     S
C324   O364    1.293   .     A
C324   C326    1.467   .     S
C324   O566    1.299   1_455 S
C325   C329    1.397   .     A
C325   C331    1.394   .     A
C326   C330    1.397   .     A
C326   C332    1.397   .     A
C327   C335    1.415   .     A
C327   C329    1.408   .     A
C327   O467    1.392   .     S
C328   C330    1.397   .     A
C328   C336    1.416   .     A
C328   O580    1.384   1_455 S
C329   H448    1.081   .     S
C330   H549    1.083   1_455 S
C331   H344    1.075   .     S
C331   C333    1.403   .     A
C332   H343    1.077   .     S
C332   C334    1.404   .     A
C333   C335    1.421   .     A
C333   C337    1.428   .     A
C334   C338    1.427   .     A
C334   C336    1.419   .     A
C335   C1229   1.396   .     S
C336   C1230   1.395   1_554 S
C337   C1256   1.422   .     S
C338   C1255   1.422   1_554 S
Cu339  O361    1.951   .     S
Cu339  O364    1.936   .     S
Cu339  N355    2.014   .     S
Cu339  O357    1.960   .     S
Cu339  O360    1.957   .     S
Cu339  Cu544   2.680   1_455 S
Cu340  O362    1.951   .     S
Cu340  O363    1.936   .     S
Cu340  N356    2.014   .     S
Cu340  O358    1.960   .     S
Cu340  O359    1.957   .     S
Cu340  Cu441   2.680   .     S
H345   C432    1.083   .     S
H346   C533    1.081   1_455 S
O359   C409    1.290   .     S
O360   C512    1.289   1_455 S
O361   C527    1.297   1_455 S
O362   C426    1.299   .     S
O365   C366    1.414   .     S
O365   C531    1.392   1_455 S
C366   C369    1.527   .     S
C366   H368    1.117   .     S
C366   H367    1.112   .     S
C369   C372    1.526   .     S
C369   H1288   1.110   .     S
C369   H1289   1.110   .     S
H370   C1287   1.110   1_554 S
H371   C1287   1.110   1_554 S
C372   H373    1.111   .     S
C372   H375    1.111   .     S
C372   H1292   1.110   .     S
H374   C1290   1.110   1_554 S
O376   C430    1.384   .     S
O376   C479    1.417   .     S
C377   H379    1.118   .     S
C377   O580    1.417   1_455 S
C377   H1296   1.111   1_554 S
C377   C584    1.529   1_455 S
H378   C1295   1.111   .     S
C380   H382    1.111   .     S
C380   C383    1.525   .     S
C380   H381    1.112   .     S
C380   C479    1.529   .     S
C383   H792    1.110   .     S
C383   H691    1.110   .     S
C383   H692    1.111   .     S
H384   C281    1.110   1_455 S
O387   C388    1.413   .     S
C388   H390    1.111   .     S
C388   C391    1.536   .     S
C388   H389    1.110   .     S
C391   H392    1.111   .     S
C391   C394    1.525   .     S
C391   H393    1.109   .     S
C394   H397    1.111   .     S
C394   H395    1.111   .     S
H396   C700    1.110   .     S
O398   C399    1.420   .     S
C399   H400    1.110   .     S
C399   H401    1.117   .     S
C399   C402    1.533   .     S
C402   C405    1.527   .     S
C402   H404    1.106   .     S
C402   H403    1.108   .     S
C405   H712    1.111   .     S
C405   H713    1.110   .     S
C405   H714    1.111   .     S
C409   C420    1.445   .     S
C409   O459    1.291   .     A
C410   C419    1.446   .     S
C410   O460    1.293   .     A
C410   O564    1.289   .     S
C411   H449    1.077   .     S
C411   C413    1.387   .     A
C411   C440    1.415   .     A
C412   C414    1.386   .     A
C412   H450    1.076   .     S
C412   C439    1.416   .     A
C413   H443    1.084   .     S
C413   C1355   1.396   1_554 S
C414   H444    1.083   .     S
C414   C1356   1.395   .     S
C415   H451    1.083   .     S
C415   C522    1.400   .     S
C416   H452    1.083   .     S
C416   C724    1.383   .     S
C417   H453    1.082   .     S
C417   C419    1.399   .     A
C417   C721    1.383   .     S
C418   H454    1.084   .     S
C418   C420    1.399   .     A
C419   C518    1.401   .     S
C421   H455    1.078   .     S
C421   N458    1.365   .     A
C421   C423    1.441   .     A
C422   N457    1.358   .     A
C422   H456    1.078   .     S
C422   C424    1.417   .     A
C423   O489    1.398   .     S
C423   N457    1.374   .     A
C424   N458    1.376   .     A
C424   O500    1.384   .     S
C425   C427    1.469   .     S
C425   O465    1.295   .     A
C425   O565    1.297   .     S
C426   O466    1.293   .     A
C426   C428    1.467   .     S
C427   C431    1.397   .     A
C427   C433    1.394   .     A
C428   C432    1.397   .     A
C428   C434    1.397   .     A
C429   C437    1.415   .     A
C429   C431    1.408   .     A
C429   O569    1.392   .     S
C430   C432    1.397   .     A
C430   C438    1.416   .     A
C431   H550    1.081   .     S
C433   H446    1.075   .     S
C433   C435    1.403   .     A
C434   H445    1.077   .     S
C434   C436    1.404   .     A
C435   C437    1.421   .     A
C435   C439    1.428   .     A
C436   C440    1.427   .     A
C436   C438    1.419   .     A
C437   C1331   1.396   .     S
C438   C1332   1.395   1_554 S
C439   C1358   1.422   .     S
C440   C1357   1.422   1_554 S
Cu441  O463    1.951   .     S
Cu441  O466    1.936   .     S
Cu441  N457    2.014   .     S
Cu441  O459    1.960   .     S
Cu441  O462    1.957   .     S
Cu442  O464    1.951   .     S
Cu442  O465    1.936   .     S
Cu442  N458    2.014   .     S
Cu442  O460    1.960   .     S
Cu442  O461    1.957   .     S
Cu442  Cu543   2.680   .     S
H447   C534    1.083   .     S
O461   C511    1.290   .     S
O464   C528    1.299   .     S
O467   C468    1.414   .     S
C468   C471    1.527   .     S
C468   H470    1.117   .     S
C468   H469    1.112   .     S
C471   C474    1.526   .     S
C471   H1390   1.110   .     S
C471   H1391   1.110   .     S
H472   C1389   1.110   1_554 S
H473   C1389   1.110   1_554 S
C474   H475    1.111   .     S
C474   H477    1.111   .     S
C474   H1394   1.110   .     S
H476   C1392   1.110   1_554 S
O478   C532    1.384   .     S
O478   C581    1.417   .     S
C479   H481    1.118   .     S
C479   H1398   1.111   1_554 S
H480   C1397   1.111   .     S
C482   H484    1.111   .     S
C482   C485    1.525   .     S
C482   H483    1.112   .     S
C482   C581    1.529   .     S
C485   H894    1.110   .     S
C485   H793    1.110   .     S
C485   H794    1.111   .     S
O489   C490    1.413   .     S
C490   H492    1.111   .     S
C490   C493    1.536   .     S
C490   H491    1.110   .     S
C493   H494    1.111   .     S
C493   C496    1.525   .     S
C493   H495    1.109   .     S
C496   H499    1.111   .     S
C496   H497    1.111   .     S
H498   C802    1.110   .     S
O500   C501    1.420   .     S
C501   H502    1.110   .     S
C501   H503    1.117   .     S
C501   C504    1.533   .     S
C504   C507    1.527   .     S
C504   H506    1.106   .     S
C504   H505    1.108   .     S
C507   H814    1.111   .     S
C507   H815    1.110   .     S
C507   H816    1.111   .     S
C511   C522    1.445   .     S
C511   O561    1.291   .     A
C512   C521    1.446   .     S
C512   O562    1.293   .     A
C512   O360    1.289   1_655 S
C513   H551    1.077   .     S
C513   C515    1.387   .     A
C513   C542    1.415   .     A
C514   C516    1.386   .     A
C514   H552    1.076   .     S
C514   C541    1.416   .     A
C515   H545    1.084   .     S
C515   C1457   1.396   1_554 S
C516   H546    1.083   .     S
C516   C1458   1.395   .     S
C517   H553    1.083   .     S
C517   C318    1.400   1_655 S
C518   H554    1.083   .     S
C518   C826    1.383   .     S
C519   H555    1.082   .     S
C519   C521    1.399   .     A
C519   C823    1.383   .     S
C520   H556    1.084   .     S
C520   C522    1.399   .     A
C521   C314    1.401   1_655 S
C523   H557    1.078   .     S
C523   N560    1.365   .     A
C523   C525    1.441   .     A
C524   N559    1.358   .     A
C524   H558    1.078   .     S
C524   C526    1.417   .     A
C525   O591    1.398   .     S
C525   N559    1.374   .     A
C526   N560    1.376   .     A
C526   O602    1.384   .     S
C527   C529    1.469   .     S
C527   O567    1.295   .     A
C527   O361    1.297   1_655 S
C528   O568    1.293   .     A
C528   C530    1.467   .     S
C529   C533    1.397   .     A
C529   C535    1.394   .     A
C530   C534    1.397   .     A
C530   C536    1.397   .     A
C531   C539    1.415   .     A
C531   C533    1.408   .     A
C531   O365    1.392   1_655 S
C532   C534    1.397   .     A
C532   C540    1.416   .     A
C533   H346    1.081   1_655 S
C535   H548    1.075   .     S
C535   C537    1.403   .     A
C536   H547    1.077   .     S
C536   C538    1.404   .     A
C537   C539    1.421   .     A
C537   C541    1.428   .     A
C538   C542    1.427   .     A
C538   C540    1.419   .     A
C539   C1433   1.396   .     S
C540   C1434   1.395   1_554 S
C541   C1460   1.422   .     S
C542   C1459   1.422   1_554 S
Cu543  O565    1.951   .     S
Cu543  O568    1.936   .     S
Cu543  N559    2.014   .     S
Cu543  O561    1.960   .     S
Cu543  O564    1.957   .     S
Cu544  O566    1.951   .     S
Cu544  O567    1.936   .     S
Cu544  N560    2.014   .     S
Cu544  O562    1.960   .     S
Cu544  O563    1.957   .     S
Cu544  Cu339   2.680   1_655 S
H549   C330    1.083   1_655 S
O563   C307    1.290   1_655 S
O566   C324    1.299   1_655 S
O569   C570    1.414   .     S
C570   C573    1.527   .     S
C570   H572    1.117   .     S
C570   H571    1.112   .     S
C573   C576    1.526   .     S
C573   H1492   1.110   .     S
C573   H1493   1.110   .     S
H574   C1491   1.110   1_554 S
H575   C1491   1.110   1_554 S
C576   H577    1.111   .     S
C576   H579    1.111   .     S
C576   H1496   1.110   .     S
H578   C1494   1.110   1_554 S
O580   C328    1.384   1_655 S
O580   C377    1.417   1_655 S
C581   H583    1.118   .     S
C581   H1500   1.111   1_554 S
H582   C1499   1.111   .     S
C584   H586    1.111   .     S
C584   C587    1.525   .     S
C584   H585    1.112   .     S
C584   C377    1.529   1_655 S
C587   H690    1.110   1_655 S
C587   H895    1.110   .     S
C587   H896    1.111   .     S
O591   C592    1.413   .     S
C592   H594    1.111   .     S
C592   C595    1.536   .     S
C592   H593    1.110   .     S
C595   H596    1.111   .     S
C595   C598    1.525   .     S
C595   H597    1.109   .     S
C598   H601    1.111   .     S
C598   H599    1.111   .     S
H600   C904    1.110   .     S
O602   C603    1.420   .     S
C603   H604    1.110   .     S
C603   H605    1.117   .     S
C603   C606    1.533   .     S
C606   C609    1.527   .     S
C606   H608    1.106   .     S
C606   H607    1.108   .     S
C609   H916    1.111   .     S
C609   H917    1.110   .     S
C609   H918    1.111   .     S
C613   C624    1.445   .     S
C613   O663    1.291   .     A
C613   O869    1.290   1_455 S
C614   C623    1.446   .     S
C614   O664    1.293   .     A
C614   O768    1.289   .     S
C615   H653    1.077   .     S
C615   C617    1.387   .     A
C615   C644    1.415   .     A
C616   C618    1.386   .     A
C616   H654    1.076   .     S
C616   C643    1.416   .     A
C617   H647    1.084   .     S
C617   C1559   1.396   1_554 S
C618   H648    1.083   .     S
C618   C1560   1.395   .     S
C619   H655    1.083   .     S
C619   C726    1.400   .     S
C620   H656    1.083   .     S
C620   C10     1.383   1_565 S
C620   C827    1.401   1_455 S
C621   H657    1.082   .     S
C621   C623    1.399   .     A
C621   C7      1.383   1_565 S
C622   H658    1.084   .     S
C622   C624    1.399   .     A
C623   C722    1.401   .     S
C624   C823    1.400   1_455 S
C625   H659    1.078   .     S
C625   N662    1.365   .     A
C625   C627    1.441   .     A
C626   N661    1.358   .     A
C626   H660    1.078   .     S
C626   C628    1.417   .     A
C627   O693    1.398   .     S
C627   N661    1.374   .     A
C628   N662    1.376   .     A
C628   O704    1.384   .     S
C629   C631    1.469   .     S
C629   O669    1.295   .     A
C629   O769    1.297   .     S
C630   O670    1.293   .     A
C630   C632    1.467   .     S
C630   O872    1.299   1_455 S
C631   C635    1.397   .     A
C631   C637    1.394   .     A
C632   C636    1.397   .     A
C632   C638    1.397   .     A
C633   C641    1.415   .     A
C633   C635    1.408   .     A
C633   O773    1.392   .     S
C634   C636    1.397   .     A
C634   C642    1.416   .     A
C634   O886    1.384   1_455 S
C635   H754    1.081   .     S
C636   H855    1.083   1_455 S
C637   H650    1.075   .     S
C637   C639    1.403   .     A
C638   H649    1.077   .     S
C638   C640    1.404   .     A
C639   C641    1.421   .     A
C639   C643    1.428   .     A
C640   C644    1.427   .     A
C640   C642    1.419   .     A
C641   C1535   1.396   .     S
C642   C1536   1.395   1_554 S
C643   C1562   1.422   .     S
C644   C1561   1.422   1_554 S
Cu645  O667    1.951   .     S
Cu645  O670    1.936   .     S
Cu645  N661    2.014   .     S
Cu645  O663    1.960   .     S
Cu645  O666    1.957   .     S
Cu645  Cu850   2.680   1_455 S
Cu646  O668    1.951   .     S
Cu646  O669    1.936   .     S
Cu646  N662    2.014   .     S
Cu646  O664    1.960   .     S
Cu646  O665    1.957   .     S
Cu646  Cu747   2.680   .     S
H651   C738    1.083   .     S
H652   C839    1.081   1_455 S
O665   C715    1.290   .     S
O666   C818    1.289   1_455 S
O667   C833    1.297   1_455 S
O668   C732    1.299   .     S
O671   C672    1.414   .     S
O671   C837    1.392   1_455 S
C672   C675    1.527   .     S
C672   H674    1.117   .     S
C672   H673    1.112   .     S
C675   C678    1.526   .     S
C675   H1594   1.110   .     S
C675   H1595   1.110   .     S
H676   C1593   1.110   1_554 S
H677   C1593   1.110   1_554 S
C678   H679    1.111   .     S
C678   H681    1.111   .     S
C678   H1598   1.110   .     S
H680   C1596   1.110   1_554 S
O682   C736    1.384   .     S
O682   C785    1.417   .     S
C683   H685    1.118   .     S
C683   O886    1.417   1_455 S
C683   H1602   1.111   1_554 S
C683   C890    1.529   1_455 S
H684   C1601   1.111   .     S
C686   H688    1.111   .     S
C686   C689    1.525   .     S
C686   H687    1.112   .     S
C686   C785    1.529   .     S
C689   H180    1.110   1_565 S
C689   H79     1.110   1_565 S
C689   H80     1.111   1_565 S
H690   C587    1.110   1_455 S
O693   C694    1.413   .     S
C694   H696    1.111   .     S
C694   C697    1.536   .     S
C694   H695    1.110   .     S
C697   H698    1.111   .     S
C697   C700    1.525   .     S
C697   H699    1.109   .     S
C700   H703    1.111   .     S
C700   H701    1.111   .     S
H702   C88     1.110   1_565 S
O704   C705    1.420   .     S
C705   H706    1.110   .     S
C705   H707    1.117   .     S
C705   C708    1.533   .     S
C708   C711    1.527   .     S
C708   H710    1.106   .     S
C708   H709    1.108   .     S
C711   H100    1.111   1_565 S
C711   H101    1.110   1_565 S
C711   H102    1.111   1_565 S
C715   C726    1.445   .     S
C715   O765    1.291   .     A
C716   C725    1.446   .     S
C716   O766    1.293   .     A
C716   O870    1.289   .     S
C717   H755    1.077   .     S
C717   C719    1.387   .     A
C717   C746    1.415   .     A
C718   C720    1.386   .     A
C718   H756    1.076   .     S
C718   C745    1.416   .     A
C719   H749    1.084   .     S
C719   C1661   1.396   1_554 S
C720   H750    1.083   .     S
C720   C1662   1.395   .     S
C721   H757    1.083   .     S
C721   C828    1.400   .     S
C722   H758    1.083   .     S
C722   C112    1.383   1_565 S
C723   H759    1.082   .     S
C723   C725    1.399   .     A
C723   C109    1.383   1_565 S
C724   H760    1.084   .     S
C724   C726    1.399   .     A
C725   C824    1.401   .     S
C727   H761    1.078   .     S
C727   N764    1.365   .     A
C727   C729    1.441   .     A
C728   N763    1.358   .     A
C728   H762    1.078   .     S
C728   C730    1.417   .     A
C729   O795    1.398   .     S
C729   N763    1.374   .     A
C730   N764    1.376   .     A
C730   O806    1.384   .     S
C731   C733    1.469   .     S
C731   O771    1.295   .     A
C731   O871    1.297   .     S
C732   O772    1.293   .     A
C732   C734    1.467   .     S
C733   C737    1.397   .     A
C733   C739    1.394   .     A
C734   C738    1.397   .     A
C734   C740    1.397   .     A
C735   C743    1.415   .     A
C735   C737    1.408   .     A
C735   O875    1.392   .     S
C736   C738    1.397   .     A
C736   C744    1.416   .     A
C737   H856    1.081   .     S
C739   H752    1.075   .     S
C739   C741    1.403   .     A
C740   H751    1.077   .     S
C740   C742    1.404   .     A
C741   C743    1.421   .     A
C741   C745    1.428   .     A
C742   C746    1.427   .     A
C742   C744    1.419   .     A
C743   C1637   1.396   .     S
C744   C1638   1.395   1_554 S
C745   C1664   1.422   .     S
C746   C1663   1.422   1_554 S
Cu747  O769    1.951   .     S
Cu747  O772    1.936   .     S
Cu747  N763    2.014   .     S
Cu747  O765    1.960   .     S
Cu747  O768    1.957   .     S
Cu748  O770    1.951   .     S
Cu748  O771    1.936   .     S
Cu748  N764    2.014   .     S
Cu748  O766    1.960   .     S
Cu748  O767    1.957   .     S
Cu748  Cu849   2.680   .     S
H753   C840    1.083   .     S
O767   C817    1.290   .     S
O770   C834    1.299   .     S
O773   C774    1.414   .     S
C774   C777    1.527   .     S
C774   H776    1.117   .     S
C774   H775    1.112   .     S
C777   C780    1.526   .     S
C777   H1696   1.110   .     S
C777   H1697   1.110   .     S
H778   C1695   1.110   1_554 S
H779   C1695   1.110   1_554 S
C780   H781    1.111   .     S
C780   H783    1.111   .     S
C780   H1700   1.110   .     S
H782   C1698   1.110   1_554 S
O784   C838    1.384   .     S
O784   C887    1.417   .     S
C785   H787    1.118   .     S
C785   H1704   1.111   1_554 S
H786   C1703   1.111   .     S
C788   H790    1.111   .     S
C788   C791    1.525   .     S
C788   H789    1.112   .     S
C788   C887    1.529   .     S
C791   H282    1.110   1_565 S
C791   H181    1.110   1_565 S
C791   H182    1.111   1_565 S
O795   C796    1.413   .     S
C796   H798    1.111   .     S
C796   C799    1.536   .     S
C796   H797    1.110   .     S
C799   H800    1.111   .     S
C799   C802    1.525   .     S
C799   H801    1.109   .     S
C802   H805    1.111   .     S
C802   H803    1.111   .     S
H804   C190    1.110   1_565 S
O806   C807    1.420   .     S
C807   H808    1.110   .     S
C807   H809    1.117   .     S
C807   C810    1.533   .     S
C810   C813    1.527   .     S
C810   H812    1.106   .     S
C810   H811    1.108   .     S
C813   H202    1.111   1_565 S
C813   H203    1.110   1_565 S
C813   H204    1.111   1_565 S
C817   C828    1.445   .     S
C817   O867    1.291   .     A
C818   C827    1.446   .     S
C818   O868    1.293   .     A
C818   O666    1.289   1_655 S
C819   H857    1.077   .     S
C819   C821    1.387   .     A
C819   C848    1.415   .     A
C820   C822    1.386   .     A
C820   H858    1.076   .     S
C820   C847    1.416   .     A
C821   H851    1.084   .     S
C821   C1763   1.396   1_554 S
C822   H852    1.083   .     S
C822   C1764   1.395   .     S
C823   H859    1.083   .     S
C823   C624    1.400   1_655 S
C824   H860    1.083   .     S
C824   C214    1.383   1_565 S
C825   H861    1.082   .     S
C825   C827    1.399   .     A
C825   C211    1.383   1_565 S
C826   H862    1.084   .     S
C826   C828    1.399   .     A
C827   C620    1.401   1_655 S
C829   H863    1.078   .     S
C829   N866    1.365   .     A
C829   C831    1.441   .     A
C830   N865    1.358   .     A
C830   H864    1.078   .     S
C830   C832    1.417   .     A
C831   O897    1.398   .     S
C831   N865    1.374   .     A
C832   N866    1.376   .     A
C832   O908    1.384   .     S
C833   C835    1.469   .     S
C833   O873    1.295   .     A
C833   O667    1.297   1_655 S
C834   O874    1.293   .     A
C834   C836    1.467   .     S
C835   C839    1.397   .     A
C835   C841    1.394   .     A
C836   C840    1.397   .     A
C836   C842    1.397   .     A
C837   C845    1.415   .     A
C837   C839    1.408   .     A
C837   O671    1.392   1_655 S
C838   C840    1.397   .     A
C838   C846    1.416   .     A
C839   H652    1.081   1_655 S
C841   H854    1.075   .     S
C841   C843    1.403   .     A
C842   H853    1.077   .     S
C842   C844    1.404   .     A
C843   C845    1.421   .     A
C843   C847    1.428   .     A
C844   C848    1.427   .     A
C844   C846    1.419   .     A
C845   C1739   1.396   .     S
C846   C1740   1.395   1_554 S
C847   C1766   1.422   .     S
C848   C1765   1.422   1_554 S
Cu849  O871    1.951   .     S
Cu849  O874    1.936   .     S
Cu849  N865    2.014   .     S
Cu849  O867    1.960   .     S
Cu849  O870    1.957   .     S
Cu850  O872    1.951   .     S
Cu850  O873    1.936   .     S
Cu850  N866    2.014   .     S
Cu850  O868    1.960   .     S
Cu850  O869    1.957   .     S
Cu850  Cu645   2.680   1_655 S
H855   C636    1.083   1_655 S
O869   C613    1.290   1_655 S
O872   C630    1.299   1_655 S
O875   C876    1.414   .     S
C876   C879    1.527   .     S
C876   H878    1.117   .     S
C876   H877    1.112   .     S
C879   C882    1.526   .     S
C879   H1798   1.110   .     S
C879   H1799   1.110   .     S
H880   C1797   1.110   1_554 S
H881   C1797   1.110   1_554 S
C882   H883    1.111   .     S
C882   H885    1.111   .     S
C882   H1802   1.110   .     S
H884   C1800   1.110   1_554 S
O886   C634    1.384   1_655 S
O886   C683    1.417   1_655 S
C887   H889    1.118   .     S
C887   H1806   1.111   1_554 S
H888   C1805   1.111   .     S
C890   H892    1.111   .     S
C890   C893    1.525   .     S
C890   H891    1.112   .     S
C890   C683    1.529   1_655 S
C893   H78     1.110   1_665 S
C893   H283    1.110   1_565 S
C893   H284    1.111   1_565 S
O897   C898    1.413   .     S
C898   H900    1.111   .     S
C898   C901    1.536   .     S
C898   H899    1.110   .     S
C901   H902    1.111   .     S
C901   C904    1.525   .     S
C901   H903    1.109   .     S
C904   H907    1.111   .     S
C904   H905    1.111   .     S
H906   C292    1.110   1_565 S
O908   C909    1.420   .     S
C909   H910    1.110   .     S
C909   H911    1.117   .     S
C909   C912    1.533   .     S
C912   C915    1.527   .     S
C912   H914    1.106   .     S
C912   H913    1.108   .     S
C915   H304    1.111   1_565 S
C915   H305    1.110   1_565 S
C915   H306    1.111   1_565 S
C919   C930    1.445   .     S
C919   O969    1.291   .     A
C919   O1175   1.290   1_455 S
C920   C929    1.446   .     S
C920   O970    1.293   .     A
C920   O1074   1.289   .     S
C921   H959    1.077   .     S
C921   C923    1.387   .     A
C921   C950    1.415   .     A
C922   C924    1.386   .     A
C922   H960    1.076   .     S
C922   C949    1.416   .     A
C923   H953    1.084   .     S
C924   H954    1.083   .     S
C924   C30     1.395   1_556 S
C925   H961    1.083   .     S
C925   C1539   1.383   1_545 S
C925   C1032   1.400   .     S
C926   H962    1.083   .     S
C926   C1234   1.383   .     S
C926   C1133   1.401   1_455 S
C927   H963    1.082   .     S
C927   C929    1.399   .     A
C927   C1231   1.383   .     S
C928   H964    1.084   .     S
C928   C930    1.399   .     A
C928   C1538   1.383   1_545 S
C929   C1028   1.401   .     S
C930   C1129   1.400   1_455 S
C931   H965    1.078   .     S
C931   N968    1.365   .     A
C931   C933    1.441   .     A
C932   N967    1.358   .     A
C932   H966    1.078   .     S
C932   C934    1.417   .     A
C933   O999    1.398   .     S
C933   N967    1.374   .     A
C934   N968    1.376   .     A
C934   O1010   1.384   .     S
C935   C937    1.469   .     S
C935   O975    1.295   .     A
C935   O1075   1.297   .     S
C936   O976    1.293   .     A
C936   C938    1.467   .     S
C936   O1178   1.299   1_455 S
C937   C941    1.397   .     A
C937   C943    1.394   .     A
C938   C942    1.397   .     A
C938   C944    1.397   .     A
C939   C947    1.415   .     A
C939   C941    1.408   .     A
C939   O1079   1.392   .     S
C940   C942    1.397   .     A
C940   C948    1.416   .     A
C940   O1192   1.384   1_455 S
C941   H1060   1.081   .     S
C942   H1161   1.083   1_455 S
C943   H956    1.075   .     S
C943   C945    1.403   .     A
C944   H955    1.077   .     S
C944   C946    1.404   .     A
C945   C947    1.421   .     A
C945   C949    1.428   .     A
C946   C950    1.427   .     A
C946   C948    1.419   .     A
C947   C5      1.396   1_556 S
C949   C32     1.422   1_556 S
Cu951  O973    1.951   .     S
Cu951  O976    1.936   .     S
Cu951  N967    2.014   .     S
Cu951  O969    1.960   .     S
Cu951  O972    1.957   .     S
Cu951  Cu1156  2.680   1_455 S
Cu952  O974    1.951   .     S
Cu952  O975    1.936   .     S
Cu952  N968    2.014   .     S
Cu952  O970    1.960   .     S
Cu952  O971    1.957   .     S
Cu952  Cu1053  2.680   .     S
H957   C1044   1.083   .     S
H958   C1145   1.081   1_455 S
O971   C1021   1.290   .     S
O972   C1124   1.289   1_455 S
O973   C1139   1.297   1_455 S
O974   C1038   1.299   .     S
O977   C978    1.414   .     S
O977   C1143   1.392   1_455 S
C978   C981    1.527   .     S
C978   H980    1.117   .     S
C978   H979    1.112   .     S
C981   C984    1.526   .     S
C981   H64     1.110   1_556 S
C981   H65     1.110   1_556 S
C984   H985    1.111   .     S
C984   H987    1.111   .     S
C984   H68     1.110   1_556 S
O988   C1042   1.384   .     S
O988   C1091   1.417   .     S
C989   H991    1.118   .     S
C989   O1192   1.417   1_455 S
C989   C1196   1.529   1_455 S
H990   C71     1.111   1_556 S
C992   H994    1.111   .     S
C992   C995    1.525   .     S
C992   H993    1.112   .     S
C992   C1091   1.529   .     S
C995   H1404   1.110   .     S
C995   H1303   1.110   .     S
C995   H1304   1.111   .     S
H996   C1811   1.110   1_445 S
H997   C1607   1.110   1_545 S
H998   C1607   1.111   1_545 S
O999   C1000   1.413   .     S
C1000  H1002   1.111   .     S
C1000  C1003   1.536   .     S
C1000  H1001   1.110   .     S
C1003  H1004   1.111   .     S
C1003  C1006   1.525   .     S
C1003  H1005   1.109   .     S
C1006  H1009   1.111   .     S
C1006  H1007   1.111   .     S
C1006  H1620   1.110   1_545 S
H1008  C1312   1.110   .     S
O1010  C1011   1.420   .     S
C1011  H1012   1.110   .     S
C1011  H1013   1.117   .     S
C1011  C1014   1.533   .     S
C1014  C1017   1.527   .     S
C1014  H1016   1.106   .     S
C1014  H1015   1.108   .     S
C1017  H1324   1.111   .     S
C1017  H1325   1.110   .     S
C1017  H1326   1.111   .     S
H1018  C1629   1.111   1_545 S
H1019  C1629   1.110   1_545 S
H1020  C1629   1.111   1_545 S
C1021  C1032   1.445   .     S
C1021  O1071   1.291   .     A
C1022  C1031   1.446   .     S
C1022  O1072   1.293   .     A
C1022  O1176   1.289   .     S
C1023  H1061   1.077   .     S
C1023  C1025   1.387   .     A
C1023  C1052   1.415   .     A
C1024  C1026   1.386   .     A
C1024  H1062   1.076   .     S
C1024  C1051   1.416   .     A
C1025  H1055   1.084   .     S
C1026  H1056   1.083   .     S
C1026  C132    1.395   1_556 S
C1027  H1063   1.083   .     S
C1027  C1641   1.383   1_545 S
C1027  C1134   1.400   .     S
C1028  H1064   1.083   .     S
C1028  C1336   1.383   .     S
C1029  H1065   1.082   .     S
C1029  C1031   1.399   .     A
C1029  C1333   1.383   .     S
C1030  H1066   1.084   .     S
C1030  C1032   1.399   .     A
C1030  C1640   1.383   1_545 S
C1031  C1130   1.401   .     S
C1033  H1067   1.078   .     S
C1033  N1070   1.365   .     A
C1033  C1035   1.441   .     A
C1034  N1069   1.358   .     A
C1034  H1068   1.078   .     S
C1034  C1036   1.417   .     A
C1035  O1101   1.398   .     S
C1035  N1069   1.374   .     A
C1036  N1070   1.376   .     A
C1036  O1112   1.384   .     S
C1037  C1039   1.469   .     S
C1037  O1077   1.295   .     A
C1037  O1177   1.297   .     S
C1038  O1078   1.293   .     A
C1038  C1040   1.467   .     S
C1039  C1043   1.397   .     A
C1039  C1045   1.394   .     A
C1040  C1044   1.397   .     A
C1040  C1046   1.397   .     A
C1041  C1049   1.415   .     A
C1041  C1043   1.408   .     A
C1041  O1181   1.392   .     S
C1042  C1044   1.397   .     A
C1042  C1050   1.416   .     A
C1043  H1162   1.081   .     S
C1045  H1058   1.075   .     S
C1045  C1047   1.403   .     A
C1046  H1057   1.077   .     S
C1046  C1048   1.404   .     A
C1047  C1049   1.421   .     A
C1047  C1051   1.428   .     A
C1048  C1052   1.427   .     A
C1048  C1050   1.419   .     A
C1049  C107    1.396   1_556 S
C1051  C134    1.422   1_556 S
Cu1053 O1075   1.951   .     S
Cu1053 O1078   1.936   .     S
Cu1053 N1069   2.014   .     S
Cu1053 O1071   1.960   .     S
Cu1053 O1074   1.957   .     S
Cu1054 O1076   1.951   .     S
Cu1054 O1077   1.936   .     S
Cu1054 N1070   2.014   .     S
Cu1054 O1072   1.960   .     S
Cu1054 O1073   1.957   .     S
Cu1054 Cu1155  2.680   .     S
H1059  C1146   1.083   .     S
O1073  C1123   1.290   .     S
O1076  C1140   1.299   .     S
O1079  C1080   1.414   .     S
C1080  C1083   1.527   .     S
C1080  H1082   1.117   .     S
C1080  H1081   1.112   .     S
C1083  C1086   1.526   .     S
C1083  H166    1.110   1_556 S
C1083  H167    1.110   1_556 S
C1086  H1087   1.111   .     S
C1086  H1089   1.111   .     S
C1086  H170    1.110   1_556 S
O1090  C1144   1.384   .     S
O1090  C1193   1.417   .     S
C1091  H1093   1.118   .     S
H1092  C173    1.111   1_556 S
C1094  H1096   1.111   .     S
C1094  C1097   1.525   .     S
C1094  H1095   1.112   .     S
C1094  C1193   1.529   .     S
C1097  H1506   1.110   .     S
C1097  H1405   1.110   .     S
C1097  H1406   1.111   .     S
H1098  C1607   1.110   1_545 S
H1099  C1709   1.110   1_545 S
H1100  C1709   1.111   1_545 S
O1101  C1102   1.413   .     S
C1102  H1104   1.111   .     S
C1102  C1105   1.536   .     S
C1102  H1103   1.110   .     S
C1105  H1106   1.111   .     S
C1105  C1108   1.525   .     S
C1105  H1107   1.109   .     S
C1108  H1111   1.111   .     S
C1108  H1109   1.111   .     S
C1108  H1722   1.110   1_545 S
H1110  C1414   1.110   .     S
O1112  C1113   1.420   .     S
C1113  H1114   1.110   .     S
C1113  H1115   1.117   .     S
C1113  C1116   1.533   .     S
C1116  C1119   1.527   .     S
C1116  H1118   1.106   .     S
C1116  H1117   1.108   .     S
C1119  H1426   1.111   .     S
C1119  H1427   1.110   .     S
C1119  H1428   1.111   .     S
H1120  C1731   1.111   1_545 S
H1121  C1731   1.110   1_545 S
H1122  C1731   1.111   1_545 S
C1123  C1134   1.445   .     S
C1123  O1173   1.291   .     A
C1124  C1133   1.446   .     S
C1124  O1174   1.293   .     A
C1124  O972    1.289   1_655 S
C1125  H1163   1.077   .     S
C1125  C1127   1.387   .     A
C1125  C1154   1.415   .     A
C1126  C1128   1.386   .     A
C1126  H1164   1.076   .     S
C1126  C1153   1.416   .     A
C1127  H1157   1.084   .     S
C1128  H1158   1.083   .     S
C1128  C234    1.395   1_556 S
C1129  H1165   1.083   .     S
C1129  C1743   1.383   1_545 S
C1129  C930    1.400   1_655 S
C1130  H1166   1.083   .     S
C1130  C1438   1.383   .     S
C1131  H1167   1.082   .     S
C1131  C1133   1.399   .     A
C1131  C1435   1.383   .     S
C1132  H1168   1.084   .     S
C1132  C1134   1.399   .     A
C1132  C1742   1.383   1_545 S
C1133  C926    1.401   1_655 S
C1135  H1169   1.078   .     S
C1135  N1172   1.365   .     A
C1135  C1137   1.441   .     A
C1136  N1171   1.358   .     A
C1136  H1170   1.078   .     S
C1136  C1138   1.417   .     A
C1137  O1203   1.398   .     S
C1137  N1171   1.374   .     A
C1138  N1172   1.376   .     A
C1138  O1214   1.384   .     S
C1139  C1141   1.469   .     S
C1139  O1179   1.295   .     A
C1139  O973    1.297   1_655 S
C1140  O1180   1.293   .     A
C1140  C1142   1.467   .     S
C1141  C1145   1.397   .     A
C1141  C1147   1.394   .     A
C1142  C1146   1.397   .     A
C1142  C1148   1.397   .     A
C1143  C1151   1.415   .     A
C1143  C1145   1.408   .     A
C1143  O977    1.392   1_655 S
C1144  C1146   1.397   .     A
C1144  C1152   1.416   .     A
C1145  H958    1.081   1_655 S
C1147  H1160   1.075   .     S
C1147  C1149   1.403   .     A
C1148  H1159   1.077   .     S
C1148  C1150   1.404   .     A
C1149  C1151   1.421   .     A
C1149  C1153   1.428   .     A
C1150  C1154   1.427   .     A
C1150  C1152   1.419   .     A
C1151  C209    1.396   1_556 S
C1153  C236    1.422   1_556 S
Cu1155 O1177   1.951   .     S
Cu1155 O1180   1.936   .     S
Cu1155 N1171   2.014   .     S
Cu1155 O1173   1.960   .     S
Cu1155 O1176   1.957   .     S
Cu1156 O1178   1.951   .     S
Cu1156 O1179   1.936   .     S
Cu1156 N1172   2.014   .     S
Cu1156 O1174   1.960   .     S
Cu1156 O1175   1.957   .     S
Cu1156 Cu951   2.680   1_655 S
H1161  C942    1.083   1_655 S
O1175  C919    1.290   1_655 S
O1178  C936    1.299   1_655 S
O1181  C1182   1.414   .     S
C1182  C1185   1.527   .     S
C1182  H1184   1.117   .     S
C1182  H1183   1.112   .     S
C1185  C1188   1.526   .     S
C1185  H268    1.110   1_556 S
C1185  H269    1.110   1_556 S
C1188  H1189   1.111   .     S
C1188  H1191   1.111   .     S
C1188  H272    1.110   1_556 S
O1192  C940    1.384   1_655 S
O1192  C989    1.417   1_655 S
C1193  H1195   1.118   .     S
H1194  C275    1.111   1_556 S
C1196  H1198   1.111   .     S
C1196  C1199   1.525   .     S
C1196  H1197   1.112   .     S
C1196  C989    1.529   1_655 S
C1199  H1302   1.110   1_655 S
C1199  H1507   1.110   .     S
C1199  H1508   1.111   .     S
H1200  C1709   1.110   1_545 S
H1201  C1811   1.110   1_545 S
H1202  C1811   1.111   1_545 S
O1203  C1204   1.413   .     S
C1204  H1206   1.111   .     S
C1204  C1207   1.536   .     S
C1204  H1205   1.110   .     S
C1207  H1208   1.111   .     S
C1207  C1210   1.525   .     S
C1207  H1209   1.109   .     S
C1210  H1213   1.111   .     S
C1210  H1211   1.111   .     S
C1210  H1824   1.110   1_545 S
H1212  C1516   1.110   .     S
O1214  C1215   1.420   .     S
C1215  H1216   1.110   .     S
C1215  H1217   1.117   .     S
C1215  C1218   1.533   .     S
C1218  C1221   1.527   .     S
C1218  H1220   1.106   .     S
C1218  H1219   1.108   .     S
C1221  H1528   1.111   .     S
C1221  H1529   1.110   .     S
C1221  H1530   1.111   .     S
H1222  C1833   1.111   1_545 S
H1223  C1833   1.110   1_545 S
H1224  C1833   1.111   1_545 S
C1225  C1236   1.445   .     S
C1225  O1275   1.291   .     A
C1225  O1481   1.290   1_455 S
C1226  C1235   1.446   .     S
C1226  O1276   1.293   .     A
C1226  O1380   1.289   .     S
C1227  H1265   1.077   .     S
C1227  C1229   1.387   .     A
C1227  C1256   1.415   .     A
C1228  C1230   1.386   .     A
C1228  H1266   1.076   .     S
C1228  C1255   1.416   .     A
C1229  H1259   1.084   .     S
C1230  H1260   1.083   .     S
C1230  C336    1.395   1_556 S
C1231  H1267   1.083   .     S
C1231  C1338   1.400   .     S
C1232  H1268   1.083   .     S
C1232  C1540   1.383   .     S
C1232  C1439   1.401   1_455 S
C1233  H1269   1.082   .     S
C1233  C1235   1.399   .     A
C1233  C1537   1.383   .     S
C1234  H1270   1.084   .     S
C1234  C1236   1.399   .     A
C1235  C1334   1.401   .     S
C1236  C1435   1.400   1_455 S
C1237  H1271   1.078   .     S
C1237  N1274   1.365   .     A
C1237  C1239   1.441   .     A
C1238  N1273   1.358   .     A
C1238  H1272   1.078   .     S
C1238  C1240   1.417   .     A
C1239  O1305   1.398   .     S
C1239  N1273   1.374   .     A
C1240  N1274   1.376   .     A
C1240  O1316   1.384   .     S
C1241  C1243   1.469   .     S
C1241  O1281   1.295   .     A
C1241  O1381   1.297   .     S
C1242  O1282   1.293   .     A
C1242  C1244   1.467   .     S
C1242  O1484   1.299   1_455 S
C1243  C1247   1.397   .     A
C1243  C1249   1.394   .     A
C1244  C1248   1.397   .     A
C1244  C1250   1.397   .     A
C1245  C1253   1.415   .     A
C1245  C1247   1.408   .     A
C1245  O1385   1.392   .     S
C1246  C1248   1.397   .     A
C1246  C1254   1.416   .     A
C1246  O1498   1.384   1_455 S
C1247  H1366   1.081   .     S
C1248  H1467   1.083   1_455 S
C1249  H1262   1.075   .     S
C1249  C1251   1.403   .     A
C1250  H1261   1.077   .     S
C1250  C1252   1.404   .     A
C1251  C1253   1.421   .     A
C1251  C1255   1.428   .     A
C1252  C1256   1.427   .     A
C1252  C1254   1.419   .     A
C1253  C311    1.396   1_556 S
C1255  C338    1.422   1_556 S
Cu1257 O1279   1.951   .     S
Cu1257 O1282   1.936   .     S
Cu1257 N1273   2.014   .     S
Cu1257 O1275   1.960   .     S
Cu1257 O1278   1.957   .     S
Cu1257 Cu1462  2.680   1_455 S
Cu1258 O1280   1.951   .     S
Cu1258 O1281   1.936   .     S
Cu1258 N1274   2.014   .     S
Cu1258 O1276   1.960   .     S
Cu1258 O1277   1.957   .     S
Cu1258 Cu1359  2.680   .     S
H1263  C1350   1.083   .     S
H1264  C1451   1.081   1_455 S
O1277  C1327   1.290   .     S
O1278  C1430   1.289   1_455 S
O1279  C1445   1.297   1_455 S
O1280  C1344   1.299   .     S
O1283  C1284   1.414   .     S
O1283  C1449   1.392   1_455 S
C1284  C1287   1.527   .     S
C1284  H1286   1.117   .     S
C1284  H1285   1.112   .     S
C1287  C1290   1.526   .     S
C1287  H370    1.110   1_556 S
C1287  H371    1.110   1_556 S
C1290  H1291   1.111   .     S
C1290  H1293   1.111   .     S
C1290  H374    1.110   1_556 S
O1294  C1348   1.384   .     S
O1294  C1397   1.417   .     S
C1295  H1297   1.118   .     S
C1295  O1498   1.417   1_455 S
C1295  C1502   1.529   1_455 S
H1296  C377    1.111   1_556 S
C1298  H1300   1.111   .     S
C1298  C1301   1.525   .     S
C1298  H1299   1.112   .     S
C1298  C1397   1.529   .     S
C1301  H1710   1.110   .     S
C1301  H1609   1.110   .     S
C1301  H1610   1.111   .     S
H1302  C1199   1.110   1_455 S
O1305  C1306   1.413   .     S
C1306  H1308   1.111   .     S
C1306  C1309   1.536   .     S
C1306  H1307   1.110   .     S
C1309  H1310   1.111   .     S
C1309  C1312   1.525   .     S
C1309  H1311   1.109   .     S
C1312  H1315   1.111   .     S
C1312  H1313   1.111   .     S
H1314  C1618   1.110   .     S
O1316  C1317   1.420   .     S
C1317  H1318   1.110   .     S
C1317  H1319   1.117   .     S
C1317  C1320   1.533   .     S
C1320  C1323   1.527   .     S
C1320  H1322   1.106   .     S
C1320  H1321   1.108   .     S
C1323  H1630   1.111   .     S
C1323  H1631   1.110   .     S
C1323  H1632   1.111   .     S
C1327  C1338   1.445   .     S
C1327  O1377   1.291   .     A
C1328  C1337   1.446   .     S
C1328  O1378   1.293   .     A
C1328  O1482   1.289   .     S
C1329  H1367   1.077   .     S
C1329  C1331   1.387   .     A
C1329  C1358   1.415   .     A
C1330  C1332   1.386   .     A
C1330  H1368   1.076   .     S
C1330  C1357   1.416   .     A
C1331  H1361   1.084   .     S
C1332  H1362   1.083   .     S
C1332  C438    1.395   1_556 S
C1333  H1369   1.083   .     S
C1333  C1440   1.400   .     S
C1334  H1370   1.083   .     S
C1334  C1642   1.383   .     S
C1335  H1371   1.082   .     S
C1335  C1337   1.399   .     A
C1335  C1639   1.383   .     S
C1336  H1372   1.084   .     S
C1336  C1338   1.399   .     A
C1337  C1436   1.401   .     S
C1339  H1373   1.078   .     S
C1339  N1376   1.365   .     A
C1339  C1341   1.441   .     A
C1340  N1375   1.358   .     A
C1340  H1374   1.078   .     S
C1340  C1342   1.417   .     A
C1341  O1407   1.398   .     S
C1341  N1375   1.374   .     A
C1342  N1376   1.376   .     A
C1342  O1418   1.384   .     S
C1343  C1345   1.469   .     S
C1343  O1383   1.295   .     A
C1343  O1483   1.297   .     S
C1344  O1384   1.293   .     A
C1344  C1346   1.467   .     S
C1345  C1349   1.397   .     A
C1345  C1351   1.394   .     A
C1346  C1350   1.397   .     A
C1346  C1352   1.397   .     A
C1347  C1355   1.415   .     A
C1347  C1349   1.408   .     A
C1347  O1487   1.392   .     S
C1348  C1350   1.397   .     A
C1348  C1356   1.416   .     A
C1349  H1468   1.081   .     S
C1351  H1364   1.075   .     S
C1351  C1353   1.403   .     A
C1352  H1363   1.077   .     S
C1352  C1354   1.404   .     A
C1353  C1355   1.421   .     A
C1353  C1357   1.428   .     A
C1354  C1358   1.427   .     A
C1354  C1356   1.419   .     A
C1355  C413    1.396   1_556 S
C1357  C440    1.422   1_556 S
Cu1359 O1381   1.951   .     S
Cu1359 O1384   1.936   .     S
Cu1359 N1375   2.014   .     S
Cu1359 O1377   1.960   .     S
Cu1359 O1380   1.957   .     S
Cu1360 O1382   1.951   .     S
Cu1360 O1383   1.936   .     S
Cu1360 N1376   2.014   .     S
Cu1360 O1378   1.960   .     S
Cu1360 O1379   1.957   .     S
Cu1360 Cu1461  2.680   .     S
H1365  C1452   1.083   .     S
O1379  C1429   1.290   .     S
O1382  C1446   1.299   .     S
O1385  C1386   1.414   .     S
C1386  C1389   1.527   .     S
C1386  H1388   1.117   .     S
C1386  H1387   1.112   .     S
C1389  C1392   1.526   .     S
C1389  H472    1.110   1_556 S
C1389  H473    1.110   1_556 S
C1392  H1393   1.111   .     S
C1392  H1395   1.111   .     S
C1392  H476    1.110   1_556 S
O1396  C1450   1.384   .     S
O1396  C1499   1.417   .     S
C1397  H1399   1.118   .     S
H1398  C479    1.111   1_556 S
C1400  H1402   1.111   .     S
C1400  C1403   1.525   .     S
C1400  H1401   1.112   .     S
C1400  C1499   1.529   .     S
C1403  H1812   1.110   .     S
C1403  H1711   1.110   .     S
C1403  H1712   1.111   .     S
O1407  C1408   1.413   .     S
C1408  H1410   1.111   .     S
C1408  C1411   1.536   .     S
C1408  H1409   1.110   .     S
C1411  H1412   1.111   .     S
C1411  C1414   1.525   .     S
C1411  H1413   1.109   .     S
C1414  H1417   1.111   .     S
C1414  H1415   1.111   .     S
H1416  C1720   1.110   .     S
O1418  C1419   1.420   .     S
C1419  H1420   1.110   .     S
C1419  H1421   1.117   .     S
C1419  C1422   1.533   .     S
C1422  C1425   1.527   .     S
C1422  H1424   1.106   .     S
C1422  H1423   1.108   .     S
C1425  H1732   1.111   .     S
C1425  H1733   1.110   .     S
C1425  H1734   1.111   .     S
C1429  C1440   1.445   .     S
C1429  O1479   1.291   .     A
C1430  C1439   1.446   .     S
C1430  O1480   1.293   .     A
C1430  O1278   1.289   1_655 S
C1431  H1469   1.077   .     S
C1431  C1433   1.387   .     A
C1431  C1460   1.415   .     A
C1432  C1434   1.386   .     A
C1432  H1470   1.076   .     S
C1432  C1459   1.416   .     A
C1433  H1463   1.084   .     S
C1434  H1464   1.083   .     S
C1434  C540    1.395   1_556 S
C1435  H1471   1.083   .     S
C1435  C1236   1.400   1_655 S
C1436  H1472   1.083   .     S
C1436  C1744   1.383   .     S
C1437  H1473   1.082   .     S
C1437  C1439   1.399   .     A
C1437  C1741   1.383   .     S
C1438  H1474   1.084   .     S
C1438  C1440   1.399   .     A
C1439  C1232   1.401   1_655 S
C1441  H1475   1.078   .     S
C1441  N1478   1.365   .     A
C1441  C1443   1.441   .     A
C1442  N1477   1.358   .     A
C1442  H1476   1.078   .     S
C1442  C1444   1.417   .     A
C1443  O1509   1.398   .     S
C1443  N1477   1.374   .     A
C1444  N1478   1.376   .     A
C1444  O1520   1.384   .     S
C1445  C1447   1.469   .     S
C1445  O1485   1.295   .     A
C1445  O1279   1.297   1_655 S
C1446  O1486   1.293   .     A
C1446  C1448   1.467   .     S
C1447  C1451   1.397   .     A
C1447  C1453   1.394   .     A
C1448  C1452   1.397   .     A
C1448  C1454   1.397   .     A
C1449  C1457   1.415   .     A
C1449  C1451   1.408   .     A
C1449  O1283   1.392   1_655 S
C1450  C1452   1.397   .     A
C1450  C1458   1.416   .     A
C1451  H1264   1.081   1_655 S
C1453  H1466   1.075   .     S
C1453  C1455   1.403   .     A
C1454  H1465   1.077   .     S
C1454  C1456   1.404   .     A
C1455  C1457   1.421   .     A
C1455  C1459   1.428   .     A
C1456  C1460   1.427   .     A
C1456  C1458   1.419   .     A
C1457  C515    1.396   1_556 S
C1459  C542    1.422   1_556 S
Cu1461 O1483   1.951   .     S
Cu1461 O1486   1.936   .     S
Cu1461 N1477   2.014   .     S
Cu1461 O1479   1.960   .     S
Cu1461 O1482   1.957   .     S
Cu1462 O1484   1.951   .     S
Cu1462 O1485   1.936   .     S
Cu1462 N1478   2.014   .     S
Cu1462 O1480   1.960   .     S
Cu1462 O1481   1.957   .     S
Cu1462 Cu1257  2.680   1_655 S
H1467  C1248   1.083   1_655 S
O1481  C1225   1.290   1_655 S
O1484  C1242   1.299   1_655 S
O1487  C1488   1.414   .     S
C1488  C1491   1.527   .     S
C1488  H1490   1.117   .     S
C1488  H1489   1.112   .     S
C1491  C1494   1.526   .     S
C1491  H574    1.110   1_556 S
C1491  H575    1.110   1_556 S
C1494  H1495   1.111   .     S
C1494  H1497   1.111   .     S
C1494  H578    1.110   1_556 S
O1498  C1246   1.384   1_655 S
O1498  C1295   1.417   1_655 S
C1499  H1501   1.118   .     S
H1500  C581    1.111   1_556 S
C1502  H1504   1.111   .     S
C1502  C1505   1.525   .     S
C1502  H1503   1.112   .     S
C1502  C1295   1.529   1_655 S
C1505  H1608   1.110   1_655 S
C1505  H1813   1.110   .     S
C1505  H1814   1.111   .     S
O1509  C1510   1.413   .     S
C1510  H1512   1.111   .     S
C1510  C1513   1.536   .     S
C1510  H1511   1.110   .     S
C1513  H1514   1.111   .     S
C1513  C1516   1.525   .     S
C1513  H1515   1.109   .     S
C1516  H1519   1.111   .     S
C1516  H1517   1.111   .     S
H1518  C1822   1.110   .     S
O1520  C1521   1.420   .     S
C1521  H1522   1.110   .     S
C1521  H1523   1.117   .     S
C1521  C1524   1.533   .     S
C1524  C1527   1.527   .     S
C1524  H1526   1.106   .     S
C1524  H1525   1.108   .     S
C1527  H1834   1.111   .     S
C1527  H1835   1.110   .     S
C1527  H1836   1.111   .     S
C1531  C1542   1.445   .     S
C1531  O1581   1.291   .     A
C1531  O1787   1.290   1_455 S
C1532  C1541   1.446   .     S
C1532  O1582   1.293   .     A
C1532  O1686   1.289   .     S
C1533  H1571   1.077   .     S
C1533  C1535   1.387   .     A
C1533  C1562   1.415   .     A
C1534  C1536   1.386   .     A
C1534  H1572   1.076   .     S
C1534  C1561   1.416   .     A
C1535  H1565   1.084   .     S
C1536  H1566   1.083   .     S
C1536  C642    1.395   1_556 S
C1537  H1573   1.083   .     S
C1537  C1644   1.400   .     S
C1538  H1574   1.083   .     S
C1538  C928    1.383   1_565 S
C1538  C1745   1.401   1_455 S
C1539  H1575   1.082   .     S
C1539  C1541   1.399   .     A
C1539  C925    1.383   1_565 S
C1540  H1576   1.084   .     S
C1540  C1542   1.399   .     A
C1541  C1640   1.401   .     S
C1542  C1741   1.400   1_455 S
C1543  H1577   1.078   .     S
C1543  N1580   1.365   .     A
C1543  C1545   1.441   .     A
C1544  N1579   1.358   .     A
C1544  H1578   1.078   .     S
C1544  C1546   1.417   .     A
C1545  O1611   1.398   .     S
C1545  N1579   1.374   .     A
C1546  N1580   1.376   .     A
C1546  O1622   1.384   .     S
C1547  C1549   1.469   .     S
C1547  O1587   1.295   .     A
C1547  O1687   1.297   .     S
C1548  O1588   1.293   .     A
C1548  C1550   1.467   .     S
C1548  O1790   1.299   1_455 S
C1549  C1553   1.397   .     A
C1549  C1555   1.394   .     A
C1550  C1554   1.397   .     A
C1550  C1556   1.397   .     A
C1551  C1559   1.415   .     A
C1551  C1553   1.408   .     A
C1551  O1691   1.392   .     S
C1552  C1554   1.397   .     A
C1552  C1560   1.416   .     A
C1552  O1804   1.384   1_455 S
C1553  H1672   1.081   .     S
C1554  H1773   1.083   1_455 S
C1555  H1568   1.075   .     S
C1555  C1557   1.403   .     A
C1556  H1567   1.077   .     S
C1556  C1558   1.404   .     A
C1557  C1559   1.421   .     A
C1557  C1561   1.428   .     A
C1558  C1562   1.427   .     A
C1558  C1560   1.419   .     A
C1559  C617    1.396   1_556 S
C1561  C644    1.422   1_556 S
Cu1563 O1585   1.951   .     S
Cu1563 O1588   1.936   .     S
Cu1563 N1579   2.014   .     S
Cu1563 O1581   1.960   .     S
Cu1563 O1584   1.957   .     S
Cu1563 Cu1768  2.680   1_455 S
Cu1564 O1586   1.951   .     S
Cu1564 O1587   1.936   .     S
Cu1564 N1580   2.014   .     S
Cu1564 O1582   1.960   .     S
Cu1564 O1583   1.957   .     S
Cu1564 Cu1665  2.680   .     S
H1569  C1656   1.083   .     S
H1570  C1757   1.081   1_455 S
O1583  C1633   1.290   .     S
O1584  C1736   1.289   1_455 S
O1585  C1751   1.297   1_455 S
O1586  C1650   1.299   .     S
O1589  C1590   1.414   .     S
O1589  C1755   1.392   1_455 S
C1590  C1593   1.527   .     S
C1590  H1592   1.117   .     S
C1590  H1591   1.112   .     S
C1593  C1596   1.526   .     S
C1593  H676    1.110   1_556 S
C1593  H677    1.110   1_556 S
C1596  H1597   1.111   .     S
C1596  H1599   1.111   .     S
C1596  H680    1.110   1_556 S
O1600  C1654   1.384   .     S
O1600  C1703   1.417   .     S
C1601  H1603   1.118   .     S
C1601  O1804   1.417   1_455 S
C1601  C1808   1.529   1_455 S
H1602  C683    1.111   1_556 S
C1604  H1606   1.111   .     S
C1604  C1607   1.525   .     S
C1604  H1605   1.112   .     S
C1604  C1703   1.529   .     S
C1607  H1098   1.110   1_565 S
C1607  H997    1.110   1_565 S
C1607  H998    1.111   1_565 S
H1608  C1505   1.110   1_455 S
O1611  C1612   1.413   .     S
C1612  H1614   1.111   .     S
C1612  C1615   1.536   .     S
C1612  H1613   1.110   .     S
C1615  H1616   1.111   .     S
C1615  C1618   1.525   .     S
C1615  H1617   1.109   .     S
C1618  H1621   1.111   .     S
C1618  H1619   1.111   .     S
H1620  C1006   1.110   1_565 S
O1622  C1623   1.420   .     S
C1623  H1624   1.110   .     S
C1623  H1625   1.117   .     S
C1623  C1626   1.533   .     S
C1626  C1629   1.527   .     S
C1626  H1628   1.106   .     S
C1626  H1627   1.108   .     S
C1629  H1018   1.111   1_565 S
C1629  H1019   1.110   1_565 S
C1629  H1020   1.111   1_565 S
C1633  C1644   1.445   .     S
C1633  O1683   1.291   .     A
C1634  C1643   1.446   .     S
C1634  O1684   1.293   .     A
C1634  O1788   1.289   .     S
C1635  H1673   1.077   .     S
C1635  C1637   1.387   .     A
C1635  C1664   1.415   .     A
C1636  C1638   1.386   .     A
C1636  H1674   1.076   .     S
C1636  C1663   1.416   .     A
C1637  H1667   1.084   .     S
C1638  H1668   1.083   .     S
C1638  C744    1.395   1_556 S
C1639  H1675   1.083   .     S
C1639  C1746   1.400   .     S
C1640  H1676   1.083   .     S
C1640  C1030   1.383   1_565 S
C1641  H1677   1.082   .     S
C1641  C1643   1.399   .     A
C1641  C1027   1.383   1_565 S
C1642  H1678   1.084   .     S
C1642  C1644   1.399   .     A
C1643  C1742   1.401   .     S
C1645  H1679   1.078   .     S
C1645  N1682   1.365   .     A
C1645  C1647   1.441   .     A
C1646  N1681   1.358   .     A
C1646  H1680   1.078   .     S
C1646  C1648   1.417   .     A
C1647  O1713   1.398   .     S
C1647  N1681   1.374   .     A
C1648  N1682   1.376   .     A
C1648  O1724   1.384   .     S
C1649  C1651   1.469   .     S
C1649  O1689   1.295   .     A
C1649  O1789   1.297   .     S
C1650  O1690   1.293   .     A
C1650  C1652   1.467   .     S
C1651  C1655   1.397   .     A
C1651  C1657   1.394   .     A
C1652  C1656   1.397   .     A
C1652  C1658   1.397   .     A
C1653  C1661   1.415   .     A
C1653  C1655   1.408   .     A
C1653  O1793   1.392   .     S
C1654  C1656   1.397   .     A
C1654  C1662   1.416   .     A
C1655  H1774   1.081   .     S
C1657  H1670   1.075   .     S
C1657  C1659   1.403   .     A
C1658  H1669   1.077   .     S
C1658  C1660   1.404   .     A
C1659  C1661   1.421   .     A
C1659  C1663   1.428   .     A
C1660  C1664   1.427   .     A
C1660  C1662   1.419   .     A
C1661  C719    1.396   1_556 S
C1663  C746    1.422   1_556 S
Cu1665 O1687   1.951   .     S
Cu1665 O1690   1.936   .     S
Cu1665 N1681   2.014   .     S
Cu1665 O1683   1.960   .     S
Cu1665 O1686   1.957   .     S
Cu1666 O1688   1.951   .     S
Cu1666 O1689   1.936   .     S
Cu1666 N1682   2.014   .     S
Cu1666 O1684   1.960   .     S
Cu1666 O1685   1.957   .     S
Cu1666 Cu1767  2.680   .     S
H1671  C1758   1.083   .     S
O1685  C1735   1.290   .     S
O1688  C1752   1.299   .     S
O1691  C1692   1.414   .     S
C1692  C1695   1.527   .     S
C1692  H1694   1.117   .     S
C1692  H1693   1.112   .     S
C1695  C1698   1.526   .     S
C1695  H778    1.110   1_556 S
C1695  H779    1.110   1_556 S
C1698  H1699   1.111   .     S
C1698  H1701   1.111   .     S
C1698  H782    1.110   1_556 S
O1702  C1756   1.384   .     S
O1702  C1805   1.417   .     S
C1703  H1705   1.118   .     S
H1704  C785    1.111   1_556 S
C1706  H1708   1.111   .     S
C1706  C1709   1.525   .     S
C1706  H1707   1.112   .     S
C1706  C1805   1.529   .     S
C1709  H1200   1.110   1_565 S
C1709  H1099   1.110   1_565 S
C1709  H1100   1.111   1_565 S
O1713  C1714   1.413   .     S
C1714  H1716   1.111   .     S
C1714  C1717   1.536   .     S
C1714  H1715   1.110   .     S
C1717  H1718   1.111   .     S
C1717  C1720   1.525   .     S
C1717  H1719   1.109   .     S
C1720  H1723   1.111   .     S
C1720  H1721   1.111   .     S
H1722  C1108   1.110   1_565 S
O1724  C1725   1.420   .     S
C1725  H1726   1.110   .     S
C1725  H1727   1.117   .     S
C1725  C1728   1.533   .     S
C1728  C1731   1.527   .     S
C1728  H1730   1.106   .     S
C1728  H1729   1.108   .     S
C1731  H1120   1.111   1_565 S
C1731  H1121   1.110   1_565 S
C1731  H1122   1.111   1_565 S
C1735  C1746   1.445   .     S
C1735  O1785   1.291   .     A
C1736  C1745   1.446   .     S
C1736  O1786   1.293   .     A
C1736  O1584   1.289   1_655 S
C1737  H1775   1.077   .     S
C1737  C1739   1.387   .     A
C1737  C1766   1.415   .     A
C1738  C1740   1.386   .     A
C1738  H1776   1.076   .     S
C1738  C1765   1.416   .     A
C1739  H1769   1.084   .     S
C1740  H1770   1.083   .     S
C1740  C846    1.395   1_556 S
C1741  H1777   1.083   .     S
C1741  C1542   1.400   1_655 S
C1742  H1778   1.083   .     S
C1742  C1132   1.383   1_565 S
C1743  H1779   1.082   .     S
C1743  C1745   1.399   .     A
C1743  C1129   1.383   1_565 S
C1744  H1780   1.084   .     S
C1744  C1746   1.399   .     A
C1745  C1538   1.401   1_655 S
C1747  H1781   1.078   .     S
C1747  N1784   1.365   .     A
C1747  C1749   1.441   .     A
C1748  N1783   1.358   .     A
C1748  H1782   1.078   .     S
C1748  C1750   1.417   .     A
C1749  O1815   1.398   .     S
C1749  N1783   1.374   .     A
C1750  N1784   1.376   .     A
C1750  O1826   1.384   .     S
C1751  C1753   1.469   .     S
C1751  O1791   1.295   .     A
C1751  O1585   1.297   1_655 S
C1752  O1792   1.293   .     A
C1752  C1754   1.467   .     S
C1753  C1757   1.397   .     A
C1753  C1759   1.394   .     A
C1754  C1758   1.397   .     A
C1754  C1760   1.397   .     A
C1755  C1763   1.415   .     A
C1755  C1757   1.408   .     A
C1755  O1589   1.392   1_655 S
C1756  C1758   1.397   .     A
C1756  C1764   1.416   .     A
C1757  H1570   1.081   1_655 S
C1759  H1772   1.075   .     S
C1759  C1761   1.403   .     A
C1760  H1771   1.077   .     S
C1760  C1762   1.404   .     A
C1761  C1763   1.421   .     A
C1761  C1765   1.428   .     A
C1762  C1766   1.427   .     A
C1762  C1764   1.419   .     A
C1763  C821    1.396   1_556 S
C1765  C848    1.422   1_556 S
Cu1767 O1789   1.951   .     S
Cu1767 O1792   1.936   .     S
Cu1767 N1783   2.014   .     S
Cu1767 O1785   1.960   .     S
Cu1767 O1788   1.957   .     S
Cu1768 O1790   1.951   .     S
Cu1768 O1791   1.936   .     S
Cu1768 N1784   2.014   .     S
Cu1768 O1786   1.960   .     S
Cu1768 O1787   1.957   .     S
Cu1768 Cu1563  2.680   1_655 S
H1773  C1554   1.083   1_655 S
O1787  C1531   1.290   1_655 S
O1790  C1548   1.299   1_655 S
O1793  C1794   1.414   .     S
C1794  C1797   1.527   .     S
C1794  H1796   1.117   .     S
C1794  H1795   1.112   .     S
C1797  C1800   1.526   .     S
C1797  H880    1.110   1_556 S
C1797  H881    1.110   1_556 S
C1800  H1801   1.111   .     S
C1800  H1803   1.111   .     S
C1800  H884    1.110   1_556 S
O1804  C1552   1.384   1_655 S
O1804  C1601   1.417   1_655 S
C1805  H1807   1.118   .     S
H1806  C887    1.111   1_556 S
C1808  H1810   1.111   .     S
C1808  C1811   1.525   .     S
C1808  H1809   1.112   .     S
C1808  C1601   1.529   1_655 S
C1811  H996    1.110   1_665 S
C1811  H1201   1.110   1_565 S
C1811  H1202   1.111   1_565 S
O1815  C1816   1.413   .     S
C1816  H1818   1.111   .     S
C1816  C1819   1.536   .     S
C1816  H1817   1.110   .     S
C1819  H1820   1.111   .     S
C1819  C1822   1.525   .     S
C1819  H1821   1.109   .     S
C1822  H1825   1.111   .     S
C1822  H1823   1.111   .     S
H1824  C1210   1.110   1_565 S
O1826  C1827   1.420   .     S
C1827  H1828   1.110   .     S
C1827  H1829   1.117   .     S
C1827  C1830   1.533   .     S
C1830  C1833   1.527   .     S
C1830  H1832   1.106   .     S
C1830  H1831   1.108   .     S
C1833  H1222   1.111   1_565 S
C1833  H1223   1.110   1_565 S
C1833  H1224   1.111   1_565 S
