data_str_m2_o1_o10_pcu_sym.145
_audit_creation_date              2020-01-03
_audit_creation_method            'Materials Studio'
_symmetry_space_group_name_H-M    'P1'
_symmetry_Int_Tables_number       1
_symmetry_cell_setting            triclinic
loop_
_symmetry_equiv_pos_as_xyz
  x,y,z
_cell_length_a                    26.2043
_cell_length_b                    32.5757
_cell_length_c                    28.6299
_cell_angle_alpha                 89.2832
_cell_angle_beta                  97.9347
_cell_angle_gamma                 91.0094
loop_
_atom_site_label
_atom_site_type_symbol
_atom_site_fract_x
_atom_site_fract_y
_atom_site_fract_z
_atom_site_U_iso_or_equiv
_atom_site_adp_type
_atom_site_occupancy
C1     C     0.16653   0.08753   0.16693   0.00000  Uiso   1.00
C2     C     0.16569   0.24596   0.16620   0.00000  Uiso   1.00
C3     C     0.06793   0.16654   0.15459   0.00000  Uiso   1.00
C4     C     0.26540   0.16658   0.17875   0.00000  Uiso   1.00
C5     C     0.01264   0.16644   0.14795   0.00000  Uiso   1.00
C6     C     0.32069   0.16628   0.18538   0.00000  Uiso   1.00
C7     C     0.19423   0.02269   0.13617   0.00000  Uiso   1.00
C8     C     0.13608   0.31124   0.19632   0.00000  Uiso   1.00
C9     C     0.19099   0.31318   0.13333   0.00000  Uiso   1.00
C10    C     0.13675   0.02097   0.19702   0.00000  Uiso   1.00
C11    C     0.16413   0.29077   0.16514   0.00000  Uiso   1.00
C12    C     0.16632   0.04297   0.16728   0.00000  Uiso   1.00
C13    C     0.13271   0.14214   0.02069   0.00000  Uiso   1.00
C14    C     0.20170   0.19020   0.31276   0.00000  Uiso   1.00
C15    C     0.13302   0.14228   0.30439   0.00000  Uiso   1.00
C16    C     0.20121   0.19023   0.02905   0.00000  Uiso   1.00
Cu17   Cu    0.16667   0.16667   0.21355   0.00000  Uiso   1.00
Cu18   Cu    0.16667   0.16666   0.11978   0.00000  Uiso   1.00
H19    H     0.32598   0.16665   0.11205   0.00000  Uiso   1.00
H20    H     0.00735   0.16596   0.22128   0.00000  Uiso   1.00
H21    H     0.10663   0.12249   0.28226   0.00000  Uiso   1.00
H22    H     0.22882   0.20886   0.05142   0.00000  Uiso   1.00
N23    N     0.16668   0.16668   0.28403   0.00000  Uiso   1.00
N24    N     0.16665   0.16666   0.04931   0.00000  Uiso   1.00
O25    O     0.16666   0.10655   0.20625   0.00000  Uiso   1.00
O26    O     0.16667   0.22678   0.12709   0.00000  Uiso   1.00
O27    O     0.16666   0.10654   0.12706   0.00000  Uiso   1.00
O28    O     0.16667   0.22679   0.20628   0.00000  Uiso   1.00
O29    O     0.09161   0.16667   0.19712   0.00000  Uiso   1.00
O30    O     0.24172   0.16666   0.13621   0.00000  Uiso   1.00
O31    O     0.09161   0.16666   0.11793   0.00000  Uiso   1.00
O32    O     0.24172   0.16667   0.21540   0.00000  Uiso   1.00
N33    N     0.22567   0.04586   0.10800   0.00000  Uiso   1.00
H34    H     0.22593   0.03595   0.07407   0.00000  Uiso   1.00
C35    C     0.27664   0.05604   0.13141   0.00000  Uiso   1.00
H36    H     0.30009   0.02790   0.13643   0.00000  Uiso   1.00
H37    H     0.27467   0.07040   0.16610   0.00000  Uiso   1.00
H38    H     0.29562   0.07825   0.10935   0.00000  Uiso   1.00
N39    N     0.10281   0.28842   0.22288   0.00000  Uiso   1.00
H40    H     0.06449   0.29607   0.21619   0.00000  Uiso   1.00
C41    C     0.12135   0.28157   0.27235   0.00000  Uiso   1.00
H42    H     0.09689   0.29788   0.29465   0.00000  Uiso   1.00
H43    H     0.16187   0.29244   0.28152   0.00000  Uiso   1.00
H44    H     0.11897   0.24829   0.28055   0.00000  Uiso   1.00
N45    N     0.21515   0.29265   0.09884   0.00000  Uiso   1.00
H46    H     0.25253   0.30230   0.09711   0.00000  Uiso   1.00
C47    C     0.18408   0.29082   0.05290   0.00000  Uiso   1.00
H48    H     0.20704   0.27773   0.02724   0.00000  Uiso   1.00
H49    H     0.17151   0.32178   0.03995   0.00000  Uiso   1.00
H50    H     0.14920   0.27128   0.05429   0.00000  Uiso   1.00
N51    N     0.10841   0.04249   0.22786   0.00000  Uiso   1.00
H52    H     0.10874   0.02974   0.26096   0.00000  Uiso   1.00
C53    C     0.05789   0.05566   0.20700   0.00000  Uiso   1.00
H54    H     0.03139   0.02877   0.20121   0.00000  Uiso   1.00
H55    H     0.05979   0.07203   0.17298   0.00000  Uiso   1.00
H56    H     0.04227   0.07697   0.23125   0.00000  Uiso   1.00
N57    N     0.09917   0.11468   0.04106   0.00000  Uiso   1.00
H58    H     0.10800   0.08435   0.03677   0.00000  Uiso   1.00
C59    C     0.04482   0.12221   0.02784   0.00000  Uiso   1.00
H60    H     0.02224   0.10250   0.04967   0.00000  Uiso   1.00
H61    H     0.03268   0.11481   0.32346   0.00000  Uiso   1.00
H62    H     0.03628   0.15479   0.03409   0.00000  Uiso   1.00
N63    N     0.23812   0.21512   0.29259   0.00000  Uiso   1.00
H64    H     0.23177   0.24605   0.29497   0.00000  Uiso   1.00
C65    C     0.29151   0.20497   0.30723   0.00000  Uiso   1.00
H66    H     0.31627   0.22268   0.28543   0.00000  Uiso   1.00
H67    H     0.29746   0.17175   0.30214   0.00000  Uiso   1.00
H68    H     0.30337   0.21292   0.01150   0.00000  Uiso   1.00
C69    C     0.49986   0.08753   0.16693   0.00000  Uiso   1.00
C70    C     0.49903   0.24596   0.16620   0.00000  Uiso   1.00
C71    C     0.40127   0.16654   0.15459   0.00000  Uiso   1.00
C72    C     0.59873   0.16658   0.17875   0.00000  Uiso   1.00
C73    C     0.34597   0.16644   0.14795   0.00000  Uiso   1.00
C74    C     0.65402   0.16628   0.18538   0.00000  Uiso   1.00
C75    C     0.52756   0.02269   0.13617   0.00000  Uiso   1.00
C76    C     0.46941   0.31124   0.19632   0.00000  Uiso   1.00
C77    C     0.52432   0.31318   0.13333   0.00000  Uiso   1.00
C78    C     0.47009   0.02097   0.19702   0.00000  Uiso   1.00
C79    C     0.49747   0.29077   0.16514   0.00000  Uiso   1.00
C80    C     0.49965   0.04297   0.16728   0.00000  Uiso   1.00
C81    C     0.46605   0.14214   0.02069   0.00000  Uiso   1.00
C82    C     0.53504   0.19020   0.31276   0.00000  Uiso   1.00
C83    C     0.46635   0.14228   0.30439   0.00000  Uiso   1.00
C84    C     0.53454   0.19023   0.02905   0.00000  Uiso   1.00
Cu85   Cu    0.50000   0.16667   0.21355   0.00000  Uiso   1.00
Cu86   Cu    0.50000   0.16666   0.11978   0.00000  Uiso   1.00
H87    H     0.65931   0.16665   0.11205   0.00000  Uiso   1.00
H88    H     0.34069   0.16596   0.22128   0.00000  Uiso   1.00
H89    H     0.43997   0.12249   0.28226   0.00000  Uiso   1.00
H90    H     0.56215   0.20886   0.05142   0.00000  Uiso   1.00
N91    N     0.50001   0.16668   0.28403   0.00000  Uiso   1.00
N92    N     0.49999   0.16666   0.04931   0.00000  Uiso   1.00
O93    O     0.50000   0.10655   0.20625   0.00000  Uiso   1.00
O94    O     0.50000   0.22678   0.12709   0.00000  Uiso   1.00
O95    O     0.50000   0.10654   0.12706   0.00000  Uiso   1.00
O96    O     0.50000   0.22679   0.20628   0.00000  Uiso   1.00
O97    O     0.42495   0.16667   0.19712   0.00000  Uiso   1.00
O98    O     0.57505   0.16666   0.13621   0.00000  Uiso   1.00
O99    O     0.42494   0.16666   0.11793   0.00000  Uiso   1.00
O100   O     0.57506   0.16667   0.21540   0.00000  Uiso   1.00
N101   N     0.55900   0.04586   0.10800   0.00000  Uiso   1.00
H102   H     0.55926   0.03595   0.07407   0.00000  Uiso   1.00
C103   C     0.60998   0.05604   0.13141   0.00000  Uiso   1.00
H104   H     0.63342   0.02790   0.13643   0.00000  Uiso   1.00
H105   H     0.60800   0.07040   0.16610   0.00000  Uiso   1.00
H106   H     0.62895   0.07825   0.10935   0.00000  Uiso   1.00
N107   N     0.43614   0.28842   0.22288   0.00000  Uiso   1.00
H108   H     0.39782   0.29607   0.21619   0.00000  Uiso   1.00
C109   C     0.45469   0.28157   0.27235   0.00000  Uiso   1.00
H110   H     0.43023   0.29788   0.29465   0.00000  Uiso   1.00
H111   H     0.49520   0.29244   0.28152   0.00000  Uiso   1.00
H112   H     0.45230   0.24829   0.28055   0.00000  Uiso   1.00
N113   N     0.54849   0.29265   0.09884   0.00000  Uiso   1.00
H114   H     0.58586   0.30230   0.09711   0.00000  Uiso   1.00
C115   C     0.51741   0.29082   0.05290   0.00000  Uiso   1.00
H116   H     0.54037   0.27773   0.02724   0.00000  Uiso   1.00
H117   H     0.50484   0.32178   0.03995   0.00000  Uiso   1.00
H118   H     0.48254   0.27128   0.05429   0.00000  Uiso   1.00
N119   N     0.44174   0.04249   0.22786   0.00000  Uiso   1.00
H120   H     0.44207   0.02974   0.26096   0.00000  Uiso   1.00
C121   C     0.39122   0.05566   0.20700   0.00000  Uiso   1.00
H122   H     0.36473   0.02877   0.20121   0.00000  Uiso   1.00
H123   H     0.39312   0.07203   0.17298   0.00000  Uiso   1.00
H124   H     0.37560   0.07697   0.23125   0.00000  Uiso   1.00
N125   N     0.43250   0.11468   0.04106   0.00000  Uiso   1.00
H126   H     0.44133   0.08435   0.03677   0.00000  Uiso   1.00
C127   C     0.37816   0.12221   0.02784   0.00000  Uiso   1.00
H128   H     0.35558   0.10250   0.04967   0.00000  Uiso   1.00
H129   H     0.36602   0.11481   0.32346   0.00000  Uiso   1.00
H130   H     0.36961   0.15479   0.03409   0.00000  Uiso   1.00
N131   N     0.57145   0.21512   0.29259   0.00000  Uiso   1.00
H132   H     0.56510   0.24605   0.29497   0.00000  Uiso   1.00
C133   C     0.62484   0.20497   0.30723   0.00000  Uiso   1.00
H134   H     0.64960   0.22268   0.28543   0.00000  Uiso   1.00
H135   H     0.63079   0.17175   0.30214   0.00000  Uiso   1.00
H136   H     0.63670   0.21292   0.01150   0.00000  Uiso   1.00
C137   C     0.83320   0.08753   0.16693   0.00000  Uiso   1.00
C138   C     0.83236   0.24596   0.16620   0.00000  Uiso   1.00
C139   C     0.73460   0.16654   0.15459   0.00000  Uiso   1.00
C140   C     0.93206   0.16658   0.17875   0.00000  Uiso   1.00
C141   C     0.67931   0.16644   0.14795   0.00000  Uiso   1.00
C142   C     0.98735   0.16628   0.18538   0.00000  Uiso   1.00
C143   C     0.86089   0.02269   0.13617   0.00000  Uiso   1.00
C144   C     0.80275   0.31124   0.19632   0.00000  Uiso   1.00
C145   C     0.85765   0.31318   0.13333   0.00000  Uiso   1.00
C146   C     0.80342   0.02097   0.19702   0.00000  Uiso   1.00
C147   C     0.83080   0.29077   0.16514   0.00000  Uiso   1.00
C148   C     0.83299   0.04297   0.16728   0.00000  Uiso   1.00
C149   C     0.79938   0.14214   0.02069   0.00000  Uiso   1.00
C150   C     0.86837   0.19020   0.31276   0.00000  Uiso   1.00
C151   C     0.79969   0.14228   0.30439   0.00000  Uiso   1.00
C152   C     0.86787   0.19023   0.02905   0.00000  Uiso   1.00
Cu153  Cu    0.83333   0.16667   0.21355   0.00000  Uiso   1.00
Cu154  Cu    0.83333   0.16666   0.11978   0.00000  Uiso   1.00
H155   H     0.99265   0.16665   0.11205   0.00000  Uiso   1.00
H156   H     0.67402   0.16596   0.22128   0.00000  Uiso   1.00
H157   H     0.77330   0.12249   0.28226   0.00000  Uiso   1.00
H158   H     0.89548   0.20886   0.05142   0.00000  Uiso   1.00
N159   N     0.83335   0.16668   0.28403   0.00000  Uiso   1.00
N160   N     0.83332   0.16666   0.04931   0.00000  Uiso   1.00
O161   O     0.83333   0.10655   0.20625   0.00000  Uiso   1.00
O162   O     0.83334   0.22678   0.12709   0.00000  Uiso   1.00
O163   O     0.83333   0.10654   0.12706   0.00000  Uiso   1.00
O164   O     0.83334   0.22679   0.20628   0.00000  Uiso   1.00
O165   O     0.75828   0.16667   0.19712   0.00000  Uiso   1.00
O166   O     0.90839   0.16666   0.13621   0.00000  Uiso   1.00
O167   O     0.75828   0.16666   0.11793   0.00000  Uiso   1.00
O168   O     0.90839   0.16667   0.21540   0.00000  Uiso   1.00
N169   N     0.89233   0.04586   0.10800   0.00000  Uiso   1.00
H170   H     0.89259   0.03595   0.07407   0.00000  Uiso   1.00
C171   C     0.94331   0.05604   0.13141   0.00000  Uiso   1.00
H172   H     0.96675   0.02790   0.13643   0.00000  Uiso   1.00
H173   H     0.94134   0.07040   0.16610   0.00000  Uiso   1.00
H174   H     0.96228   0.07825   0.10935   0.00000  Uiso   1.00
N175   N     0.76948   0.28842   0.22288   0.00000  Uiso   1.00
H176   H     0.73116   0.29607   0.21619   0.00000  Uiso   1.00
C177   C     0.78802   0.28157   0.27235   0.00000  Uiso   1.00
H178   H     0.76356   0.29788   0.29465   0.00000  Uiso   1.00
H179   H     0.82853   0.29244   0.28152   0.00000  Uiso   1.00
H180   H     0.78564   0.24829   0.28055   0.00000  Uiso   1.00
N181   N     0.88182   0.29265   0.09884   0.00000  Uiso   1.00
H182   H     0.91920   0.30230   0.09711   0.00000  Uiso   1.00
C183   C     0.85075   0.29082   0.05290   0.00000  Uiso   1.00
H184   H     0.87370   0.27773   0.02724   0.00000  Uiso   1.00
H185   H     0.83818   0.32178   0.03995   0.00000  Uiso   1.00
H186   H     0.81587   0.27128   0.05429   0.00000  Uiso   1.00
N187   N     0.77507   0.04249   0.22786   0.00000  Uiso   1.00
H188   H     0.77540   0.02974   0.26096   0.00000  Uiso   1.00
C189   C     0.72455   0.05566   0.20700   0.00000  Uiso   1.00
H190   H     0.69806   0.02877   0.20121   0.00000  Uiso   1.00
H191   H     0.72646   0.07203   0.17298   0.00000  Uiso   1.00
H192   H     0.70894   0.07697   0.23125   0.00000  Uiso   1.00
N193   N     0.76583   0.11468   0.04106   0.00000  Uiso   1.00
H194   H     0.77466   0.08435   0.03677   0.00000  Uiso   1.00
C195   C     0.71149   0.12221   0.02784   0.00000  Uiso   1.00
H196   H     0.68891   0.10250   0.04967   0.00000  Uiso   1.00
H197   H     0.69935   0.11481   0.32346   0.00000  Uiso   1.00
H198   H     0.70295   0.15479   0.03409   0.00000  Uiso   1.00
N199   N     0.90479   0.21512   0.29259   0.00000  Uiso   1.00
H200   H     0.89844   0.24605   0.29497   0.00000  Uiso   1.00
C201   C     0.95818   0.20497   0.30723   0.00000  Uiso   1.00
H202   H     0.98293   0.22268   0.28543   0.00000  Uiso   1.00
H203   H     0.96412   0.17175   0.30214   0.00000  Uiso   1.00
H204   H     0.97004   0.21292   0.01150   0.00000  Uiso   1.00
C205   C     0.16653   0.42086   0.16693   0.00000  Uiso   1.00
C206   C     0.16569   0.57929   0.16620   0.00000  Uiso   1.00
C207   C     0.06793   0.49987   0.15459   0.00000  Uiso   1.00
C208   C     0.26540   0.49991   0.17875   0.00000  Uiso   1.00
C209   C     0.01264   0.49978   0.14795   0.00000  Uiso   1.00
C210   C     0.32069   0.49961   0.18538   0.00000  Uiso   1.00
C211   C     0.19423   0.35603   0.13617   0.00000  Uiso   1.00
C212   C     0.13608   0.64458   0.19632   0.00000  Uiso   1.00
C213   C     0.19099   0.64652   0.13333   0.00000  Uiso   1.00
C214   C     0.13675   0.35431   0.19702   0.00000  Uiso   1.00
C215   C     0.16413   0.62411   0.16514   0.00000  Uiso   1.00
C216   C     0.16632   0.37630   0.16728   0.00000  Uiso   1.00
C217   C     0.13271   0.47547   0.02069   0.00000  Uiso   1.00
C218   C     0.20170   0.52354   0.31276   0.00000  Uiso   1.00
C219   C     0.13302   0.47561   0.30439   0.00000  Uiso   1.00
C220   C     0.20121   0.52356   0.02905   0.00000  Uiso   1.00
Cu221  Cu    0.16667   0.50001   0.21355   0.00000  Uiso   1.00
Cu222  Cu    0.16667   0.49999   0.11978   0.00000  Uiso   1.00
H223   H     0.32598   0.49998   0.11205   0.00000  Uiso   1.00
H224   H     0.00735   0.49929   0.22128   0.00000  Uiso   1.00
H225   H     0.10663   0.45583   0.28226   0.00000  Uiso   1.00
H226   H     0.22882   0.54219   0.05142   0.00000  Uiso   1.00
N227   N     0.16668   0.50001   0.28403   0.00000  Uiso   1.00
N228   N     0.16665   0.49999   0.04931   0.00000  Uiso   1.00
O229   O     0.16666   0.43989   0.20625   0.00000  Uiso   1.00
O230   O     0.16667   0.56011   0.12709   0.00000  Uiso   1.00
O231   O     0.16666   0.43988   0.12706   0.00000  Uiso   1.00
O232   O     0.16667   0.56012   0.20628   0.00000  Uiso   1.00
O233   O     0.09161   0.50000   0.19712   0.00000  Uiso   1.00
O234   O     0.24172   0.50000   0.13621   0.00000  Uiso   1.00
O235   O     0.09161   0.49999   0.11793   0.00000  Uiso   1.00
O236   O     0.24172   0.50001   0.21540   0.00000  Uiso   1.00
N237   N     0.22567   0.37919   0.10800   0.00000  Uiso   1.00
H238   H     0.22593   0.36928   0.07407   0.00000  Uiso   1.00
C239   C     0.27664   0.38937   0.13141   0.00000  Uiso   1.00
H240   H     0.30009   0.36123   0.13643   0.00000  Uiso   1.00
H241   H     0.27467   0.40374   0.16610   0.00000  Uiso   1.00
H242   H     0.29562   0.41158   0.10935   0.00000  Uiso   1.00
N243   N     0.10281   0.62175   0.22288   0.00000  Uiso   1.00
H244   H     0.06449   0.62940   0.21619   0.00000  Uiso   1.00
C245   C     0.12135   0.61490   0.27235   0.00000  Uiso   1.00
H246   H     0.09689   0.63121   0.29465   0.00000  Uiso   1.00
H247   H     0.16187   0.62577   0.28152   0.00000  Uiso   1.00
H248   H     0.11897   0.58163   0.28055   0.00000  Uiso   1.00
N249   N     0.21515   0.62599   0.09884   0.00000  Uiso   1.00
H250   H     0.25253   0.63564   0.09711   0.00000  Uiso   1.00
C251   C     0.18408   0.62416   0.05290   0.00000  Uiso   1.00
H252   H     0.20704   0.61107   0.02724   0.00000  Uiso   1.00
H253   H     0.17151   0.65511   0.03995   0.00000  Uiso   1.00
H254   H     0.14920   0.60461   0.05429   0.00000  Uiso   1.00
N255   N     0.10841   0.37582   0.22786   0.00000  Uiso   1.00
H256   H     0.10874   0.36308   0.26096   0.00000  Uiso   1.00
C257   C     0.05789   0.38899   0.20700   0.00000  Uiso   1.00
H258   H     0.03139   0.36210   0.20121   0.00000  Uiso   1.00
H259   H     0.05979   0.40536   0.17298   0.00000  Uiso   1.00
H260   H     0.04227   0.41031   0.23125   0.00000  Uiso   1.00
N261   N     0.09917   0.44802   0.04106   0.00000  Uiso   1.00
H262   H     0.10800   0.41769   0.03677   0.00000  Uiso   1.00
C263   C     0.04482   0.45555   0.02784   0.00000  Uiso   1.00
H264   H     0.02224   0.43584   0.04967   0.00000  Uiso   1.00
H265   H     0.03268   0.44815   0.32346   0.00000  Uiso   1.00
H266   H     0.03628   0.48813   0.03409   0.00000  Uiso   1.00
N267   N     0.23812   0.54845   0.29259   0.00000  Uiso   1.00
H268   H     0.23177   0.57939   0.29497   0.00000  Uiso   1.00
C269   C     0.29151   0.53831   0.30723   0.00000  Uiso   1.00
H270   H     0.31627   0.55602   0.28543   0.00000  Uiso   1.00
H271   H     0.29746   0.50508   0.30214   0.00000  Uiso   1.00
H272   H     0.30337   0.54625   0.01150   0.00000  Uiso   1.00
C273   C     0.49986   0.42086   0.16693   0.00000  Uiso   1.00
C274   C     0.49903   0.57929   0.16620   0.00000  Uiso   1.00
C275   C     0.40127   0.49987   0.15459   0.00000  Uiso   1.00
C276   C     0.59873   0.49991   0.17875   0.00000  Uiso   1.00
C277   C     0.34597   0.49978   0.14795   0.00000  Uiso   1.00
C278   C     0.65402   0.49961   0.18538   0.00000  Uiso   1.00
C279   C     0.52756   0.35603   0.13617   0.00000  Uiso   1.00
C280   C     0.46941   0.64458   0.19632   0.00000  Uiso   1.00
C281   C     0.52432   0.64652   0.13333   0.00000  Uiso   1.00
C282   C     0.47009   0.35431   0.19702   0.00000  Uiso   1.00
C283   C     0.49747   0.62411   0.16514   0.00000  Uiso   1.00
C284   C     0.49965   0.37630   0.16728   0.00000  Uiso   1.00
C285   C     0.46605   0.47547   0.02069   0.00000  Uiso   1.00
C286   C     0.53504   0.52354   0.31276   0.00000  Uiso   1.00
C287   C     0.46635   0.47561   0.30439   0.00000  Uiso   1.00
C288   C     0.53454   0.52356   0.02905   0.00000  Uiso   1.00
Cu289  Cu    0.50000   0.50001   0.21355   0.00000  Uiso   1.00
Cu290  Cu    0.50000   0.49999   0.11978   0.00000  Uiso   1.00
H291   H     0.65931   0.49998   0.11205   0.00000  Uiso   1.00
H292   H     0.34069   0.49929   0.22128   0.00000  Uiso   1.00
H293   H     0.43997   0.45583   0.28226   0.00000  Uiso   1.00
H294   H     0.56215   0.54219   0.05142   0.00000  Uiso   1.00
N295   N     0.50001   0.50001   0.28403   0.00000  Uiso   1.00
N296   N     0.49999   0.49999   0.04931   0.00000  Uiso   1.00
O297   O     0.50000   0.43989   0.20625   0.00000  Uiso   1.00
O298   O     0.50000   0.56011   0.12709   0.00000  Uiso   1.00
O299   O     0.50000   0.43988   0.12706   0.00000  Uiso   1.00
O300   O     0.50000   0.56012   0.20628   0.00000  Uiso   1.00
O301   O     0.42495   0.50000   0.19712   0.00000  Uiso   1.00
O302   O     0.57505   0.50000   0.13621   0.00000  Uiso   1.00
O303   O     0.42494   0.49999   0.11793   0.00000  Uiso   1.00
O304   O     0.57506   0.50001   0.21540   0.00000  Uiso   1.00
N305   N     0.55900   0.37919   0.10800   0.00000  Uiso   1.00
H306   H     0.55926   0.36928   0.07407   0.00000  Uiso   1.00
C307   C     0.60998   0.38937   0.13141   0.00000  Uiso   1.00
H308   H     0.63342   0.36123   0.13643   0.00000  Uiso   1.00
H309   H     0.60800   0.40374   0.16610   0.00000  Uiso   1.00
H310   H     0.62895   0.41158   0.10935   0.00000  Uiso   1.00
N311   N     0.43614   0.62175   0.22288   0.00000  Uiso   1.00
H312   H     0.39782   0.62940   0.21619   0.00000  Uiso   1.00
C313   C     0.45469   0.61490   0.27235   0.00000  Uiso   1.00
H314   H     0.43023   0.63121   0.29465   0.00000  Uiso   1.00
H315   H     0.49520   0.62577   0.28152   0.00000  Uiso   1.00
H316   H     0.45230   0.58163   0.28055   0.00000  Uiso   1.00
N317   N     0.54849   0.62599   0.09884   0.00000  Uiso   1.00
H318   H     0.58586   0.63564   0.09711   0.00000  Uiso   1.00
C319   C     0.51741   0.62416   0.05290   0.00000  Uiso   1.00
H320   H     0.54037   0.61107   0.02724   0.00000  Uiso   1.00
H321   H     0.50484   0.65511   0.03995   0.00000  Uiso   1.00
H322   H     0.48254   0.60461   0.05429   0.00000  Uiso   1.00
N323   N     0.44174   0.37582   0.22786   0.00000  Uiso   1.00
H324   H     0.44207   0.36308   0.26096   0.00000  Uiso   1.00
C325   C     0.39122   0.38899   0.20700   0.00000  Uiso   1.00
H326   H     0.36473   0.36210   0.20121   0.00000  Uiso   1.00
H327   H     0.39312   0.40536   0.17298   0.00000  Uiso   1.00
H328   H     0.37560   0.41031   0.23125   0.00000  Uiso   1.00
N329   N     0.43250   0.44802   0.04106   0.00000  Uiso   1.00
H330   H     0.44133   0.41769   0.03677   0.00000  Uiso   1.00
C331   C     0.37816   0.45555   0.02784   0.00000  Uiso   1.00
H332   H     0.35558   0.43584   0.04967   0.00000  Uiso   1.00
H333   H     0.36602   0.44815   0.32346   0.00000  Uiso   1.00
H334   H     0.36961   0.48813   0.03409   0.00000  Uiso   1.00
N335   N     0.57145   0.54845   0.29259   0.00000  Uiso   1.00
H336   H     0.56510   0.57939   0.29497   0.00000  Uiso   1.00
C337   C     0.62484   0.53831   0.30723   0.00000  Uiso   1.00
H338   H     0.64960   0.55602   0.28543   0.00000  Uiso   1.00
H339   H     0.63079   0.50508   0.30214   0.00000  Uiso   1.00
H340   H     0.63670   0.54625   0.01150   0.00000  Uiso   1.00
C341   C     0.83320   0.42086   0.16693   0.00000  Uiso   1.00
C342   C     0.83236   0.57929   0.16620   0.00000  Uiso   1.00
C343   C     0.73460   0.49987   0.15459   0.00000  Uiso   1.00
C344   C     0.93206   0.49991   0.17875   0.00000  Uiso   1.00
C345   C     0.67931   0.49978   0.14795   0.00000  Uiso   1.00
C346   C     0.98735   0.49961   0.18538   0.00000  Uiso   1.00
C347   C     0.86089   0.35603   0.13617   0.00000  Uiso   1.00
C348   C     0.80275   0.64458   0.19632   0.00000  Uiso   1.00
C349   C     0.85765   0.64652   0.13333   0.00000  Uiso   1.00
C350   C     0.80342   0.35431   0.19702   0.00000  Uiso   1.00
C351   C     0.83080   0.62411   0.16514   0.00000  Uiso   1.00
C352   C     0.83299   0.37630   0.16728   0.00000  Uiso   1.00
C353   C     0.79938   0.47547   0.02069   0.00000  Uiso   1.00
C354   C     0.86837   0.52354   0.31276   0.00000  Uiso   1.00
C355   C     0.79969   0.47561   0.30439   0.00000  Uiso   1.00
C356   C     0.86787   0.52356   0.02905   0.00000  Uiso   1.00
Cu357  Cu    0.83333   0.50001   0.21355   0.00000  Uiso   1.00
Cu358  Cu    0.83333   0.49999   0.11978   0.00000  Uiso   1.00
H359   H     0.99265   0.49998   0.11205   0.00000  Uiso   1.00
H360   H     0.67402   0.49929   0.22128   0.00000  Uiso   1.00
H361   H     0.77330   0.45583   0.28226   0.00000  Uiso   1.00
H362   H     0.89548   0.54219   0.05142   0.00000  Uiso   1.00
N363   N     0.83335   0.50001   0.28403   0.00000  Uiso   1.00
N364   N     0.83332   0.49999   0.04931   0.00000  Uiso   1.00
O365   O     0.83333   0.43989   0.20625   0.00000  Uiso   1.00
O366   O     0.83334   0.56011   0.12709   0.00000  Uiso   1.00
O367   O     0.83333   0.43988   0.12706   0.00000  Uiso   1.00
O368   O     0.83334   0.56012   0.20628   0.00000  Uiso   1.00
O369   O     0.75828   0.50000   0.19712   0.00000  Uiso   1.00
O370   O     0.90839   0.50000   0.13621   0.00000  Uiso   1.00
O371   O     0.75828   0.49999   0.11793   0.00000  Uiso   1.00
O372   O     0.90839   0.50001   0.21540   0.00000  Uiso   1.00
N373   N     0.89233   0.37919   0.10800   0.00000  Uiso   1.00
H374   H     0.89259   0.36928   0.07407   0.00000  Uiso   1.00
C375   C     0.94331   0.38937   0.13141   0.00000  Uiso   1.00
H376   H     0.96675   0.36123   0.13643   0.00000  Uiso   1.00
H377   H     0.94134   0.40374   0.16610   0.00000  Uiso   1.00
H378   H     0.96228   0.41158   0.10935   0.00000  Uiso   1.00
N379   N     0.76948   0.62175   0.22288   0.00000  Uiso   1.00
H380   H     0.73116   0.62940   0.21619   0.00000  Uiso   1.00
C381   C     0.78802   0.61490   0.27235   0.00000  Uiso   1.00
H382   H     0.76356   0.63121   0.29465   0.00000  Uiso   1.00
H383   H     0.82853   0.62577   0.28152   0.00000  Uiso   1.00
H384   H     0.78564   0.58163   0.28055   0.00000  Uiso   1.00
N385   N     0.88182   0.62599   0.09884   0.00000  Uiso   1.00
H386   H     0.91920   0.63564   0.09711   0.00000  Uiso   1.00
C387   C     0.85075   0.62416   0.05290   0.00000  Uiso   1.00
H388   H     0.87370   0.61107   0.02724   0.00000  Uiso   1.00
H389   H     0.83818   0.65511   0.03995   0.00000  Uiso   1.00
H390   H     0.81587   0.60461   0.05429   0.00000  Uiso   1.00
N391   N     0.77507   0.37582   0.22786   0.00000  Uiso   1.00
H392   H     0.77540   0.36308   0.26096   0.00000  Uiso   1.00
C393   C     0.72455   0.38899   0.20700   0.00000  Uiso   1.00
H394   H     0.69806   0.36210   0.20121   0.00000  Uiso   1.00
H395   H     0.72646   0.40536   0.17298   0.00000  Uiso   1.00
H396   H     0.70894   0.41031   0.23125   0.00000  Uiso   1.00
N397   N     0.76583   0.44802   0.04106   0.00000  Uiso   1.00
H398   H     0.77466   0.41769   0.03677   0.00000  Uiso   1.00
C399   C     0.71149   0.45555   0.02784   0.00000  Uiso   1.00
H400   H     0.68891   0.43584   0.04967   0.00000  Uiso   1.00
H401   H     0.69935   0.44815   0.32346   0.00000  Uiso   1.00
H402   H     0.70295   0.48813   0.03409   0.00000  Uiso   1.00
N403   N     0.90479   0.54845   0.29259   0.00000  Uiso   1.00
H404   H     0.89844   0.57939   0.29497   0.00000  Uiso   1.00
C405   C     0.95818   0.53831   0.30723   0.00000  Uiso   1.00
H406   H     0.98293   0.55602   0.28543   0.00000  Uiso   1.00
H407   H     0.96412   0.50508   0.30214   0.00000  Uiso   1.00
H408   H     0.97004   0.54625   0.01150   0.00000  Uiso   1.00
C409   C     0.16653   0.75420   0.16693   0.00000  Uiso   1.00
C410   C     0.16569   0.91262   0.16620   0.00000  Uiso   1.00
C411   C     0.06793   0.83321   0.15459   0.00000  Uiso   1.00
C412   C     0.26540   0.83324   0.17875   0.00000  Uiso   1.00
C413   C     0.01264   0.83311   0.14795   0.00000  Uiso   1.00
C414   C     0.32069   0.83294   0.18538   0.00000  Uiso   1.00
C415   C     0.19423   0.68936   0.13617   0.00000  Uiso   1.00
C416   C     0.13608   0.97791   0.19632   0.00000  Uiso   1.00
C417   C     0.19099   0.97985   0.13333   0.00000  Uiso   1.00
C418   C     0.13675   0.68764   0.19702   0.00000  Uiso   1.00
C419   C     0.16413   0.95744   0.16514   0.00000  Uiso   1.00
C420   C     0.16632   0.70964   0.16728   0.00000  Uiso   1.00
C421   C     0.13271   0.80881   0.02069   0.00000  Uiso   1.00
C422   C     0.20170   0.85687   0.31276   0.00000  Uiso   1.00
C423   C     0.13302   0.80894   0.30439   0.00000  Uiso   1.00
C424   C     0.20121   0.85690   0.02905   0.00000  Uiso   1.00
Cu425  Cu    0.16667   0.83334   0.21355   0.00000  Uiso   1.00
Cu426  Cu    0.16667   0.83333   0.11978   0.00000  Uiso   1.00
H427   H     0.32598   0.83331   0.11205   0.00000  Uiso   1.00
H428   H     0.00735   0.83262   0.22128   0.00000  Uiso   1.00
H429   H     0.10663   0.78916   0.28226   0.00000  Uiso   1.00
H430   H     0.22882   0.87553   0.05142   0.00000  Uiso   1.00
N431   N     0.16668   0.83334   0.28403   0.00000  Uiso   1.00
N432   N     0.16665   0.83332   0.04931   0.00000  Uiso   1.00
O433   O     0.16666   0.77322   0.20625   0.00000  Uiso   1.00
O434   O     0.16667   0.89345   0.12709   0.00000  Uiso   1.00
O435   O     0.16666   0.77321   0.12706   0.00000  Uiso   1.00
O436   O     0.16667   0.89346   0.20628   0.00000  Uiso   1.00
O437   O     0.09161   0.83334   0.19712   0.00000  Uiso   1.00
O438   O     0.24172   0.83333   0.13621   0.00000  Uiso   1.00
O439   O     0.09161   0.83333   0.11793   0.00000  Uiso   1.00
O440   O     0.24172   0.83334   0.21540   0.00000  Uiso   1.00
N441   N     0.22567   0.71253   0.10800   0.00000  Uiso   1.00
H442   H     0.22593   0.70262   0.07407   0.00000  Uiso   1.00
C443   C     0.27664   0.72271   0.13141   0.00000  Uiso   1.00
H444   H     0.30009   0.69456   0.13643   0.00000  Uiso   1.00
H445   H     0.27467   0.73707   0.16610   0.00000  Uiso   1.00
H446   H     0.29562   0.74491   0.10935   0.00000  Uiso   1.00
N447   N     0.10281   0.95509   0.22288   0.00000  Uiso   1.00
H448   H     0.06449   0.96273   0.21619   0.00000  Uiso   1.00
C449   C     0.12135   0.94824   0.27235   0.00000  Uiso   1.00
H450   H     0.09689   0.96454   0.29465   0.00000  Uiso   1.00
H451   H     0.16187   0.95911   0.28152   0.00000  Uiso   1.00
H452   H     0.11897   0.91496   0.28055   0.00000  Uiso   1.00
N453   N     0.21515   0.95932   0.09884   0.00000  Uiso   1.00
H454   H     0.25253   0.96897   0.09711   0.00000  Uiso   1.00
C455   C     0.18408   0.95749   0.05290   0.00000  Uiso   1.00
H456   H     0.20704   0.94440   0.02724   0.00000  Uiso   1.00
H457   H     0.17151   0.98844   0.03995   0.00000  Uiso   1.00
H458   H     0.14920   0.93794   0.05429   0.00000  Uiso   1.00
N459   N     0.10841   0.70916   0.22786   0.00000  Uiso   1.00
H460   H     0.10874   0.69641   0.26096   0.00000  Uiso   1.00
C461   C     0.05789   0.72233   0.20700   0.00000  Uiso   1.00
H462   H     0.03139   0.69543   0.20121   0.00000  Uiso   1.00
H463   H     0.05979   0.73869   0.17298   0.00000  Uiso   1.00
H464   H     0.04227   0.74364   0.23125   0.00000  Uiso   1.00
N465   N     0.09917   0.78135   0.04106   0.00000  Uiso   1.00
H466   H     0.10800   0.75102   0.03677   0.00000  Uiso   1.00
C467   C     0.04482   0.78888   0.02784   0.00000  Uiso   1.00
H468   H     0.02224   0.76917   0.04967   0.00000  Uiso   1.00
H469   H     0.03268   0.78148   0.32346   0.00000  Uiso   1.00
H470   H     0.03628   0.82146   0.03409   0.00000  Uiso   1.00
N471   N     0.23812   0.88178   0.29259   0.00000  Uiso   1.00
H472   H     0.23177   0.91272   0.29497   0.00000  Uiso   1.00
C473   C     0.29151   0.87164   0.30723   0.00000  Uiso   1.00
H474   H     0.31627   0.88935   0.28543   0.00000  Uiso   1.00
H475   H     0.29746   0.83841   0.30214   0.00000  Uiso   1.00
H476   H     0.30337   0.87959   0.01150   0.00000  Uiso   1.00
C477   C     0.49986   0.75420   0.16693   0.00000  Uiso   1.00
C478   C     0.49903   0.91262   0.16620   0.00000  Uiso   1.00
C479   C     0.40127   0.83321   0.15459   0.00000  Uiso   1.00
C480   C     0.59873   0.83324   0.17875   0.00000  Uiso   1.00
C481   C     0.34597   0.83311   0.14795   0.00000  Uiso   1.00
C482   C     0.65402   0.83294   0.18538   0.00000  Uiso   1.00
C483   C     0.52756   0.68936   0.13617   0.00000  Uiso   1.00
C484   C     0.46941   0.97791   0.19632   0.00000  Uiso   1.00
C485   C     0.52432   0.97985   0.13333   0.00000  Uiso   1.00
C486   C     0.47009   0.68764   0.19702   0.00000  Uiso   1.00
C487   C     0.49747   0.95744   0.16514   0.00000  Uiso   1.00
C488   C     0.49965   0.70964   0.16728   0.00000  Uiso   1.00
C489   C     0.46605   0.80881   0.02069   0.00000  Uiso   1.00
C490   C     0.53504   0.85687   0.31276   0.00000  Uiso   1.00
C491   C     0.46635   0.80894   0.30439   0.00000  Uiso   1.00
C492   C     0.53454   0.85690   0.02905   0.00000  Uiso   1.00
Cu493  Cu    0.50000   0.83334   0.21355   0.00000  Uiso   1.00
Cu494  Cu    0.50000   0.83333   0.11978   0.00000  Uiso   1.00
H495   H     0.65931   0.83331   0.11205   0.00000  Uiso   1.00
H496   H     0.34069   0.83262   0.22128   0.00000  Uiso   1.00
H497   H     0.43997   0.78916   0.28226   0.00000  Uiso   1.00
H498   H     0.56215   0.87553   0.05142   0.00000  Uiso   1.00
N499   N     0.50001   0.83334   0.28403   0.00000  Uiso   1.00
N500   N     0.49999   0.83332   0.04931   0.00000  Uiso   1.00
O501   O     0.50000   0.77322   0.20625   0.00000  Uiso   1.00
O502   O     0.50000   0.89345   0.12709   0.00000  Uiso   1.00
O503   O     0.50000   0.77321   0.12706   0.00000  Uiso   1.00
O504   O     0.50000   0.89346   0.20628   0.00000  Uiso   1.00
O505   O     0.42495   0.83334   0.19712   0.00000  Uiso   1.00
O506   O     0.57505   0.83333   0.13621   0.00000  Uiso   1.00
O507   O     0.42494   0.83333   0.11793   0.00000  Uiso   1.00
O508   O     0.57506   0.83334   0.21540   0.00000  Uiso   1.00
N509   N     0.55900   0.71253   0.10800   0.00000  Uiso   1.00
H510   H     0.55926   0.70262   0.07407   0.00000  Uiso   1.00
C511   C     0.60998   0.72271   0.13141   0.00000  Uiso   1.00
H512   H     0.63342   0.69456   0.13643   0.00000  Uiso   1.00
H513   H     0.60800   0.73707   0.16610   0.00000  Uiso   1.00
H514   H     0.62895   0.74491   0.10935   0.00000  Uiso   1.00
N515   N     0.43614   0.95509   0.22288   0.00000  Uiso   1.00
H516   H     0.39782   0.96273   0.21619   0.00000  Uiso   1.00
C517   C     0.45469   0.94824   0.27235   0.00000  Uiso   1.00
H518   H     0.43023   0.96454   0.29465   0.00000  Uiso   1.00
H519   H     0.49520   0.95911   0.28152   0.00000  Uiso   1.00
H520   H     0.45230   0.91496   0.28055   0.00000  Uiso   1.00
N521   N     0.54849   0.95932   0.09884   0.00000  Uiso   1.00
H522   H     0.58586   0.96897   0.09711   0.00000  Uiso   1.00
C523   C     0.51741   0.95749   0.05290   0.00000  Uiso   1.00
H524   H     0.54037   0.94440   0.02724   0.00000  Uiso   1.00
H525   H     0.50484   0.98844   0.03995   0.00000  Uiso   1.00
H526   H     0.48254   0.93794   0.05429   0.00000  Uiso   1.00
N527   N     0.44174   0.70916   0.22786   0.00000  Uiso   1.00
H528   H     0.44207   0.69641   0.26096   0.00000  Uiso   1.00
C529   C     0.39122   0.72233   0.20700   0.00000  Uiso   1.00
H530   H     0.36473   0.69543   0.20121   0.00000  Uiso   1.00
H531   H     0.39312   0.73869   0.17298   0.00000  Uiso   1.00
H532   H     0.37560   0.74364   0.23125   0.00000  Uiso   1.00
N533   N     0.43250   0.78135   0.04106   0.00000  Uiso   1.00
H534   H     0.44133   0.75102   0.03677   0.00000  Uiso   1.00
C535   C     0.37816   0.78888   0.02784   0.00000  Uiso   1.00
H536   H     0.35558   0.76917   0.04967   0.00000  Uiso   1.00
H537   H     0.36602   0.78148   0.32346   0.00000  Uiso   1.00
H538   H     0.36961   0.82146   0.03409   0.00000  Uiso   1.00
N539   N     0.57145   0.88178   0.29259   0.00000  Uiso   1.00
H540   H     0.56510   0.91272   0.29497   0.00000  Uiso   1.00
C541   C     0.62484   0.87164   0.30723   0.00000  Uiso   1.00
H542   H     0.64960   0.88935   0.28543   0.00000  Uiso   1.00
H543   H     0.63079   0.83841   0.30214   0.00000  Uiso   1.00
H544   H     0.63670   0.87959   0.01150   0.00000  Uiso   1.00
C545   C     0.83320   0.75420   0.16693   0.00000  Uiso   1.00
C546   C     0.83236   0.91262   0.16620   0.00000  Uiso   1.00
C547   C     0.73460   0.83321   0.15459   0.00000  Uiso   1.00
C548   C     0.93206   0.83324   0.17875   0.00000  Uiso   1.00
C549   C     0.67931   0.83311   0.14795   0.00000  Uiso   1.00
C550   C     0.98735   0.83294   0.18538   0.00000  Uiso   1.00
C551   C     0.86089   0.68936   0.13617   0.00000  Uiso   1.00
C552   C     0.80275   0.97791   0.19632   0.00000  Uiso   1.00
C553   C     0.85765   0.97985   0.13333   0.00000  Uiso   1.00
C554   C     0.80342   0.68764   0.19702   0.00000  Uiso   1.00
C555   C     0.83080   0.95744   0.16514   0.00000  Uiso   1.00
C556   C     0.83299   0.70964   0.16728   0.00000  Uiso   1.00
C557   C     0.79938   0.80881   0.02069   0.00000  Uiso   1.00
C558   C     0.86837   0.85687   0.31276   0.00000  Uiso   1.00
C559   C     0.79969   0.80894   0.30439   0.00000  Uiso   1.00
C560   C     0.86787   0.85690   0.02905   0.00000  Uiso   1.00
Cu561  Cu    0.83333   0.83334   0.21355   0.00000  Uiso   1.00
Cu562  Cu    0.83333   0.83333   0.11978   0.00000  Uiso   1.00
H563   H     0.99265   0.83331   0.11205   0.00000  Uiso   1.00
H564   H     0.67402   0.83262   0.22128   0.00000  Uiso   1.00
H565   H     0.77330   0.78916   0.28226   0.00000  Uiso   1.00
H566   H     0.89548   0.87553   0.05142   0.00000  Uiso   1.00
N567   N     0.83335   0.83334   0.28403   0.00000  Uiso   1.00
N568   N     0.83332   0.83332   0.04931   0.00000  Uiso   1.00
O569   O     0.83333   0.77322   0.20625   0.00000  Uiso   1.00
O570   O     0.83334   0.89345   0.12709   0.00000  Uiso   1.00
O571   O     0.83333   0.77321   0.12706   0.00000  Uiso   1.00
O572   O     0.83334   0.89346   0.20628   0.00000  Uiso   1.00
O573   O     0.75828   0.83334   0.19712   0.00000  Uiso   1.00
O574   O     0.90839   0.83333   0.13621   0.00000  Uiso   1.00
O575   O     0.75828   0.83333   0.11793   0.00000  Uiso   1.00
O576   O     0.90839   0.83334   0.21540   0.00000  Uiso   1.00
N577   N     0.89233   0.71253   0.10800   0.00000  Uiso   1.00
H578   H     0.89259   0.70262   0.07407   0.00000  Uiso   1.00
C579   C     0.94331   0.72271   0.13141   0.00000  Uiso   1.00
H580   H     0.96675   0.69456   0.13643   0.00000  Uiso   1.00
H581   H     0.94134   0.73707   0.16610   0.00000  Uiso   1.00
H582   H     0.96228   0.74491   0.10935   0.00000  Uiso   1.00
N583   N     0.76948   0.95509   0.22288   0.00000  Uiso   1.00
H584   H     0.73116   0.96273   0.21619   0.00000  Uiso   1.00
C585   C     0.78802   0.94824   0.27235   0.00000  Uiso   1.00
H586   H     0.76356   0.96454   0.29465   0.00000  Uiso   1.00
H587   H     0.82853   0.95911   0.28152   0.00000  Uiso   1.00
H588   H     0.78564   0.91496   0.28055   0.00000  Uiso   1.00
N589   N     0.88182   0.95932   0.09884   0.00000  Uiso   1.00
H590   H     0.91920   0.96897   0.09711   0.00000  Uiso   1.00
C591   C     0.85075   0.95749   0.05290   0.00000  Uiso   1.00
H592   H     0.87370   0.94440   0.02724   0.00000  Uiso   1.00
H593   H     0.83818   0.98844   0.03995   0.00000  Uiso   1.00
H594   H     0.81587   0.93794   0.05429   0.00000  Uiso   1.00
N595   N     0.77507   0.70916   0.22786   0.00000  Uiso   1.00
H596   H     0.77540   0.69641   0.26096   0.00000  Uiso   1.00
C597   C     0.72455   0.72233   0.20700   0.00000  Uiso   1.00
H598   H     0.69806   0.69543   0.20121   0.00000  Uiso   1.00
H599   H     0.72646   0.73869   0.17298   0.00000  Uiso   1.00
H600   H     0.70894   0.74364   0.23125   0.00000  Uiso   1.00
N601   N     0.76583   0.78135   0.04106   0.00000  Uiso   1.00
H602   H     0.77466   0.75102   0.03677   0.00000  Uiso   1.00
C603   C     0.71149   0.78888   0.02784   0.00000  Uiso   1.00
H604   H     0.68891   0.76917   0.04967   0.00000  Uiso   1.00
H605   H     0.69935   0.78148   0.32346   0.00000  Uiso   1.00
H606   H     0.70295   0.82146   0.03409   0.00000  Uiso   1.00
N607   N     0.90479   0.88178   0.29259   0.00000  Uiso   1.00
H608   H     0.89844   0.91272   0.29497   0.00000  Uiso   1.00
C609   C     0.95818   0.87164   0.30723   0.00000  Uiso   1.00
H610   H     0.98293   0.88935   0.28543   0.00000  Uiso   1.00
H611   H     0.96412   0.83841   0.30214   0.00000  Uiso   1.00
H612   H     0.97004   0.87959   0.01150   0.00000  Uiso   1.00
C613   C     0.16653   0.08753   0.50026   0.00000  Uiso   1.00
C614   C     0.16569   0.24596   0.49953   0.00000  Uiso   1.00
C615   C     0.06793   0.16654   0.48792   0.00000  Uiso   1.00
C616   C     0.26540   0.16658   0.51208   0.00000  Uiso   1.00
C617   C     0.01264   0.16644   0.48129   0.00000  Uiso   1.00
C618   C     0.32069   0.16628   0.51872   0.00000  Uiso   1.00
C619   C     0.19423   0.02269   0.46950   0.00000  Uiso   1.00
C620   C     0.13608   0.31124   0.52965   0.00000  Uiso   1.00
C621   C     0.19099   0.31318   0.46667   0.00000  Uiso   1.00
C622   C     0.13675   0.02097   0.53035   0.00000  Uiso   1.00
C623   C     0.16413   0.29077   0.49848   0.00000  Uiso   1.00
C624   C     0.16632   0.04297   0.50061   0.00000  Uiso   1.00
C625   C     0.13271   0.14214   0.35402   0.00000  Uiso   1.00
C626   C     0.20170   0.19020   0.64609   0.00000  Uiso   1.00
C627   C     0.13302   0.14228   0.63772   0.00000  Uiso   1.00
C628   C     0.20121   0.19023   0.36238   0.00000  Uiso   1.00
Cu629  Cu    0.16667   0.16667   0.54689   0.00000  Uiso   1.00
Cu630  Cu    0.16667   0.16666   0.45311   0.00000  Uiso   1.00
H631   H     0.32598   0.16665   0.44539   0.00000  Uiso   1.00
H632   H     0.00735   0.16596   0.55461   0.00000  Uiso   1.00
H633   H     0.10663   0.12249   0.61559   0.00000  Uiso   1.00
H634   H     0.22882   0.20886   0.38475   0.00000  Uiso   1.00
N635   N     0.16668   0.16668   0.61736   0.00000  Uiso   1.00
N636   N     0.16665   0.16666   0.38264   0.00000  Uiso   1.00
O637   O     0.16666   0.10655   0.53958   0.00000  Uiso   1.00
O638   O     0.16667   0.22678   0.46042   0.00000  Uiso   1.00
O639   O     0.16666   0.10654   0.46039   0.00000  Uiso   1.00
O640   O     0.16667   0.22679   0.53961   0.00000  Uiso   1.00
O641   O     0.09161   0.16667   0.53046   0.00000  Uiso   1.00
O642   O     0.24172   0.16666   0.46954   0.00000  Uiso   1.00
O643   O     0.09161   0.16666   0.45127   0.00000  Uiso   1.00
O644   O     0.24172   0.16667   0.54873   0.00000  Uiso   1.00
N645   N     0.22567   0.04586   0.44133   0.00000  Uiso   1.00
H646   H     0.22593   0.03595   0.40740   0.00000  Uiso   1.00
C647   C     0.27664   0.05604   0.46474   0.00000  Uiso   1.00
H648   H     0.30009   0.02790   0.46977   0.00000  Uiso   1.00
H649   H     0.27467   0.07040   0.49943   0.00000  Uiso   1.00
H650   H     0.29562   0.07825   0.44268   0.00000  Uiso   1.00
N651   N     0.10281   0.28842   0.55621   0.00000  Uiso   1.00
H652   H     0.06449   0.29607   0.54952   0.00000  Uiso   1.00
C653   C     0.12135   0.28157   0.60569   0.00000  Uiso   1.00
H654   H     0.09689   0.29788   0.62798   0.00000  Uiso   1.00
H655   H     0.16187   0.29244   0.61485   0.00000  Uiso   1.00
H656   H     0.11897   0.24829   0.61388   0.00000  Uiso   1.00
N657   N     0.21515   0.29265   0.43217   0.00000  Uiso   1.00
H658   H     0.25253   0.30230   0.43044   0.00000  Uiso   1.00
C659   C     0.18408   0.29082   0.38623   0.00000  Uiso   1.00
H660   H     0.20704   0.27773   0.36057   0.00000  Uiso   1.00
H661   H     0.17151   0.32178   0.37329   0.00000  Uiso   1.00
H662   H     0.14920   0.27128   0.38763   0.00000  Uiso   1.00
N663   N     0.10841   0.04249   0.56119   0.00000  Uiso   1.00
H664   H     0.10874   0.02974   0.59429   0.00000  Uiso   1.00
C665   C     0.05789   0.05566   0.54033   0.00000  Uiso   1.00
H666   H     0.03139   0.02877   0.53454   0.00000  Uiso   1.00
H667   H     0.05979   0.07203   0.50632   0.00000  Uiso   1.00
H668   H     0.04227   0.07697   0.56459   0.00000  Uiso   1.00
N669   N     0.09917   0.11468   0.37439   0.00000  Uiso   1.00
H670   H     0.10800   0.08435   0.37010   0.00000  Uiso   1.00
C671   C     0.04482   0.12221   0.36117   0.00000  Uiso   1.00
H672   H     0.02224   0.10250   0.38301   0.00000  Uiso   1.00
H673   H     0.03268   0.11481   0.65679   0.00000  Uiso   1.00
H674   H     0.03628   0.15479   0.36742   0.00000  Uiso   1.00
N675   N     0.23812   0.21512   0.62592   0.00000  Uiso   1.00
H676   H     0.23177   0.24605   0.62831   0.00000  Uiso   1.00
C677   C     0.29151   0.20497   0.64057   0.00000  Uiso   1.00
H678   H     0.31627   0.22268   0.61876   0.00000  Uiso   1.00
H679   H     0.29746   0.17175   0.63547   0.00000  Uiso   1.00
H680   H     0.30337   0.21292   0.34483   0.00000  Uiso   1.00
C681   C     0.49986   0.08753   0.50026   0.00000  Uiso   1.00
C682   C     0.49903   0.24596   0.49953   0.00000  Uiso   1.00
C683   C     0.40127   0.16654   0.48792   0.00000  Uiso   1.00
C684   C     0.59873   0.16658   0.51208   0.00000  Uiso   1.00
C685   C     0.34597   0.16644   0.48129   0.00000  Uiso   1.00
C686   C     0.65402   0.16628   0.51872   0.00000  Uiso   1.00
C687   C     0.52756   0.02269   0.46950   0.00000  Uiso   1.00
C688   C     0.46941   0.31124   0.52965   0.00000  Uiso   1.00
C689   C     0.52432   0.31318   0.46667   0.00000  Uiso   1.00
C690   C     0.47009   0.02097   0.53035   0.00000  Uiso   1.00
C691   C     0.49747   0.29077   0.49848   0.00000  Uiso   1.00
C692   C     0.49965   0.04297   0.50061   0.00000  Uiso   1.00
C693   C     0.46605   0.14214   0.35402   0.00000  Uiso   1.00
C694   C     0.53504   0.19020   0.64609   0.00000  Uiso   1.00
C695   C     0.46635   0.14228   0.63772   0.00000  Uiso   1.00
C696   C     0.53454   0.19023   0.36238   0.00000  Uiso   1.00
Cu697  Cu    0.50000   0.16667   0.54689   0.00000  Uiso   1.00
Cu698  Cu    0.50000   0.16666   0.45311   0.00000  Uiso   1.00
H699   H     0.65931   0.16665   0.44539   0.00000  Uiso   1.00
H700   H     0.34069   0.16596   0.55461   0.00000  Uiso   1.00
H701   H     0.43997   0.12249   0.61559   0.00000  Uiso   1.00
H702   H     0.56215   0.20886   0.38475   0.00000  Uiso   1.00
N703   N     0.50001   0.16668   0.61736   0.00000  Uiso   1.00
N704   N     0.49999   0.16666   0.38264   0.00000  Uiso   1.00
O705   O     0.50000   0.10655   0.53958   0.00000  Uiso   1.00
O706   O     0.50000   0.22678   0.46042   0.00000  Uiso   1.00
O707   O     0.50000   0.10654   0.46039   0.00000  Uiso   1.00
O708   O     0.50000   0.22679   0.53961   0.00000  Uiso   1.00
O709   O     0.42495   0.16667   0.53046   0.00000  Uiso   1.00
O710   O     0.57505   0.16666   0.46954   0.00000  Uiso   1.00
O711   O     0.42494   0.16666   0.45127   0.00000  Uiso   1.00
O712   O     0.57506   0.16667   0.54873   0.00000  Uiso   1.00
N713   N     0.55900   0.04586   0.44133   0.00000  Uiso   1.00
H714   H     0.55926   0.03595   0.40740   0.00000  Uiso   1.00
C715   C     0.60998   0.05604   0.46474   0.00000  Uiso   1.00
H716   H     0.63342   0.02790   0.46977   0.00000  Uiso   1.00
H717   H     0.60800   0.07040   0.49943   0.00000  Uiso   1.00
H718   H     0.62895   0.07825   0.44268   0.00000  Uiso   1.00
N719   N     0.43614   0.28842   0.55621   0.00000  Uiso   1.00
H720   H     0.39782   0.29607   0.54952   0.00000  Uiso   1.00
C721   C     0.45469   0.28157   0.60569   0.00000  Uiso   1.00
H722   H     0.43023   0.29788   0.62798   0.00000  Uiso   1.00
H723   H     0.49520   0.29244   0.61485   0.00000  Uiso   1.00
H724   H     0.45230   0.24829   0.61388   0.00000  Uiso   1.00
N725   N     0.54849   0.29265   0.43217   0.00000  Uiso   1.00
H726   H     0.58586   0.30230   0.43044   0.00000  Uiso   1.00
C727   C     0.51741   0.29082   0.38623   0.00000  Uiso   1.00
H728   H     0.54037   0.27773   0.36057   0.00000  Uiso   1.00
H729   H     0.50484   0.32178   0.37329   0.00000  Uiso   1.00
H730   H     0.48254   0.27128   0.38763   0.00000  Uiso   1.00
N731   N     0.44174   0.04249   0.56119   0.00000  Uiso   1.00
H732   H     0.44207   0.02974   0.59429   0.00000  Uiso   1.00
C733   C     0.39122   0.05566   0.54033   0.00000  Uiso   1.00
H734   H     0.36473   0.02877   0.53454   0.00000  Uiso   1.00
H735   H     0.39312   0.07203   0.50632   0.00000  Uiso   1.00
H736   H     0.37560   0.07697   0.56459   0.00000  Uiso   1.00
N737   N     0.43250   0.11468   0.37439   0.00000  Uiso   1.00
H738   H     0.44133   0.08435   0.37010   0.00000  Uiso   1.00
C739   C     0.37816   0.12221   0.36117   0.00000  Uiso   1.00
H740   H     0.35558   0.10250   0.38301   0.00000  Uiso   1.00
H741   H     0.36602   0.11481   0.65679   0.00000  Uiso   1.00
H742   H     0.36961   0.15479   0.36742   0.00000  Uiso   1.00
N743   N     0.57145   0.21512   0.62592   0.00000  Uiso   1.00
H744   H     0.56510   0.24605   0.62831   0.00000  Uiso   1.00
C745   C     0.62484   0.20497   0.64057   0.00000  Uiso   1.00
H746   H     0.64960   0.22268   0.61876   0.00000  Uiso   1.00
H747   H     0.63079   0.17175   0.63547   0.00000  Uiso   1.00
H748   H     0.63670   0.21292   0.34483   0.00000  Uiso   1.00
C749   C     0.83320   0.08753   0.50026   0.00000  Uiso   1.00
C750   C     0.83236   0.24596   0.49953   0.00000  Uiso   1.00
C751   C     0.73460   0.16654   0.48792   0.00000  Uiso   1.00
C752   C     0.93206   0.16658   0.51208   0.00000  Uiso   1.00
C753   C     0.67931   0.16644   0.48129   0.00000  Uiso   1.00
C754   C     0.98735   0.16628   0.51872   0.00000  Uiso   1.00
C755   C     0.86089   0.02269   0.46950   0.00000  Uiso   1.00
C756   C     0.80275   0.31124   0.52965   0.00000  Uiso   1.00
C757   C     0.85765   0.31318   0.46667   0.00000  Uiso   1.00
C758   C     0.80342   0.02097   0.53035   0.00000  Uiso   1.00
C759   C     0.83080   0.29077   0.49848   0.00000  Uiso   1.00
C760   C     0.83299   0.04297   0.50061   0.00000  Uiso   1.00
C761   C     0.79938   0.14214   0.35402   0.00000  Uiso   1.00
C762   C     0.86837   0.19020   0.64609   0.00000  Uiso   1.00
C763   C     0.79969   0.14228   0.63772   0.00000  Uiso   1.00
C764   C     0.86787   0.19023   0.36238   0.00000  Uiso   1.00
Cu765  Cu    0.83333   0.16667   0.54689   0.00000  Uiso   1.00
Cu766  Cu    0.83333   0.16666   0.45311   0.00000  Uiso   1.00
H767   H     0.99265   0.16665   0.44539   0.00000  Uiso   1.00
H768   H     0.67402   0.16596   0.55461   0.00000  Uiso   1.00
H769   H     0.77330   0.12249   0.61559   0.00000  Uiso   1.00
H770   H     0.89548   0.20886   0.38475   0.00000  Uiso   1.00
N771   N     0.83335   0.16668   0.61736   0.00000  Uiso   1.00
N772   N     0.83332   0.16666   0.38264   0.00000  Uiso   1.00
O773   O     0.83333   0.10655   0.53958   0.00000  Uiso   1.00
O774   O     0.83334   0.22678   0.46042   0.00000  Uiso   1.00
O775   O     0.83333   0.10654   0.46039   0.00000  Uiso   1.00
O776   O     0.83334   0.22679   0.53961   0.00000  Uiso   1.00
O777   O     0.75828   0.16667   0.53046   0.00000  Uiso   1.00
O778   O     0.90839   0.16666   0.46954   0.00000  Uiso   1.00
O779   O     0.75828   0.16666   0.45127   0.00000  Uiso   1.00
O780   O     0.90839   0.16667   0.54873   0.00000  Uiso   1.00
N781   N     0.89233   0.04586   0.44133   0.00000  Uiso   1.00
H782   H     0.89259   0.03595   0.40740   0.00000  Uiso   1.00
C783   C     0.94331   0.05604   0.46474   0.00000  Uiso   1.00
H784   H     0.96675   0.02790   0.46977   0.00000  Uiso   1.00
H785   H     0.94134   0.07040   0.49943   0.00000  Uiso   1.00
H786   H     0.96228   0.07825   0.44268   0.00000  Uiso   1.00
N787   N     0.76948   0.28842   0.55621   0.00000  Uiso   1.00
H788   H     0.73116   0.29607   0.54952   0.00000  Uiso   1.00
C789   C     0.78802   0.28157   0.60569   0.00000  Uiso   1.00
H790   H     0.76356   0.29788   0.62798   0.00000  Uiso   1.00
H791   H     0.82853   0.29244   0.61485   0.00000  Uiso   1.00
H792   H     0.78564   0.24829   0.61388   0.00000  Uiso   1.00
N793   N     0.88182   0.29265   0.43217   0.00000  Uiso   1.00
H794   H     0.91920   0.30230   0.43044   0.00000  Uiso   1.00
C795   C     0.85075   0.29082   0.38623   0.00000  Uiso   1.00
H796   H     0.87370   0.27773   0.36057   0.00000  Uiso   1.00
H797   H     0.83818   0.32178   0.37329   0.00000  Uiso   1.00
H798   H     0.81587   0.27128   0.38763   0.00000  Uiso   1.00
N799   N     0.77507   0.04249   0.56119   0.00000  Uiso   1.00
H800   H     0.77540   0.02974   0.59429   0.00000  Uiso   1.00
C801   C     0.72455   0.05566   0.54033   0.00000  Uiso   1.00
H802   H     0.69806   0.02877   0.53454   0.00000  Uiso   1.00
H803   H     0.72646   0.07203   0.50632   0.00000  Uiso   1.00
H804   H     0.70894   0.07697   0.56459   0.00000  Uiso   1.00
N805   N     0.76583   0.11468   0.37439   0.00000  Uiso   1.00
H806   H     0.77466   0.08435   0.37010   0.00000  Uiso   1.00
C807   C     0.71149   0.12221   0.36117   0.00000  Uiso   1.00
H808   H     0.68891   0.10250   0.38301   0.00000  Uiso   1.00
H809   H     0.69935   0.11481   0.65679   0.00000  Uiso   1.00
H810   H     0.70295   0.15479   0.36742   0.00000  Uiso   1.00
N811   N     0.90479   0.21512   0.62592   0.00000  Uiso   1.00
H812   H     0.89844   0.24605   0.62831   0.00000  Uiso   1.00
C813   C     0.95818   0.20497   0.64057   0.00000  Uiso   1.00
H814   H     0.98293   0.22268   0.61876   0.00000  Uiso   1.00
H815   H     0.96412   0.17175   0.63547   0.00000  Uiso   1.00
H816   H     0.97004   0.21292   0.34483   0.00000  Uiso   1.00
C817   C     0.16653   0.42086   0.50026   0.00000  Uiso   1.00
C818   C     0.16569   0.57929   0.49953   0.00000  Uiso   1.00
C819   C     0.06793   0.49987   0.48792   0.00000  Uiso   1.00
C820   C     0.26540   0.49991   0.51208   0.00000  Uiso   1.00
C821   C     0.01264   0.49978   0.48129   0.00000  Uiso   1.00
C822   C     0.32069   0.49961   0.51872   0.00000  Uiso   1.00
C823   C     0.19423   0.35603   0.46950   0.00000  Uiso   1.00
C824   C     0.13608   0.64458   0.52965   0.00000  Uiso   1.00
C825   C     0.19099   0.64652   0.46667   0.00000  Uiso   1.00
C826   C     0.13675   0.35431   0.53035   0.00000  Uiso   1.00
C827   C     0.16413   0.62411   0.49848   0.00000  Uiso   1.00
C828   C     0.16632   0.37630   0.50061   0.00000  Uiso   1.00
C829   C     0.13271   0.47547   0.35402   0.00000  Uiso   1.00
C830   C     0.20170   0.52354   0.64609   0.00000  Uiso   1.00
C831   C     0.13302   0.47561   0.63772   0.00000  Uiso   1.00
C832   C     0.20121   0.52356   0.36238   0.00000  Uiso   1.00
Cu833  Cu    0.16667   0.50001   0.54689   0.00000  Uiso   1.00
Cu834  Cu    0.16667   0.49999   0.45311   0.00000  Uiso   1.00
H835   H     0.32598   0.49998   0.44539   0.00000  Uiso   1.00
H836   H     0.00735   0.49929   0.55461   0.00000  Uiso   1.00
H837   H     0.10663   0.45583   0.61559   0.00000  Uiso   1.00
H838   H     0.22882   0.54219   0.38475   0.00000  Uiso   1.00
N839   N     0.16668   0.50001   0.61736   0.00000  Uiso   1.00
N840   N     0.16665   0.49999   0.38264   0.00000  Uiso   1.00
O841   O     0.16666   0.43989   0.53958   0.00000  Uiso   1.00
O842   O     0.16667   0.56011   0.46042   0.00000  Uiso   1.00
O843   O     0.16666   0.43988   0.46039   0.00000  Uiso   1.00
O844   O     0.16667   0.56012   0.53961   0.00000  Uiso   1.00
O845   O     0.09161   0.50000   0.53046   0.00000  Uiso   1.00
O846   O     0.24172   0.50000   0.46954   0.00000  Uiso   1.00
O847   O     0.09161   0.49999   0.45127   0.00000  Uiso   1.00
O848   O     0.24172   0.50001   0.54873   0.00000  Uiso   1.00
N849   N     0.22567   0.37919   0.44133   0.00000  Uiso   1.00
H850   H     0.22593   0.36928   0.40740   0.00000  Uiso   1.00
C851   C     0.27664   0.38937   0.46474   0.00000  Uiso   1.00
H852   H     0.30009   0.36123   0.46977   0.00000  Uiso   1.00
H853   H     0.27467   0.40374   0.49943   0.00000  Uiso   1.00
H854   H     0.29562   0.41158   0.44268   0.00000  Uiso   1.00
N855   N     0.10281   0.62175   0.55621   0.00000  Uiso   1.00
H856   H     0.06449   0.62940   0.54952   0.00000  Uiso   1.00
C857   C     0.12135   0.61490   0.60569   0.00000  Uiso   1.00
H858   H     0.09689   0.63121   0.62798   0.00000  Uiso   1.00
H859   H     0.16187   0.62577   0.61485   0.00000  Uiso   1.00
H860   H     0.11897   0.58163   0.61388   0.00000  Uiso   1.00
N861   N     0.21515   0.62599   0.43217   0.00000  Uiso   1.00
H862   H     0.25253   0.63564   0.43044   0.00000  Uiso   1.00
C863   C     0.18408   0.62416   0.38623   0.00000  Uiso   1.00
H864   H     0.20704   0.61107   0.36057   0.00000  Uiso   1.00
H865   H     0.17151   0.65511   0.37329   0.00000  Uiso   1.00
H866   H     0.14920   0.60461   0.38763   0.00000  Uiso   1.00
N867   N     0.10841   0.37582   0.56119   0.00000  Uiso   1.00
H868   H     0.10874   0.36308   0.59429   0.00000  Uiso   1.00
C869   C     0.05789   0.38899   0.54033   0.00000  Uiso   1.00
H870   H     0.03139   0.36210   0.53454   0.00000  Uiso   1.00
H871   H     0.05979   0.40536   0.50632   0.00000  Uiso   1.00
H872   H     0.04227   0.41031   0.56459   0.00000  Uiso   1.00
N873   N     0.09917   0.44802   0.37439   0.00000  Uiso   1.00
H874   H     0.10800   0.41769   0.37010   0.00000  Uiso   1.00
C875   C     0.04482   0.45555   0.36117   0.00000  Uiso   1.00
H876   H     0.02224   0.43584   0.38301   0.00000  Uiso   1.00
H877   H     0.03268   0.44815   0.65679   0.00000  Uiso   1.00
H878   H     0.03628   0.48813   0.36742   0.00000  Uiso   1.00
N879   N     0.23812   0.54845   0.62592   0.00000  Uiso   1.00
H880   H     0.23177   0.57939   0.62831   0.00000  Uiso   1.00
C881   C     0.29151   0.53831   0.64057   0.00000  Uiso   1.00
H882   H     0.31627   0.55602   0.61876   0.00000  Uiso   1.00
H883   H     0.29746   0.50508   0.63547   0.00000  Uiso   1.00
H884   H     0.30337   0.54625   0.34483   0.00000  Uiso   1.00
C885   C     0.49986   0.42086   0.50026   0.00000  Uiso   1.00
C886   C     0.49903   0.57929   0.49953   0.00000  Uiso   1.00
C887   C     0.40127   0.49987   0.48792   0.00000  Uiso   1.00
C888   C     0.59873   0.49991   0.51208   0.00000  Uiso   1.00
C889   C     0.34597   0.49978   0.48129   0.00000  Uiso   1.00
C890   C     0.65402   0.49961   0.51872   0.00000  Uiso   1.00
C891   C     0.52756   0.35603   0.46950   0.00000  Uiso   1.00
C892   C     0.46941   0.64458   0.52965   0.00000  Uiso   1.00
C893   C     0.52432   0.64652   0.46667   0.00000  Uiso   1.00
C894   C     0.47009   0.35431   0.53035   0.00000  Uiso   1.00
C895   C     0.49747   0.62411   0.49848   0.00000  Uiso   1.00
C896   C     0.49965   0.37630   0.50061   0.00000  Uiso   1.00
C897   C     0.46605   0.47547   0.35402   0.00000  Uiso   1.00
C898   C     0.53504   0.52354   0.64609   0.00000  Uiso   1.00
C899   C     0.46635   0.47561   0.63772   0.00000  Uiso   1.00
C900   C     0.53454   0.52356   0.36238   0.00000  Uiso   1.00
Cu901  Cu    0.50000   0.50001   0.54689   0.00000  Uiso   1.00
Cu902  Cu    0.50000   0.49999   0.45311   0.00000  Uiso   1.00
H903   H     0.65931   0.49998   0.44539   0.00000  Uiso   1.00
H904   H     0.34069   0.49929   0.55461   0.00000  Uiso   1.00
H905   H     0.43997   0.45583   0.61559   0.00000  Uiso   1.00
H906   H     0.56215   0.54219   0.38475   0.00000  Uiso   1.00
N907   N     0.50001   0.50001   0.61736   0.00000  Uiso   1.00
N908   N     0.49999   0.49999   0.38264   0.00000  Uiso   1.00
O909   O     0.50000   0.43989   0.53958   0.00000  Uiso   1.00
O910   O     0.50000   0.56011   0.46042   0.00000  Uiso   1.00
O911   O     0.50000   0.43988   0.46039   0.00000  Uiso   1.00
O912   O     0.50000   0.56012   0.53961   0.00000  Uiso   1.00
O913   O     0.42495   0.50000   0.53046   0.00000  Uiso   1.00
O914   O     0.57505   0.50000   0.46954   0.00000  Uiso   1.00
O915   O     0.42494   0.49999   0.45127   0.00000  Uiso   1.00
O916   O     0.57506   0.50001   0.54873   0.00000  Uiso   1.00
N917   N     0.55900   0.37919   0.44133   0.00000  Uiso   1.00
H918   H     0.55926   0.36928   0.40740   0.00000  Uiso   1.00
C919   C     0.60998   0.38937   0.46474   0.00000  Uiso   1.00
H920   H     0.63342   0.36123   0.46977   0.00000  Uiso   1.00
H921   H     0.60800   0.40374   0.49943   0.00000  Uiso   1.00
H922   H     0.62895   0.41158   0.44268   0.00000  Uiso   1.00
N923   N     0.43614   0.62175   0.55621   0.00000  Uiso   1.00
H924   H     0.39782   0.62940   0.54952   0.00000  Uiso   1.00
C925   C     0.45469   0.61490   0.60569   0.00000  Uiso   1.00
H926   H     0.43023   0.63121   0.62798   0.00000  Uiso   1.00
H927   H     0.49520   0.62577   0.61485   0.00000  Uiso   1.00
H928   H     0.45230   0.58163   0.61388   0.00000  Uiso   1.00
N929   N     0.54849   0.62599   0.43217   0.00000  Uiso   1.00
H930   H     0.58586   0.63564   0.43044   0.00000  Uiso   1.00
C931   C     0.51741   0.62416   0.38623   0.00000  Uiso   1.00
H932   H     0.54037   0.61107   0.36057   0.00000  Uiso   1.00
H933   H     0.50484   0.65511   0.37329   0.00000  Uiso   1.00
H934   H     0.48254   0.60461   0.38763   0.00000  Uiso   1.00
N935   N     0.44174   0.37582   0.56119   0.00000  Uiso   1.00
H936   H     0.44207   0.36308   0.59429   0.00000  Uiso   1.00
C937   C     0.39122   0.38899   0.54033   0.00000  Uiso   1.00
H938   H     0.36473   0.36210   0.53454   0.00000  Uiso   1.00
H939   H     0.39312   0.40536   0.50632   0.00000  Uiso   1.00
H940   H     0.37560   0.41031   0.56459   0.00000  Uiso   1.00
N941   N     0.43250   0.44802   0.37439   0.00000  Uiso   1.00
H942   H     0.44133   0.41769   0.37010   0.00000  Uiso   1.00
C943   C     0.37816   0.45555   0.36117   0.00000  Uiso   1.00
H944   H     0.35558   0.43584   0.38301   0.00000  Uiso   1.00
H945   H     0.36602   0.44815   0.65679   0.00000  Uiso   1.00
H946   H     0.36961   0.48813   0.36742   0.00000  Uiso   1.00
N947   N     0.57145   0.54845   0.62592   0.00000  Uiso   1.00
H948   H     0.56510   0.57939   0.62831   0.00000  Uiso   1.00
C949   C     0.62484   0.53831   0.64057   0.00000  Uiso   1.00
H950   H     0.64960   0.55602   0.61876   0.00000  Uiso   1.00
H951   H     0.63079   0.50508   0.63547   0.00000  Uiso   1.00
H952   H     0.63670   0.54625   0.34483   0.00000  Uiso   1.00
C953   C     0.83320   0.42086   0.50026   0.00000  Uiso   1.00
C954   C     0.83236   0.57929   0.49953   0.00000  Uiso   1.00
C955   C     0.73460   0.49987   0.48792   0.00000  Uiso   1.00
C956   C     0.93206   0.49991   0.51208   0.00000  Uiso   1.00
C957   C     0.67931   0.49978   0.48129   0.00000  Uiso   1.00
C958   C     0.98735   0.49961   0.51872   0.00000  Uiso   1.00
C959   C     0.86089   0.35603   0.46950   0.00000  Uiso   1.00
C960   C     0.80275   0.64458   0.52965   0.00000  Uiso   1.00
C961   C     0.85765   0.64652   0.46667   0.00000  Uiso   1.00
C962   C     0.80342   0.35431   0.53035   0.00000  Uiso   1.00
C963   C     0.83080   0.62411   0.49848   0.00000  Uiso   1.00
C964   C     0.83299   0.37630   0.50061   0.00000  Uiso   1.00
C965   C     0.79938   0.47547   0.35402   0.00000  Uiso   1.00
C966   C     0.86837   0.52354   0.64609   0.00000  Uiso   1.00
C967   C     0.79969   0.47561   0.63772   0.00000  Uiso   1.00
C968   C     0.86787   0.52356   0.36238   0.00000  Uiso   1.00
Cu969  Cu    0.83333   0.50001   0.54689   0.00000  Uiso   1.00
Cu970  Cu    0.83333   0.49999   0.45311   0.00000  Uiso   1.00
H971   H     0.99265   0.49998   0.44539   0.00000  Uiso   1.00
H972   H     0.67402   0.49929   0.55461   0.00000  Uiso   1.00
H973   H     0.77330   0.45583   0.61559   0.00000  Uiso   1.00
H974   H     0.89548   0.54219   0.38475   0.00000  Uiso   1.00
N975   N     0.83335   0.50001   0.61736   0.00000  Uiso   1.00
N976   N     0.83332   0.49999   0.38264   0.00000  Uiso   1.00
O977   O     0.83333   0.43989   0.53958   0.00000  Uiso   1.00
O978   O     0.83334   0.56011   0.46042   0.00000  Uiso   1.00
O979   O     0.83333   0.43988   0.46039   0.00000  Uiso   1.00
O980   O     0.83334   0.56012   0.53961   0.00000  Uiso   1.00
O981   O     0.75828   0.50000   0.53046   0.00000  Uiso   1.00
O982   O     0.90839   0.50000   0.46954   0.00000  Uiso   1.00
O983   O     0.75828   0.49999   0.45127   0.00000  Uiso   1.00
O984   O     0.90839   0.50001   0.54873   0.00000  Uiso   1.00
N985   N     0.89233   0.37919   0.44133   0.00000  Uiso   1.00
H986   H     0.89259   0.36928   0.40740   0.00000  Uiso   1.00
C987   C     0.94331   0.38937   0.46474   0.00000  Uiso   1.00
H988   H     0.96675   0.36123   0.46977   0.00000  Uiso   1.00
H989   H     0.94134   0.40374   0.49943   0.00000  Uiso   1.00
H990   H     0.96228   0.41158   0.44268   0.00000  Uiso   1.00
N991   N     0.76948   0.62175   0.55621   0.00000  Uiso   1.00
H992   H     0.73116   0.62940   0.54952   0.00000  Uiso   1.00
C993   C     0.78802   0.61490   0.60569   0.00000  Uiso   1.00
H994   H     0.76356   0.63121   0.62798   0.00000  Uiso   1.00
H995   H     0.82853   0.62577   0.61485   0.00000  Uiso   1.00
H996   H     0.78564   0.58163   0.61388   0.00000  Uiso   1.00
N997   N     0.88182   0.62599   0.43217   0.00000  Uiso   1.00
H998   H     0.91920   0.63564   0.43044   0.00000  Uiso   1.00
C999   C     0.85075   0.62416   0.38623   0.00000  Uiso   1.00
H1000  H     0.87370   0.61107   0.36057   0.00000  Uiso   1.00
H1001  H     0.83818   0.65511   0.37329   0.00000  Uiso   1.00
H1002  H     0.81587   0.60461   0.38763   0.00000  Uiso   1.00
N1003  N     0.77507   0.37582   0.56119   0.00000  Uiso   1.00
H1004  H     0.77540   0.36308   0.59429   0.00000  Uiso   1.00
C1005  C     0.72455   0.38899   0.54033   0.00000  Uiso   1.00
H1006  H     0.69806   0.36210   0.53454   0.00000  Uiso   1.00
H1007  H     0.72646   0.40536   0.50632   0.00000  Uiso   1.00
H1008  H     0.70894   0.41031   0.56459   0.00000  Uiso   1.00
N1009  N     0.76583   0.44802   0.37439   0.00000  Uiso   1.00
H1010  H     0.77466   0.41769   0.37010   0.00000  Uiso   1.00
C1011  C     0.71149   0.45555   0.36117   0.00000  Uiso   1.00
H1012  H     0.68891   0.43584   0.38301   0.00000  Uiso   1.00
H1013  H     0.69935   0.44815   0.65679   0.00000  Uiso   1.00
H1014  H     0.70295   0.48813   0.36742   0.00000  Uiso   1.00
N1015  N     0.90479   0.54845   0.62592   0.00000  Uiso   1.00
H1016  H     0.89844   0.57939   0.62831   0.00000  Uiso   1.00
C1017  C     0.95818   0.53831   0.64057   0.00000  Uiso   1.00
H1018  H     0.98293   0.55602   0.61876   0.00000  Uiso   1.00
H1019  H     0.96412   0.50508   0.63547   0.00000  Uiso   1.00
H1020  H     0.97004   0.54625   0.34483   0.00000  Uiso   1.00
C1021  C     0.16653   0.75420   0.50026   0.00000  Uiso   1.00
C1022  C     0.16569   0.91262   0.49953   0.00000  Uiso   1.00
C1023  C     0.06793   0.83321   0.48792   0.00000  Uiso   1.00
C1024  C     0.26540   0.83324   0.51208   0.00000  Uiso   1.00
C1025  C     0.01264   0.83311   0.48129   0.00000  Uiso   1.00
C1026  C     0.32069   0.83294   0.51872   0.00000  Uiso   1.00
C1027  C     0.19423   0.68936   0.46950   0.00000  Uiso   1.00
C1028  C     0.13608   0.97791   0.52965   0.00000  Uiso   1.00
C1029  C     0.19099   0.97985   0.46667   0.00000  Uiso   1.00
C1030  C     0.13675   0.68764   0.53035   0.00000  Uiso   1.00
C1031  C     0.16413   0.95744   0.49848   0.00000  Uiso   1.00
C1032  C     0.16632   0.70964   0.50061   0.00000  Uiso   1.00
C1033  C     0.13271   0.80881   0.35402   0.00000  Uiso   1.00
C1034  C     0.20170   0.85687   0.64609   0.00000  Uiso   1.00
C1035  C     0.13302   0.80894   0.63772   0.00000  Uiso   1.00
C1036  C     0.20121   0.85690   0.36238   0.00000  Uiso   1.00
Cu1037 Cu    0.16667   0.83334   0.54689   0.00000  Uiso   1.00
Cu1038 Cu    0.16667   0.83333   0.45311   0.00000  Uiso   1.00
H1039  H     0.32598   0.83331   0.44539   0.00000  Uiso   1.00
H1040  H     0.00735   0.83262   0.55461   0.00000  Uiso   1.00
H1041  H     0.10663   0.78916   0.61559   0.00000  Uiso   1.00
H1042  H     0.22882   0.87553   0.38475   0.00000  Uiso   1.00
N1043  N     0.16668   0.83334   0.61736   0.00000  Uiso   1.00
N1044  N     0.16665   0.83332   0.38264   0.00000  Uiso   1.00
O1045  O     0.16666   0.77322   0.53958   0.00000  Uiso   1.00
O1046  O     0.16667   0.89345   0.46042   0.00000  Uiso   1.00
O1047  O     0.16666   0.77321   0.46039   0.00000  Uiso   1.00
O1048  O     0.16667   0.89346   0.53961   0.00000  Uiso   1.00
O1049  O     0.09161   0.83334   0.53046   0.00000  Uiso   1.00
O1050  O     0.24172   0.83333   0.46954   0.00000  Uiso   1.00
O1051  O     0.09161   0.83333   0.45127   0.00000  Uiso   1.00
O1052  O     0.24172   0.83334   0.54873   0.00000  Uiso   1.00
N1053  N     0.22567   0.71253   0.44133   0.00000  Uiso   1.00
H1054  H     0.22593   0.70262   0.40740   0.00000  Uiso   1.00
C1055  C     0.27664   0.72271   0.46474   0.00000  Uiso   1.00
H1056  H     0.30009   0.69456   0.46977   0.00000  Uiso   1.00
H1057  H     0.27467   0.73707   0.49943   0.00000  Uiso   1.00
H1058  H     0.29562   0.74491   0.44268   0.00000  Uiso   1.00
N1059  N     0.10281   0.95509   0.55621   0.00000  Uiso   1.00
H1060  H     0.06449   0.96273   0.54952   0.00000  Uiso   1.00
C1061  C     0.12135   0.94824   0.60569   0.00000  Uiso   1.00
H1062  H     0.09689   0.96454   0.62798   0.00000  Uiso   1.00
H1063  H     0.16187   0.95911   0.61485   0.00000  Uiso   1.00
H1064  H     0.11897   0.91496   0.61388   0.00000  Uiso   1.00
N1065  N     0.21515   0.95932   0.43217   0.00000  Uiso   1.00
H1066  H     0.25253   0.96897   0.43044   0.00000  Uiso   1.00
C1067  C     0.18408   0.95749   0.38623   0.00000  Uiso   1.00
H1068  H     0.20704   0.94440   0.36057   0.00000  Uiso   1.00
H1069  H     0.17151   0.98844   0.37329   0.00000  Uiso   1.00
H1070  H     0.14920   0.93794   0.38763   0.00000  Uiso   1.00
N1071  N     0.10841   0.70916   0.56119   0.00000  Uiso   1.00
H1072  H     0.10874   0.69641   0.59429   0.00000  Uiso   1.00
C1073  C     0.05789   0.72233   0.54033   0.00000  Uiso   1.00
H1074  H     0.03139   0.69543   0.53454   0.00000  Uiso   1.00
H1075  H     0.05979   0.73869   0.50632   0.00000  Uiso   1.00
H1076  H     0.04227   0.74364   0.56459   0.00000  Uiso   1.00
N1077  N     0.09917   0.78135   0.37439   0.00000  Uiso   1.00
H1078  H     0.10800   0.75102   0.37010   0.00000  Uiso   1.00
C1079  C     0.04482   0.78888   0.36117   0.00000  Uiso   1.00
H1080  H     0.02224   0.76917   0.38301   0.00000  Uiso   1.00
H1081  H     0.03268   0.78148   0.65679   0.00000  Uiso   1.00
H1082  H     0.03628   0.82146   0.36742   0.00000  Uiso   1.00
N1083  N     0.23812   0.88178   0.62592   0.00000  Uiso   1.00
H1084  H     0.23177   0.91272   0.62831   0.00000  Uiso   1.00
C1085  C     0.29151   0.87164   0.64057   0.00000  Uiso   1.00
H1086  H     0.31627   0.88935   0.61876   0.00000  Uiso   1.00
H1087  H     0.29746   0.83841   0.63547   0.00000  Uiso   1.00
H1088  H     0.30337   0.87959   0.34483   0.00000  Uiso   1.00
C1089  C     0.49986   0.75420   0.50026   0.00000  Uiso   1.00
C1090  C     0.49903   0.91262   0.49953   0.00000  Uiso   1.00
C1091  C     0.40127   0.83321   0.48792   0.00000  Uiso   1.00
C1092  C     0.59873   0.83324   0.51208   0.00000  Uiso   1.00
C1093  C     0.34597   0.83311   0.48129   0.00000  Uiso   1.00
C1094  C     0.65402   0.83294   0.51872   0.00000  Uiso   1.00
C1095  C     0.52756   0.68936   0.46950   0.00000  Uiso   1.00
C1096  C     0.46941   0.97791   0.52965   0.00000  Uiso   1.00
C1097  C     0.52432   0.97985   0.46667   0.00000  Uiso   1.00
C1098  C     0.47009   0.68764   0.53035   0.00000  Uiso   1.00
C1099  C     0.49747   0.95744   0.49848   0.00000  Uiso   1.00
C1100  C     0.49965   0.70964   0.50061   0.00000  Uiso   1.00
C1101  C     0.46605   0.80881   0.35402   0.00000  Uiso   1.00
C1102  C     0.53504   0.85687   0.64609   0.00000  Uiso   1.00
C1103  C     0.46635   0.80894   0.63772   0.00000  Uiso   1.00
C1104  C     0.53454   0.85690   0.36238   0.00000  Uiso   1.00
Cu1105 Cu    0.50000   0.83334   0.54689   0.00000  Uiso   1.00
Cu1106 Cu    0.50000   0.83333   0.45311   0.00000  Uiso   1.00
H1107  H     0.65931   0.83331   0.44539   0.00000  Uiso   1.00
H1108  H     0.34069   0.83262   0.55461   0.00000  Uiso   1.00
H1109  H     0.43997   0.78916   0.61559   0.00000  Uiso   1.00
H1110  H     0.56215   0.87553   0.38475   0.00000  Uiso   1.00
N1111  N     0.50001   0.83334   0.61736   0.00000  Uiso   1.00
N1112  N     0.49999   0.83332   0.38264   0.00000  Uiso   1.00
O1113  O     0.50000   0.77322   0.53958   0.00000  Uiso   1.00
O1114  O     0.50000   0.89345   0.46042   0.00000  Uiso   1.00
O1115  O     0.50000   0.77321   0.46039   0.00000  Uiso   1.00
O1116  O     0.50000   0.89346   0.53961   0.00000  Uiso   1.00
O1117  O     0.42495   0.83334   0.53046   0.00000  Uiso   1.00
O1118  O     0.57505   0.83333   0.46954   0.00000  Uiso   1.00
O1119  O     0.42494   0.83333   0.45127   0.00000  Uiso   1.00
O1120  O     0.57506   0.83334   0.54873   0.00000  Uiso   1.00
N1121  N     0.55900   0.71253   0.44133   0.00000  Uiso   1.00
H1122  H     0.55926   0.70262   0.40740   0.00000  Uiso   1.00
C1123  C     0.60998   0.72271   0.46474   0.00000  Uiso   1.00
H1124  H     0.63342   0.69456   0.46977   0.00000  Uiso   1.00
H1125  H     0.60800   0.73707   0.49943   0.00000  Uiso   1.00
H1126  H     0.62895   0.74491   0.44268   0.00000  Uiso   1.00
N1127  N     0.43614   0.95509   0.55621   0.00000  Uiso   1.00
H1128  H     0.39782   0.96273   0.54952   0.00000  Uiso   1.00
C1129  C     0.45469   0.94824   0.60569   0.00000  Uiso   1.00
H1130  H     0.43023   0.96454   0.62798   0.00000  Uiso   1.00
H1131  H     0.49520   0.95911   0.61485   0.00000  Uiso   1.00
H1132  H     0.45230   0.91496   0.61388   0.00000  Uiso   1.00
N1133  N     0.54849   0.95932   0.43217   0.00000  Uiso   1.00
H1134  H     0.58586   0.96897   0.43044   0.00000  Uiso   1.00
C1135  C     0.51741   0.95749   0.38623   0.00000  Uiso   1.00
H1136  H     0.54037   0.94440   0.36057   0.00000  Uiso   1.00
H1137  H     0.50484   0.98844   0.37329   0.00000  Uiso   1.00
H1138  H     0.48254   0.93794   0.38763   0.00000  Uiso   1.00
N1139  N     0.44174   0.70916   0.56119   0.00000  Uiso   1.00
H1140  H     0.44207   0.69641   0.59429   0.00000  Uiso   1.00
C1141  C     0.39122   0.72233   0.54033   0.00000  Uiso   1.00
H1142  H     0.36473   0.69543   0.53454   0.00000  Uiso   1.00
H1143  H     0.39312   0.73869   0.50632   0.00000  Uiso   1.00
H1144  H     0.37560   0.74364   0.56459   0.00000  Uiso   1.00
N1145  N     0.43250   0.78135   0.37439   0.00000  Uiso   1.00
H1146  H     0.44133   0.75102   0.37010   0.00000  Uiso   1.00
C1147  C     0.37816   0.78888   0.36117   0.00000  Uiso   1.00
H1148  H     0.35558   0.76917   0.38301   0.00000  Uiso   1.00
H1149  H     0.36602   0.78148   0.65679   0.00000  Uiso   1.00
H1150  H     0.36961   0.82146   0.36742   0.00000  Uiso   1.00
N1151  N     0.57145   0.88178   0.62592   0.00000  Uiso   1.00
H1152  H     0.56510   0.91272   0.62831   0.00000  Uiso   1.00
C1153  C     0.62484   0.87164   0.64057   0.00000  Uiso   1.00
H1154  H     0.64960   0.88935   0.61876   0.00000  Uiso   1.00
H1155  H     0.63079   0.83841   0.63547   0.00000  Uiso   1.00
H1156  H     0.63670   0.87959   0.34483   0.00000  Uiso   1.00
C1157  C     0.83320   0.75420   0.50026   0.00000  Uiso   1.00
C1158  C     0.83236   0.91262   0.49953   0.00000  Uiso   1.00
C1159  C     0.73460   0.83321   0.48792   0.00000  Uiso   1.00
C1160  C     0.93206   0.83324   0.51208   0.00000  Uiso   1.00
C1161  C     0.67931   0.83311   0.48129   0.00000  Uiso   1.00
C1162  C     0.98735   0.83294   0.51872   0.00000  Uiso   1.00
C1163  C     0.86089   0.68936   0.46950   0.00000  Uiso   1.00
C1164  C     0.80275   0.97791   0.52965   0.00000  Uiso   1.00
C1165  C     0.85765   0.97985   0.46667   0.00000  Uiso   1.00
C1166  C     0.80342   0.68764   0.53035   0.00000  Uiso   1.00
C1167  C     0.83080   0.95744   0.49848   0.00000  Uiso   1.00
C1168  C     0.83299   0.70964   0.50061   0.00000  Uiso   1.00
C1169  C     0.79938   0.80881   0.35402   0.00000  Uiso   1.00
C1170  C     0.86837   0.85687   0.64609   0.00000  Uiso   1.00
C1171  C     0.79969   0.80894   0.63772   0.00000  Uiso   1.00
C1172  C     0.86787   0.85690   0.36238   0.00000  Uiso   1.00
Cu1173 Cu    0.83333   0.83334   0.54689   0.00000  Uiso   1.00
Cu1174 Cu    0.83333   0.83333   0.45311   0.00000  Uiso   1.00
H1175  H     0.99265   0.83331   0.44539   0.00000  Uiso   1.00
H1176  H     0.67402   0.83262   0.55461   0.00000  Uiso   1.00
H1177  H     0.77330   0.78916   0.61559   0.00000  Uiso   1.00
H1178  H     0.89548   0.87553   0.38475   0.00000  Uiso   1.00
N1179  N     0.83335   0.83334   0.61736   0.00000  Uiso   1.00
N1180  N     0.83332   0.83332   0.38264   0.00000  Uiso   1.00
O1181  O     0.83333   0.77322   0.53958   0.00000  Uiso   1.00
O1182  O     0.83334   0.89345   0.46042   0.00000  Uiso   1.00
O1183  O     0.83333   0.77321   0.46039   0.00000  Uiso   1.00
O1184  O     0.83334   0.89346   0.53961   0.00000  Uiso   1.00
O1185  O     0.75828   0.83334   0.53046   0.00000  Uiso   1.00
O1186  O     0.90839   0.83333   0.46954   0.00000  Uiso   1.00
O1187  O     0.75828   0.83333   0.45127   0.00000  Uiso   1.00
O1188  O     0.90839   0.83334   0.54873   0.00000  Uiso   1.00
N1189  N     0.89233   0.71253   0.44133   0.00000  Uiso   1.00
H1190  H     0.89259   0.70262   0.40740   0.00000  Uiso   1.00
C1191  C     0.94331   0.72271   0.46474   0.00000  Uiso   1.00
H1192  H     0.96675   0.69456   0.46977   0.00000  Uiso   1.00
H1193  H     0.94134   0.73707   0.49943   0.00000  Uiso   1.00
H1194  H     0.96228   0.74491   0.44268   0.00000  Uiso   1.00
N1195  N     0.76948   0.95509   0.55621   0.00000  Uiso   1.00
H1196  H     0.73116   0.96273   0.54952   0.00000  Uiso   1.00
C1197  C     0.78802   0.94824   0.60569   0.00000  Uiso   1.00
H1198  H     0.76356   0.96454   0.62798   0.00000  Uiso   1.00
H1199  H     0.82853   0.95911   0.61485   0.00000  Uiso   1.00
H1200  H     0.78564   0.91496   0.61388   0.00000  Uiso   1.00
N1201  N     0.88182   0.95932   0.43217   0.00000  Uiso   1.00
H1202  H     0.91920   0.96897   0.43044   0.00000  Uiso   1.00
C1203  C     0.85075   0.95749   0.38623   0.00000  Uiso   1.00
H1204  H     0.87370   0.94440   0.36057   0.00000  Uiso   1.00
H1205  H     0.83818   0.98844   0.37329   0.00000  Uiso   1.00
H1206  H     0.81587   0.93794   0.38763   0.00000  Uiso   1.00
N1207  N     0.77507   0.70916   0.56119   0.00000  Uiso   1.00
H1208  H     0.77540   0.69641   0.59429   0.00000  Uiso   1.00
C1209  C     0.72455   0.72233   0.54033   0.00000  Uiso   1.00
H1210  H     0.69806   0.69543   0.53454   0.00000  Uiso   1.00
H1211  H     0.72646   0.73869   0.50632   0.00000  Uiso   1.00
H1212  H     0.70894   0.74364   0.56459   0.00000  Uiso   1.00
N1213  N     0.76583   0.78135   0.37439   0.00000  Uiso   1.00
H1214  H     0.77466   0.75102   0.37010   0.00000  Uiso   1.00
C1215  C     0.71149   0.78888   0.36117   0.00000  Uiso   1.00
H1216  H     0.68891   0.76917   0.38301   0.00000  Uiso   1.00
H1217  H     0.69935   0.78148   0.65679   0.00000  Uiso   1.00
H1218  H     0.70295   0.82146   0.36742   0.00000  Uiso   1.00
N1219  N     0.90479   0.88178   0.62592   0.00000  Uiso   1.00
H1220  H     0.89844   0.91272   0.62831   0.00000  Uiso   1.00
C1221  C     0.95818   0.87164   0.64057   0.00000  Uiso   1.00
H1222  H     0.98293   0.88935   0.61876   0.00000  Uiso   1.00
H1223  H     0.96412   0.83841   0.63547   0.00000  Uiso   1.00
H1224  H     0.97004   0.87959   0.34483   0.00000  Uiso   1.00
C1225  C     0.16653   0.08753   0.83359   0.00000  Uiso   1.00
C1226  C     0.16569   0.24596   0.83287   0.00000  Uiso   1.00
C1227  C     0.06793   0.16654   0.82125   0.00000  Uiso   1.00
C1228  C     0.26540   0.16658   0.84542   0.00000  Uiso   1.00
C1229  C     0.01264   0.16644   0.81462   0.00000  Uiso   1.00
C1230  C     0.32069   0.16628   0.85205   0.00000  Uiso   1.00
C1231  C     0.19423   0.02269   0.80283   0.00000  Uiso   1.00
C1232  C     0.13608   0.31124   0.86298   0.00000  Uiso   1.00
C1233  C     0.19099   0.31318   0.80000   0.00000  Uiso   1.00
C1234  C     0.13675   0.02097   0.86368   0.00000  Uiso   1.00
C1235  C     0.16413   0.29077   0.83181   0.00000  Uiso   1.00
C1236  C     0.16632   0.04297   0.83394   0.00000  Uiso   1.00
C1237  C     0.13271   0.14214   0.68735   0.00000  Uiso   1.00
C1238  C     0.20170   0.19020   0.97942   0.00000  Uiso   1.00
C1239  C     0.13302   0.14228   0.97106   0.00000  Uiso   1.00
C1240  C     0.20121   0.19023   0.69572   0.00000  Uiso   1.00
Cu1241 Cu    0.16667   0.16667   0.88022   0.00000  Uiso   1.00
Cu1242 Cu    0.16667   0.16666   0.78645   0.00000  Uiso   1.00
H1243  H     0.32598   0.16665   0.77872   0.00000  Uiso   1.00
H1244  H     0.00735   0.16596   0.88795   0.00000  Uiso   1.00
H1245  H     0.10663   0.12249   0.94893   0.00000  Uiso   1.00
H1246  H     0.22882   0.20886   0.71809   0.00000  Uiso   1.00
N1247  N     0.16668   0.16668   0.95069   0.00000  Uiso   1.00
N1248  N     0.16665   0.16666   0.71597   0.00000  Uiso   1.00
O1249  O     0.16666   0.10655   0.87291   0.00000  Uiso   1.00
O1250  O     0.16667   0.22678   0.79375   0.00000  Uiso   1.00
O1251  O     0.16666   0.10654   0.79372   0.00000  Uiso   1.00
O1252  O     0.16667   0.22679   0.87294   0.00000  Uiso   1.00
O1253  O     0.09161   0.16667   0.86379   0.00000  Uiso   1.00
O1254  O     0.24172   0.16666   0.80288   0.00000  Uiso   1.00
O1255  O     0.09161   0.16666   0.78460   0.00000  Uiso   1.00
O1256  O     0.24172   0.16667   0.88207   0.00000  Uiso   1.00
N1257  N     0.22567   0.04586   0.77467   0.00000  Uiso   1.00
H1258  H     0.22593   0.03595   0.74073   0.00000  Uiso   1.00
C1259  C     0.27664   0.05604   0.79807   0.00000  Uiso   1.00
H1260  H     0.30009   0.02790   0.80310   0.00000  Uiso   1.00
H1261  H     0.27467   0.07040   0.83277   0.00000  Uiso   1.00
H1262  H     0.29562   0.07825   0.77602   0.00000  Uiso   1.00
N1263  N     0.10281   0.28842   0.88954   0.00000  Uiso   1.00
H1264  H     0.06449   0.29607   0.88286   0.00000  Uiso   1.00
C1265  C     0.12135   0.28157   0.93902   0.00000  Uiso   1.00
H1266  H     0.09689   0.29788   0.96132   0.00000  Uiso   1.00
H1267  H     0.16187   0.29244   0.94819   0.00000  Uiso   1.00
H1268  H     0.11897   0.24829   0.94722   0.00000  Uiso   1.00
N1269  N     0.21515   0.29265   0.76551   0.00000  Uiso   1.00
H1270  H     0.25253   0.30230   0.76378   0.00000  Uiso   1.00
C1271  C     0.18408   0.29082   0.71957   0.00000  Uiso   1.00
H1272  H     0.20704   0.27773   0.69390   0.00000  Uiso   1.00
H1273  H     0.17151   0.32178   0.70662   0.00000  Uiso   1.00
H1274  H     0.14920   0.27128   0.72096   0.00000  Uiso   1.00
N1275  N     0.10841   0.04249   0.89452   0.00000  Uiso   1.00
H1276  H     0.10874   0.02974   0.92763   0.00000  Uiso   1.00
C1277  C     0.05789   0.05566   0.87366   0.00000  Uiso   1.00
H1278  H     0.03139   0.02877   0.86787   0.00000  Uiso   1.00
H1279  H     0.05979   0.07203   0.83965   0.00000  Uiso   1.00
H1280  H     0.04227   0.07697   0.89792   0.00000  Uiso   1.00
N1281  N     0.09917   0.11468   0.70773   0.00000  Uiso   1.00
H1282  H     0.10800   0.08435   0.70344   0.00000  Uiso   1.00
C1283  C     0.04482   0.12221   0.69451   0.00000  Uiso   1.00
H1284  H     0.02224   0.10250   0.71634   0.00000  Uiso   1.00
H1285  H     0.03268   0.11481   0.99012   0.00000  Uiso   1.00
H1286  H     0.03628   0.15479   0.70076   0.00000  Uiso   1.00
N1287  N     0.23812   0.21512   0.95925   0.00000  Uiso   1.00
H1288  H     0.23177   0.24605   0.96164   0.00000  Uiso   1.00
C1289  C     0.29151   0.20497   0.97390   0.00000  Uiso   1.00
H1290  H     0.31627   0.22268   0.95210   0.00000  Uiso   1.00
H1291  H     0.29746   0.17175   0.96881   0.00000  Uiso   1.00
H1292  H     0.30337   0.21292   0.67816   0.00000  Uiso   1.00
C1293  C     0.49986   0.08753   0.83359   0.00000  Uiso   1.00
C1294  C     0.49903   0.24596   0.83287   0.00000  Uiso   1.00
C1295  C     0.40127   0.16654   0.82125   0.00000  Uiso   1.00
C1296  C     0.59873   0.16658   0.84542   0.00000  Uiso   1.00
C1297  C     0.34597   0.16644   0.81462   0.00000  Uiso   1.00
C1298  C     0.65402   0.16628   0.85205   0.00000  Uiso   1.00
C1299  C     0.52756   0.02269   0.80283   0.00000  Uiso   1.00
C1300  C     0.46941   0.31124   0.86298   0.00000  Uiso   1.00
C1301  C     0.52432   0.31318   0.80000   0.00000  Uiso   1.00
C1302  C     0.47009   0.02097   0.86368   0.00000  Uiso   1.00
C1303  C     0.49747   0.29077   0.83181   0.00000  Uiso   1.00
C1304  C     0.49965   0.04297   0.83394   0.00000  Uiso   1.00
C1305  C     0.46605   0.14214   0.68735   0.00000  Uiso   1.00
C1306  C     0.53504   0.19020   0.97942   0.00000  Uiso   1.00
C1307  C     0.46635   0.14228   0.97106   0.00000  Uiso   1.00
C1308  C     0.53454   0.19023   0.69572   0.00000  Uiso   1.00
Cu1309 Cu    0.50000   0.16667   0.88022   0.00000  Uiso   1.00
Cu1310 Cu    0.50000   0.16666   0.78645   0.00000  Uiso   1.00
H1311  H     0.65931   0.16665   0.77872   0.00000  Uiso   1.00
H1312  H     0.34069   0.16596   0.88795   0.00000  Uiso   1.00
H1313  H     0.43997   0.12249   0.94893   0.00000  Uiso   1.00
H1314  H     0.56215   0.20886   0.71809   0.00000  Uiso   1.00
N1315  N     0.50001   0.16668   0.95069   0.00000  Uiso   1.00
N1316  N     0.49999   0.16666   0.71597   0.00000  Uiso   1.00
O1317  O     0.50000   0.10655   0.87291   0.00000  Uiso   1.00
O1318  O     0.50000   0.22678   0.79375   0.00000  Uiso   1.00
O1319  O     0.50000   0.10654   0.79372   0.00000  Uiso   1.00
O1320  O     0.50000   0.22679   0.87294   0.00000  Uiso   1.00
O1321  O     0.42495   0.16667   0.86379   0.00000  Uiso   1.00
O1322  O     0.57505   0.16666   0.80288   0.00000  Uiso   1.00
O1323  O     0.42494   0.16666   0.78460   0.00000  Uiso   1.00
O1324  O     0.57506   0.16667   0.88207   0.00000  Uiso   1.00
N1325  N     0.55900   0.04586   0.77467   0.00000  Uiso   1.00
H1326  H     0.55926   0.03595   0.74073   0.00000  Uiso   1.00
C1327  C     0.60998   0.05604   0.79807   0.00000  Uiso   1.00
H1328  H     0.63342   0.02790   0.80310   0.00000  Uiso   1.00
H1329  H     0.60800   0.07040   0.83277   0.00000  Uiso   1.00
H1330  H     0.62895   0.07825   0.77602   0.00000  Uiso   1.00
N1331  N     0.43614   0.28842   0.88954   0.00000  Uiso   1.00
H1332  H     0.39782   0.29607   0.88286   0.00000  Uiso   1.00
C1333  C     0.45469   0.28157   0.93902   0.00000  Uiso   1.00
H1334  H     0.43023   0.29788   0.96132   0.00000  Uiso   1.00
H1335  H     0.49520   0.29244   0.94819   0.00000  Uiso   1.00
H1336  H     0.45230   0.24829   0.94722   0.00000  Uiso   1.00
N1337  N     0.54849   0.29265   0.76551   0.00000  Uiso   1.00
H1338  H     0.58586   0.30230   0.76378   0.00000  Uiso   1.00
C1339  C     0.51741   0.29082   0.71957   0.00000  Uiso   1.00
H1340  H     0.54037   0.27773   0.69390   0.00000  Uiso   1.00
H1341  H     0.50484   0.32178   0.70662   0.00000  Uiso   1.00
H1342  H     0.48254   0.27128   0.72096   0.00000  Uiso   1.00
N1343  N     0.44174   0.04249   0.89452   0.00000  Uiso   1.00
H1344  H     0.44207   0.02974   0.92763   0.00000  Uiso   1.00
C1345  C     0.39122   0.05566   0.87366   0.00000  Uiso   1.00
H1346  H     0.36473   0.02877   0.86787   0.00000  Uiso   1.00
H1347  H     0.39312   0.07203   0.83965   0.00000  Uiso   1.00
H1348  H     0.37560   0.07697   0.89792   0.00000  Uiso   1.00
N1349  N     0.43250   0.11468   0.70773   0.00000  Uiso   1.00
H1350  H     0.44133   0.08435   0.70344   0.00000  Uiso   1.00
C1351  C     0.37816   0.12221   0.69451   0.00000  Uiso   1.00
H1352  H     0.35558   0.10250   0.71634   0.00000  Uiso   1.00
H1353  H     0.36602   0.11481   0.99012   0.00000  Uiso   1.00
H1354  H     0.36961   0.15479   0.70076   0.00000  Uiso   1.00
N1355  N     0.57145   0.21512   0.95925   0.00000  Uiso   1.00
H1356  H     0.56510   0.24605   0.96164   0.00000  Uiso   1.00
C1357  C     0.62484   0.20497   0.97390   0.00000  Uiso   1.00
H1358  H     0.64960   0.22268   0.95210   0.00000  Uiso   1.00
H1359  H     0.63079   0.17175   0.96881   0.00000  Uiso   1.00
H1360  H     0.63670   0.21292   0.67816   0.00000  Uiso   1.00
C1361  C     0.83320   0.08753   0.83359   0.00000  Uiso   1.00
C1362  C     0.83236   0.24596   0.83287   0.00000  Uiso   1.00
C1363  C     0.73460   0.16654   0.82125   0.00000  Uiso   1.00
C1364  C     0.93206   0.16658   0.84542   0.00000  Uiso   1.00
C1365  C     0.67931   0.16644   0.81462   0.00000  Uiso   1.00
C1366  C     0.98735   0.16628   0.85205   0.00000  Uiso   1.00
C1367  C     0.86089   0.02269   0.80283   0.00000  Uiso   1.00
C1368  C     0.80275   0.31124   0.86298   0.00000  Uiso   1.00
C1369  C     0.85765   0.31318   0.80000   0.00000  Uiso   1.00
C1370  C     0.80342   0.02097   0.86368   0.00000  Uiso   1.00
C1371  C     0.83080   0.29077   0.83181   0.00000  Uiso   1.00
C1372  C     0.83299   0.04297   0.83394   0.00000  Uiso   1.00
C1373  C     0.79938   0.14214   0.68735   0.00000  Uiso   1.00
C1374  C     0.86837   0.19020   0.97942   0.00000  Uiso   1.00
C1375  C     0.79969   0.14228   0.97106   0.00000  Uiso   1.00
C1376  C     0.86787   0.19023   0.69572   0.00000  Uiso   1.00
Cu1377 Cu    0.83333   0.16667   0.88022   0.00000  Uiso   1.00
Cu1378 Cu    0.83333   0.16666   0.78645   0.00000  Uiso   1.00
H1379  H     0.99265   0.16665   0.77872   0.00000  Uiso   1.00
H1380  H     0.67402   0.16596   0.88795   0.00000  Uiso   1.00
H1381  H     0.77330   0.12249   0.94893   0.00000  Uiso   1.00
H1382  H     0.89548   0.20886   0.71809   0.00000  Uiso   1.00
N1383  N     0.83335   0.16668   0.95069   0.00000  Uiso   1.00
N1384  N     0.83332   0.16666   0.71597   0.00000  Uiso   1.00
O1385  O     0.83333   0.10655   0.87291   0.00000  Uiso   1.00
O1386  O     0.83334   0.22678   0.79375   0.00000  Uiso   1.00
O1387  O     0.83333   0.10654   0.79372   0.00000  Uiso   1.00
O1388  O     0.83334   0.22679   0.87294   0.00000  Uiso   1.00
O1389  O     0.75828   0.16667   0.86379   0.00000  Uiso   1.00
O1390  O     0.90839   0.16666   0.80288   0.00000  Uiso   1.00
O1391  O     0.75828   0.16666   0.78460   0.00000  Uiso   1.00
O1392  O     0.90839   0.16667   0.88207   0.00000  Uiso   1.00
N1393  N     0.89233   0.04586   0.77467   0.00000  Uiso   1.00
H1394  H     0.89259   0.03595   0.74073   0.00000  Uiso   1.00
C1395  C     0.94331   0.05604   0.79807   0.00000  Uiso   1.00
H1396  H     0.96675   0.02790   0.80310   0.00000  Uiso   1.00
H1397  H     0.94134   0.07040   0.83277   0.00000  Uiso   1.00
H1398  H     0.96228   0.07825   0.77602   0.00000  Uiso   1.00
N1399  N     0.76948   0.28842   0.88954   0.00000  Uiso   1.00
H1400  H     0.73116   0.29607   0.88286   0.00000  Uiso   1.00
C1401  C     0.78802   0.28157   0.93902   0.00000  Uiso   1.00
H1402  H     0.76356   0.29788   0.96132   0.00000  Uiso   1.00
H1403  H     0.82853   0.29244   0.94819   0.00000  Uiso   1.00
H1404  H     0.78564   0.24829   0.94722   0.00000  Uiso   1.00
N1405  N     0.88182   0.29265   0.76551   0.00000  Uiso   1.00
H1406  H     0.91920   0.30230   0.76378   0.00000  Uiso   1.00
C1407  C     0.85075   0.29082   0.71957   0.00000  Uiso   1.00
H1408  H     0.87370   0.27773   0.69390   0.00000  Uiso   1.00
H1409  H     0.83818   0.32178   0.70662   0.00000  Uiso   1.00
H1410  H     0.81587   0.27128   0.72096   0.00000  Uiso   1.00
N1411  N     0.77507   0.04249   0.89452   0.00000  Uiso   1.00
H1412  H     0.77540   0.02974   0.92763   0.00000  Uiso   1.00
C1413  C     0.72455   0.05566   0.87366   0.00000  Uiso   1.00
H1414  H     0.69806   0.02877   0.86787   0.00000  Uiso   1.00
H1415  H     0.72646   0.07203   0.83965   0.00000  Uiso   1.00
H1416  H     0.70894   0.07697   0.89792   0.00000  Uiso   1.00
N1417  N     0.76583   0.11468   0.70773   0.00000  Uiso   1.00
H1418  H     0.77466   0.08435   0.70344   0.00000  Uiso   1.00
C1419  C     0.71149   0.12221   0.69451   0.00000  Uiso   1.00
H1420  H     0.68891   0.10250   0.71634   0.00000  Uiso   1.00
H1421  H     0.69935   0.11481   0.99012   0.00000  Uiso   1.00
H1422  H     0.70295   0.15479   0.70076   0.00000  Uiso   1.00
N1423  N     0.90479   0.21512   0.95925   0.00000  Uiso   1.00
H1424  H     0.89844   0.24605   0.96164   0.00000  Uiso   1.00
C1425  C     0.95818   0.20497   0.97390   0.00000  Uiso   1.00
H1426  H     0.98293   0.22268   0.95210   0.00000  Uiso   1.00
H1427  H     0.96412   0.17175   0.96881   0.00000  Uiso   1.00
H1428  H     0.97004   0.21292   0.67816   0.00000  Uiso   1.00
C1429  C     0.16653   0.42086   0.83359   0.00000  Uiso   1.00
C1430  C     0.16569   0.57929   0.83287   0.00000  Uiso   1.00
C1431  C     0.06793   0.49987   0.82125   0.00000  Uiso   1.00
C1432  C     0.26540   0.49991   0.84542   0.00000  Uiso   1.00
C1433  C     0.01264   0.49978   0.81462   0.00000  Uiso   1.00
C1434  C     0.32069   0.49961   0.85205   0.00000  Uiso   1.00
C1435  C     0.19423   0.35603   0.80283   0.00000  Uiso   1.00
C1436  C     0.13608   0.64458   0.86298   0.00000  Uiso   1.00
C1437  C     0.19099   0.64652   0.80000   0.00000  Uiso   1.00
C1438  C     0.13675   0.35431   0.86368   0.00000  Uiso   1.00
C1439  C     0.16413   0.62411   0.83181   0.00000  Uiso   1.00
C1440  C     0.16632   0.37630   0.83394   0.00000  Uiso   1.00
C1441  C     0.13271   0.47547   0.68735   0.00000  Uiso   1.00
C1442  C     0.20170   0.52354   0.97942   0.00000  Uiso   1.00
C1443  C     0.13302   0.47561   0.97106   0.00000  Uiso   1.00
C1444  C     0.20121   0.52356   0.69572   0.00000  Uiso   1.00
Cu1445 Cu    0.16667   0.50001   0.88022   0.00000  Uiso   1.00
Cu1446 Cu    0.16667   0.49999   0.78645   0.00000  Uiso   1.00
H1447  H     0.32598   0.49998   0.77872   0.00000  Uiso   1.00
H1448  H     0.00735   0.49929   0.88795   0.00000  Uiso   1.00
H1449  H     0.10663   0.45583   0.94893   0.00000  Uiso   1.00
H1450  H     0.22882   0.54219   0.71809   0.00000  Uiso   1.00
N1451  N     0.16668   0.50001   0.95069   0.00000  Uiso   1.00
N1452  N     0.16665   0.49999   0.71597   0.00000  Uiso   1.00
O1453  O     0.16666   0.43989   0.87291   0.00000  Uiso   1.00
O1454  O     0.16667   0.56011   0.79375   0.00000  Uiso   1.00
O1455  O     0.16666   0.43988   0.79372   0.00000  Uiso   1.00
O1456  O     0.16667   0.56012   0.87294   0.00000  Uiso   1.00
O1457  O     0.09161   0.50000   0.86379   0.00000  Uiso   1.00
O1458  O     0.24172   0.50000   0.80288   0.00000  Uiso   1.00
O1459  O     0.09161   0.49999   0.78460   0.00000  Uiso   1.00
O1460  O     0.24172   0.50001   0.88207   0.00000  Uiso   1.00
N1461  N     0.22567   0.37919   0.77467   0.00000  Uiso   1.00
H1462  H     0.22593   0.36928   0.74073   0.00000  Uiso   1.00
C1463  C     0.27664   0.38937   0.79807   0.00000  Uiso   1.00
H1464  H     0.30009   0.36123   0.80310   0.00000  Uiso   1.00
H1465  H     0.27467   0.40374   0.83277   0.00000  Uiso   1.00
H1466  H     0.29562   0.41158   0.77602   0.00000  Uiso   1.00
N1467  N     0.10281   0.62175   0.88954   0.00000  Uiso   1.00
H1468  H     0.06449   0.62940   0.88286   0.00000  Uiso   1.00
C1469  C     0.12135   0.61490   0.93902   0.00000  Uiso   1.00
H1470  H     0.09689   0.63121   0.96132   0.00000  Uiso   1.00
H1471  H     0.16187   0.62577   0.94819   0.00000  Uiso   1.00
H1472  H     0.11897   0.58163   0.94722   0.00000  Uiso   1.00
N1473  N     0.21515   0.62599   0.76551   0.00000  Uiso   1.00
H1474  H     0.25253   0.63564   0.76378   0.00000  Uiso   1.00
C1475  C     0.18408   0.62416   0.71957   0.00000  Uiso   1.00
H1476  H     0.20704   0.61107   0.69390   0.00000  Uiso   1.00
H1477  H     0.17151   0.65511   0.70662   0.00000  Uiso   1.00
H1478  H     0.14920   0.60461   0.72096   0.00000  Uiso   1.00
N1479  N     0.10841   0.37582   0.89452   0.00000  Uiso   1.00
H1480  H     0.10874   0.36308   0.92763   0.00000  Uiso   1.00
C1481  C     0.05789   0.38899   0.87366   0.00000  Uiso   1.00
H1482  H     0.03139   0.36210   0.86787   0.00000  Uiso   1.00
H1483  H     0.05979   0.40536   0.83965   0.00000  Uiso   1.00
H1484  H     0.04227   0.41031   0.89792   0.00000  Uiso   1.00
N1485  N     0.09917   0.44802   0.70773   0.00000  Uiso   1.00
H1486  H     0.10800   0.41769   0.70344   0.00000  Uiso   1.00
C1487  C     0.04482   0.45555   0.69451   0.00000  Uiso   1.00
H1488  H     0.02224   0.43584   0.71634   0.00000  Uiso   1.00
H1489  H     0.03268   0.44815   0.99012   0.00000  Uiso   1.00
H1490  H     0.03628   0.48813   0.70076   0.00000  Uiso   1.00
N1491  N     0.23812   0.54845   0.95925   0.00000  Uiso   1.00
H1492  H     0.23177   0.57939   0.96164   0.00000  Uiso   1.00
C1493  C     0.29151   0.53831   0.97390   0.00000  Uiso   1.00
H1494  H     0.31627   0.55602   0.95210   0.00000  Uiso   1.00
H1495  H     0.29746   0.50508   0.96881   0.00000  Uiso   1.00
H1496  H     0.30337   0.54625   0.67816   0.00000  Uiso   1.00
C1497  C     0.49986   0.42086   0.83359   0.00000  Uiso   1.00
C1498  C     0.49903   0.57929   0.83287   0.00000  Uiso   1.00
C1499  C     0.40127   0.49987   0.82125   0.00000  Uiso   1.00
C1500  C     0.59873   0.49991   0.84542   0.00000  Uiso   1.00
C1501  C     0.34597   0.49978   0.81462   0.00000  Uiso   1.00
C1502  C     0.65402   0.49961   0.85205   0.00000  Uiso   1.00
C1503  C     0.52756   0.35603   0.80283   0.00000  Uiso   1.00
C1504  C     0.46941   0.64458   0.86298   0.00000  Uiso   1.00
C1505  C     0.52432   0.64652   0.80000   0.00000  Uiso   1.00
C1506  C     0.47009   0.35431   0.86368   0.00000  Uiso   1.00
C1507  C     0.49747   0.62411   0.83181   0.00000  Uiso   1.00
C1508  C     0.49965   0.37630   0.83394   0.00000  Uiso   1.00
C1509  C     0.46605   0.47547   0.68735   0.00000  Uiso   1.00
C1510  C     0.53504   0.52354   0.97942   0.00000  Uiso   1.00
C1511  C     0.46635   0.47561   0.97106   0.00000  Uiso   1.00
C1512  C     0.53454   0.52356   0.69572   0.00000  Uiso   1.00
Cu1513 Cu    0.50000   0.50001   0.88022   0.00000  Uiso   1.00
Cu1514 Cu    0.50000   0.49999   0.78645   0.00000  Uiso   1.00
H1515  H     0.65931   0.49998   0.77872   0.00000  Uiso   1.00
H1516  H     0.34069   0.49929   0.88795   0.00000  Uiso   1.00
H1517  H     0.43997   0.45583   0.94893   0.00000  Uiso   1.00
H1518  H     0.56215   0.54219   0.71809   0.00000  Uiso   1.00
N1519  N     0.50001   0.50001   0.95069   0.00000  Uiso   1.00
N1520  N     0.49999   0.49999   0.71597   0.00000  Uiso   1.00
O1521  O     0.50000   0.43989   0.87291   0.00000  Uiso   1.00
O1522  O     0.50000   0.56011   0.79375   0.00000  Uiso   1.00
O1523  O     0.50000   0.43988   0.79372   0.00000  Uiso   1.00
O1524  O     0.50000   0.56012   0.87294   0.00000  Uiso   1.00
O1525  O     0.42495   0.50000   0.86379   0.00000  Uiso   1.00
O1526  O     0.57505   0.50000   0.80288   0.00000  Uiso   1.00
O1527  O     0.42494   0.49999   0.78460   0.00000  Uiso   1.00
O1528  O     0.57506   0.50001   0.88207   0.00000  Uiso   1.00
N1529  N     0.55900   0.37919   0.77467   0.00000  Uiso   1.00
H1530  H     0.55926   0.36928   0.74073   0.00000  Uiso   1.00
C1531  C     0.60998   0.38937   0.79807   0.00000  Uiso   1.00
H1532  H     0.63342   0.36123   0.80310   0.00000  Uiso   1.00
H1533  H     0.60800   0.40374   0.83277   0.00000  Uiso   1.00
H1534  H     0.62895   0.41158   0.77602   0.00000  Uiso   1.00
N1535  N     0.43614   0.62175   0.88954   0.00000  Uiso   1.00
H1536  H     0.39782   0.62940   0.88286   0.00000  Uiso   1.00
C1537  C     0.45469   0.61490   0.93902   0.00000  Uiso   1.00
H1538  H     0.43023   0.63121   0.96132   0.00000  Uiso   1.00
H1539  H     0.49520   0.62577   0.94819   0.00000  Uiso   1.00
H1540  H     0.45230   0.58163   0.94722   0.00000  Uiso   1.00
N1541  N     0.54849   0.62599   0.76551   0.00000  Uiso   1.00
H1542  H     0.58586   0.63564   0.76378   0.00000  Uiso   1.00
C1543  C     0.51741   0.62416   0.71957   0.00000  Uiso   1.00
H1544  H     0.54037   0.61107   0.69390   0.00000  Uiso   1.00
H1545  H     0.50484   0.65511   0.70662   0.00000  Uiso   1.00
H1546  H     0.48254   0.60461   0.72096   0.00000  Uiso   1.00
N1547  N     0.44174   0.37582   0.89452   0.00000  Uiso   1.00
H1548  H     0.44207   0.36308   0.92763   0.00000  Uiso   1.00
C1549  C     0.39122   0.38899   0.87366   0.00000  Uiso   1.00
H1550  H     0.36473   0.36210   0.86787   0.00000  Uiso   1.00
H1551  H     0.39312   0.40536   0.83965   0.00000  Uiso   1.00
H1552  H     0.37560   0.41031   0.89792   0.00000  Uiso   1.00
N1553  N     0.43250   0.44802   0.70773   0.00000  Uiso   1.00
H1554  H     0.44133   0.41769   0.70344   0.00000  Uiso   1.00
C1555  C     0.37816   0.45555   0.69451   0.00000  Uiso   1.00
H1556  H     0.35558   0.43584   0.71634   0.00000  Uiso   1.00
H1557  H     0.36602   0.44815   0.99012   0.00000  Uiso   1.00
H1558  H     0.36961   0.48813   0.70076   0.00000  Uiso   1.00
N1559  N     0.57145   0.54845   0.95925   0.00000  Uiso   1.00
H1560  H     0.56510   0.57939   0.96164   0.00000  Uiso   1.00
C1561  C     0.62484   0.53831   0.97390   0.00000  Uiso   1.00
H1562  H     0.64960   0.55602   0.95210   0.00000  Uiso   1.00
H1563  H     0.63079   0.50508   0.96881   0.00000  Uiso   1.00
H1564  H     0.63670   0.54625   0.67816   0.00000  Uiso   1.00
C1565  C     0.83320   0.42086   0.83359   0.00000  Uiso   1.00
C1566  C     0.83236   0.57929   0.83287   0.00000  Uiso   1.00
C1567  C     0.73460   0.49987   0.82125   0.00000  Uiso   1.00
C1568  C     0.93206   0.49991   0.84542   0.00000  Uiso   1.00
C1569  C     0.67931   0.49978   0.81462   0.00000  Uiso   1.00
C1570  C     0.98735   0.49961   0.85205   0.00000  Uiso   1.00
C1571  C     0.86089   0.35603   0.80283   0.00000  Uiso   1.00
C1572  C     0.80275   0.64458   0.86298   0.00000  Uiso   1.00
C1573  C     0.85765   0.64652   0.80000   0.00000  Uiso   1.00
C1574  C     0.80342   0.35431   0.86368   0.00000  Uiso   1.00
C1575  C     0.83080   0.62411   0.83181   0.00000  Uiso   1.00
C1576  C     0.83299   0.37630   0.83394   0.00000  Uiso   1.00
C1577  C     0.79938   0.47547   0.68735   0.00000  Uiso   1.00
C1578  C     0.86837   0.52354   0.97942   0.00000  Uiso   1.00
C1579  C     0.79969   0.47561   0.97106   0.00000  Uiso   1.00
C1580  C     0.86787   0.52356   0.69572   0.00000  Uiso   1.00
Cu1581 Cu    0.83333   0.50001   0.88022   0.00000  Uiso   1.00
Cu1582 Cu    0.83333   0.49999   0.78645   0.00000  Uiso   1.00
H1583  H     0.99265   0.49998   0.77872   0.00000  Uiso   1.00
H1584  H     0.67402   0.49929   0.88795   0.00000  Uiso   1.00
H1585  H     0.77330   0.45583   0.94893   0.00000  Uiso   1.00
H1586  H     0.89548   0.54219   0.71809   0.00000  Uiso   1.00
N1587  N     0.83335   0.50001   0.95069   0.00000  Uiso   1.00
N1588  N     0.83332   0.49999   0.71597   0.00000  Uiso   1.00
O1589  O     0.83333   0.43989   0.87291   0.00000  Uiso   1.00
O1590  O     0.83334   0.56011   0.79375   0.00000  Uiso   1.00
O1591  O     0.83333   0.43988   0.79372   0.00000  Uiso   1.00
O1592  O     0.83334   0.56012   0.87294   0.00000  Uiso   1.00
O1593  O     0.75828   0.50000   0.86379   0.00000  Uiso   1.00
O1594  O     0.90839   0.50000   0.80288   0.00000  Uiso   1.00
O1595  O     0.75828   0.49999   0.78460   0.00000  Uiso   1.00
O1596  O     0.90839   0.50001   0.88207   0.00000  Uiso   1.00
N1597  N     0.89233   0.37919   0.77467   0.00000  Uiso   1.00
H1598  H     0.89259   0.36928   0.74073   0.00000  Uiso   1.00
C1599  C     0.94331   0.38937   0.79807   0.00000  Uiso   1.00
H1600  H     0.96675   0.36123   0.80310   0.00000  Uiso   1.00
H1601  H     0.94134   0.40374   0.83277   0.00000  Uiso   1.00
H1602  H     0.96228   0.41158   0.77602   0.00000  Uiso   1.00
N1603  N     0.76948   0.62175   0.88954   0.00000  Uiso   1.00
H1604  H     0.73116   0.62940   0.88286   0.00000  Uiso   1.00
C1605  C     0.78802   0.61490   0.93902   0.00000  Uiso   1.00
H1606  H     0.76356   0.63121   0.96132   0.00000  Uiso   1.00
H1607  H     0.82853   0.62577   0.94819   0.00000  Uiso   1.00
H1608  H     0.78564   0.58163   0.94722   0.00000  Uiso   1.00
N1609  N     0.88182   0.62599   0.76551   0.00000  Uiso   1.00
H1610  H     0.91920   0.63564   0.76378   0.00000  Uiso   1.00
C1611  C     0.85075   0.62416   0.71957   0.00000  Uiso   1.00
H1612  H     0.87370   0.61107   0.69390   0.00000  Uiso   1.00
H1613  H     0.83818   0.65511   0.70662   0.00000  Uiso   1.00
H1614  H     0.81587   0.60461   0.72096   0.00000  Uiso   1.00
N1615  N     0.77507   0.37582   0.89452   0.00000  Uiso   1.00
H1616  H     0.77540   0.36308   0.92763   0.00000  Uiso   1.00
C1617  C     0.72455   0.38899   0.87366   0.00000  Uiso   1.00
H1618  H     0.69806   0.36210   0.86787   0.00000  Uiso   1.00
H1619  H     0.72646   0.40536   0.83965   0.00000  Uiso   1.00
H1620  H     0.70894   0.41031   0.89792   0.00000  Uiso   1.00
N1621  N     0.76583   0.44802   0.70773   0.00000  Uiso   1.00
H1622  H     0.77466   0.41769   0.70344   0.00000  Uiso   1.00
C1623  C     0.71149   0.45555   0.69451   0.00000  Uiso   1.00
H1624  H     0.68891   0.43584   0.71634   0.00000  Uiso   1.00
H1625  H     0.69935   0.44815   0.99012   0.00000  Uiso   1.00
H1626  H     0.70295   0.48813   0.70076   0.00000  Uiso   1.00
N1627  N     0.90479   0.54845   0.95925   0.00000  Uiso   1.00
H1628  H     0.89844   0.57939   0.96164   0.00000  Uiso   1.00
C1629  C     0.95818   0.53831   0.97390   0.00000  Uiso   1.00
H1630  H     0.98293   0.55602   0.95210   0.00000  Uiso   1.00
H1631  H     0.96412   0.50508   0.96881   0.00000  Uiso   1.00
H1632  H     0.97004   0.54625   0.67816   0.00000  Uiso   1.00
C1633  C     0.16653   0.75420   0.83359   0.00000  Uiso   1.00
C1634  C     0.16569   0.91262   0.83287   0.00000  Uiso   1.00
C1635  C     0.06793   0.83321   0.82125   0.00000  Uiso   1.00
C1636  C     0.26540   0.83324   0.84542   0.00000  Uiso   1.00
C1637  C     0.01264   0.83311   0.81462   0.00000  Uiso   1.00
C1638  C     0.32069   0.83294   0.85205   0.00000  Uiso   1.00
C1639  C     0.19423   0.68936   0.80283   0.00000  Uiso   1.00
C1640  C     0.13608   0.97791   0.86298   0.00000  Uiso   1.00
C1641  C     0.19099   0.97985   0.80000   0.00000  Uiso   1.00
C1642  C     0.13675   0.68764   0.86368   0.00000  Uiso   1.00
C1643  C     0.16413   0.95744   0.83181   0.00000  Uiso   1.00
C1644  C     0.16632   0.70964   0.83394   0.00000  Uiso   1.00
C1645  C     0.13271   0.80881   0.68735   0.00000  Uiso   1.00
C1646  C     0.20170   0.85687   0.97942   0.00000  Uiso   1.00
C1647  C     0.13302   0.80894   0.97106   0.00000  Uiso   1.00
C1648  C     0.20121   0.85690   0.69572   0.00000  Uiso   1.00
Cu1649 Cu    0.16667   0.83334   0.88022   0.00000  Uiso   1.00
Cu1650 Cu    0.16667   0.83333   0.78645   0.00000  Uiso   1.00
H1651  H     0.32598   0.83331   0.77872   0.00000  Uiso   1.00
H1652  H     0.00735   0.83262   0.88795   0.00000  Uiso   1.00
H1653  H     0.10663   0.78916   0.94893   0.00000  Uiso   1.00
H1654  H     0.22882   0.87553   0.71809   0.00000  Uiso   1.00
N1655  N     0.16668   0.83334   0.95069   0.00000  Uiso   1.00
N1656  N     0.16665   0.83332   0.71597   0.00000  Uiso   1.00
O1657  O     0.16666   0.77322   0.87291   0.00000  Uiso   1.00
O1658  O     0.16667   0.89345   0.79375   0.00000  Uiso   1.00
O1659  O     0.16666   0.77321   0.79372   0.00000  Uiso   1.00
O1660  O     0.16667   0.89346   0.87294   0.00000  Uiso   1.00
O1661  O     0.09161   0.83334   0.86379   0.00000  Uiso   1.00
O1662  O     0.24172   0.83333   0.80288   0.00000  Uiso   1.00
O1663  O     0.09161   0.83333   0.78460   0.00000  Uiso   1.00
O1664  O     0.24172   0.83334   0.88207   0.00000  Uiso   1.00
N1665  N     0.22567   0.71253   0.77467   0.00000  Uiso   1.00
H1666  H     0.22593   0.70262   0.74073   0.00000  Uiso   1.00
C1667  C     0.27664   0.72271   0.79807   0.00000  Uiso   1.00
H1668  H     0.30009   0.69456   0.80310   0.00000  Uiso   1.00
H1669  H     0.27467   0.73707   0.83277   0.00000  Uiso   1.00
H1670  H     0.29562   0.74491   0.77602   0.00000  Uiso   1.00
N1671  N     0.10281   0.95509   0.88954   0.00000  Uiso   1.00
H1672  H     0.06449   0.96273   0.88286   0.00000  Uiso   1.00
C1673  C     0.12135   0.94824   0.93902   0.00000  Uiso   1.00
H1674  H     0.09689   0.96454   0.96132   0.00000  Uiso   1.00
H1675  H     0.16187   0.95911   0.94819   0.00000  Uiso   1.00
H1676  H     0.11897   0.91496   0.94722   0.00000  Uiso   1.00
N1677  N     0.21515   0.95932   0.76551   0.00000  Uiso   1.00
H1678  H     0.25253   0.96897   0.76378   0.00000  Uiso   1.00
C1679  C     0.18408   0.95749   0.71957   0.00000  Uiso   1.00
H1680  H     0.20704   0.94440   0.69390   0.00000  Uiso   1.00
H1681  H     0.17151   0.98844   0.70662   0.00000  Uiso   1.00
H1682  H     0.14920   0.93794   0.72096   0.00000  Uiso   1.00
N1683  N     0.10841   0.70916   0.89452   0.00000  Uiso   1.00
H1684  H     0.10874   0.69641   0.92763   0.00000  Uiso   1.00
C1685  C     0.05789   0.72233   0.87366   0.00000  Uiso   1.00
H1686  H     0.03139   0.69543   0.86787   0.00000  Uiso   1.00
H1687  H     0.05979   0.73869   0.83965   0.00000  Uiso   1.00
H1688  H     0.04227   0.74364   0.89792   0.00000  Uiso   1.00
N1689  N     0.09917   0.78135   0.70773   0.00000  Uiso   1.00
H1690  H     0.10800   0.75102   0.70344   0.00000  Uiso   1.00
C1691  C     0.04482   0.78888   0.69451   0.00000  Uiso   1.00
H1692  H     0.02224   0.76917   0.71634   0.00000  Uiso   1.00
H1693  H     0.03268   0.78148   0.99012   0.00000  Uiso   1.00
H1694  H     0.03628   0.82146   0.70076   0.00000  Uiso   1.00
N1695  N     0.23812   0.88178   0.95925   0.00000  Uiso   1.00
H1696  H     0.23177   0.91272   0.96164   0.00000  Uiso   1.00
C1697  C     0.29151   0.87164   0.97390   0.00000  Uiso   1.00
H1698  H     0.31627   0.88935   0.95210   0.00000  Uiso   1.00
H1699  H     0.29746   0.83841   0.96881   0.00000  Uiso   1.00
H1700  H     0.30337   0.87959   0.67816   0.00000  Uiso   1.00
C1701  C     0.49986   0.75420   0.83359   0.00000  Uiso   1.00
C1702  C     0.49903   0.91262   0.83287   0.00000  Uiso   1.00
C1703  C     0.40127   0.83321   0.82125   0.00000  Uiso   1.00
C1704  C     0.59873   0.83324   0.84542   0.00000  Uiso   1.00
C1705  C     0.34597   0.83311   0.81462   0.00000  Uiso   1.00
C1706  C     0.65402   0.83294   0.85205   0.00000  Uiso   1.00
C1707  C     0.52756   0.68936   0.80283   0.00000  Uiso   1.00
C1708  C     0.46941   0.97791   0.86298   0.00000  Uiso   1.00
C1709  C     0.52432   0.97985   0.80000   0.00000  Uiso   1.00
C1710  C     0.47009   0.68764   0.86368   0.00000  Uiso   1.00
C1711  C     0.49747   0.95744   0.83181   0.00000  Uiso   1.00
C1712  C     0.49965   0.70964   0.83394   0.00000  Uiso   1.00
C1713  C     0.46605   0.80881   0.68735   0.00000  Uiso   1.00
C1714  C     0.53504   0.85687   0.97942   0.00000  Uiso   1.00
C1715  C     0.46635   0.80894   0.97106   0.00000  Uiso   1.00
C1716  C     0.53454   0.85690   0.69572   0.00000  Uiso   1.00
Cu1717 Cu    0.50000   0.83334   0.88022   0.00000  Uiso   1.00
Cu1718 Cu    0.50000   0.83333   0.78645   0.00000  Uiso   1.00
H1719  H     0.65931   0.83331   0.77872   0.00000  Uiso   1.00
H1720  H     0.34069   0.83262   0.88795   0.00000  Uiso   1.00
H1721  H     0.43997   0.78916   0.94893   0.00000  Uiso   1.00
H1722  H     0.56215   0.87553   0.71809   0.00000  Uiso   1.00
N1723  N     0.50001   0.83334   0.95069   0.00000  Uiso   1.00
N1724  N     0.49999   0.83332   0.71597   0.00000  Uiso   1.00
O1725  O     0.50000   0.77322   0.87291   0.00000  Uiso   1.00
O1726  O     0.50000   0.89345   0.79375   0.00000  Uiso   1.00
O1727  O     0.50000   0.77321   0.79372   0.00000  Uiso   1.00
O1728  O     0.50000   0.89346   0.87294   0.00000  Uiso   1.00
O1729  O     0.42495   0.83334   0.86379   0.00000  Uiso   1.00
O1730  O     0.57505   0.83333   0.80288   0.00000  Uiso   1.00
O1731  O     0.42494   0.83333   0.78460   0.00000  Uiso   1.00
O1732  O     0.57506   0.83334   0.88207   0.00000  Uiso   1.00
N1733  N     0.55900   0.71253   0.77467   0.00000  Uiso   1.00
H1734  H     0.55926   0.70262   0.74073   0.00000  Uiso   1.00
C1735  C     0.60998   0.72271   0.79807   0.00000  Uiso   1.00
H1736  H     0.63342   0.69456   0.80310   0.00000  Uiso   1.00
H1737  H     0.60800   0.73707   0.83277   0.00000  Uiso   1.00
H1738  H     0.62895   0.74491   0.77602   0.00000  Uiso   1.00
N1739  N     0.43614   0.95509   0.88954   0.00000  Uiso   1.00
H1740  H     0.39782   0.96273   0.88286   0.00000  Uiso   1.00
C1741  C     0.45469   0.94824   0.93902   0.00000  Uiso   1.00
H1742  H     0.43023   0.96454   0.96132   0.00000  Uiso   1.00
H1743  H     0.49520   0.95911   0.94819   0.00000  Uiso   1.00
H1744  H     0.45230   0.91496   0.94722   0.00000  Uiso   1.00
N1745  N     0.54849   0.95932   0.76551   0.00000  Uiso   1.00
H1746  H     0.58586   0.96897   0.76378   0.00000  Uiso   1.00
C1747  C     0.51741   0.95749   0.71957   0.00000  Uiso   1.00
H1748  H     0.54037   0.94440   0.69390   0.00000  Uiso   1.00
H1749  H     0.50484   0.98844   0.70662   0.00000  Uiso   1.00
H1750  H     0.48254   0.93794   0.72096   0.00000  Uiso   1.00
N1751  N     0.44174   0.70916   0.89452   0.00000  Uiso   1.00
H1752  H     0.44207   0.69641   0.92763   0.00000  Uiso   1.00
C1753  C     0.39122   0.72233   0.87366   0.00000  Uiso   1.00
H1754  H     0.36473   0.69543   0.86787   0.00000  Uiso   1.00
H1755  H     0.39312   0.73869   0.83965   0.00000  Uiso   1.00
H1756  H     0.37560   0.74364   0.89792   0.00000  Uiso   1.00
N1757  N     0.43250   0.78135   0.70773   0.00000  Uiso   1.00
H1758  H     0.44133   0.75102   0.70344   0.00000  Uiso   1.00
C1759  C     0.37816   0.78888   0.69451   0.00000  Uiso   1.00
H1760  H     0.35558   0.76917   0.71634   0.00000  Uiso   1.00
H1761  H     0.36602   0.78148   0.99012   0.00000  Uiso   1.00
H1762  H     0.36961   0.82146   0.70076   0.00000  Uiso   1.00
N1763  N     0.57145   0.88178   0.95925   0.00000  Uiso   1.00
H1764  H     0.56510   0.91272   0.96164   0.00000  Uiso   1.00
C1765  C     0.62484   0.87164   0.97390   0.00000  Uiso   1.00
H1766  H     0.64960   0.88935   0.95210   0.00000  Uiso   1.00
H1767  H     0.63079   0.83841   0.96881   0.00000  Uiso   1.00
H1768  H     0.63670   0.87959   0.67816   0.00000  Uiso   1.00
C1769  C     0.83320   0.75420   0.83359   0.00000  Uiso   1.00
C1770  C     0.83236   0.91262   0.83287   0.00000  Uiso   1.00
C1771  C     0.73460   0.83321   0.82125   0.00000  Uiso   1.00
C1772  C     0.93206   0.83324   0.84542   0.00000  Uiso   1.00
C1773  C     0.67931   0.83311   0.81462   0.00000  Uiso   1.00
C1774  C     0.98735   0.83294   0.85205   0.00000  Uiso   1.00
C1775  C     0.86089   0.68936   0.80283   0.00000  Uiso   1.00
C1776  C     0.80275   0.97791   0.86298   0.00000  Uiso   1.00
C1777  C     0.85765   0.97985   0.80000   0.00000  Uiso   1.00
C1778  C     0.80342   0.68764   0.86368   0.00000  Uiso   1.00
C1779  C     0.83080   0.95744   0.83181   0.00000  Uiso   1.00
C1780  C     0.83299   0.70964   0.83394   0.00000  Uiso   1.00
C1781  C     0.79938   0.80881   0.68735   0.00000  Uiso   1.00
C1782  C     0.86837   0.85687   0.97942   0.00000  Uiso   1.00
C1783  C     0.79969   0.80894   0.97106   0.00000  Uiso   1.00
C1784  C     0.86787   0.85690   0.69572   0.00000  Uiso   1.00
Cu1785 Cu    0.83333   0.83334   0.88022   0.00000  Uiso   1.00
Cu1786 Cu    0.83333   0.83333   0.78645   0.00000  Uiso   1.00
H1787  H     0.99265   0.83331   0.77872   0.00000  Uiso   1.00
H1788  H     0.67402   0.83262   0.88795   0.00000  Uiso   1.00
H1789  H     0.77330   0.78916   0.94893   0.00000  Uiso   1.00
H1790  H     0.89548   0.87553   0.71809   0.00000  Uiso   1.00
N1791  N     0.83335   0.83334   0.95069   0.00000  Uiso   1.00
N1792  N     0.83332   0.83332   0.71597   0.00000  Uiso   1.00
O1793  O     0.83333   0.77322   0.87291   0.00000  Uiso   1.00
O1794  O     0.83334   0.89345   0.79375   0.00000  Uiso   1.00
O1795  O     0.83333   0.77321   0.79372   0.00000  Uiso   1.00
O1796  O     0.83334   0.89346   0.87294   0.00000  Uiso   1.00
O1797  O     0.75828   0.83334   0.86379   0.00000  Uiso   1.00
O1798  O     0.90839   0.83333   0.80288   0.00000  Uiso   1.00
O1799  O     0.75828   0.83333   0.78460   0.00000  Uiso   1.00
O1800  O     0.90839   0.83334   0.88207   0.00000  Uiso   1.00
N1801  N     0.89233   0.71253   0.77467   0.00000  Uiso   1.00
H1802  H     0.89259   0.70262   0.74073   0.00000  Uiso   1.00
C1803  C     0.94331   0.72271   0.79807   0.00000  Uiso   1.00
H1804  H     0.96675   0.69456   0.80310   0.00000  Uiso   1.00
H1805  H     0.94134   0.73707   0.83277   0.00000  Uiso   1.00
H1806  H     0.96228   0.74491   0.77602   0.00000  Uiso   1.00
N1807  N     0.76948   0.95509   0.88954   0.00000  Uiso   1.00
H1808  H     0.73116   0.96273   0.88286   0.00000  Uiso   1.00
C1809  C     0.78802   0.94824   0.93902   0.00000  Uiso   1.00
H1810  H     0.76356   0.96454   0.96132   0.00000  Uiso   1.00
H1811  H     0.82853   0.95911   0.94819   0.00000  Uiso   1.00
H1812  H     0.78564   0.91496   0.94722   0.00000  Uiso   1.00
N1813  N     0.88182   0.95932   0.76551   0.00000  Uiso   1.00
H1814  H     0.91920   0.96897   0.76378   0.00000  Uiso   1.00
C1815  C     0.85075   0.95749   0.71957   0.00000  Uiso   1.00
H1816  H     0.87370   0.94440   0.69390   0.00000  Uiso   1.00
H1817  H     0.83818   0.98844   0.70662   0.00000  Uiso   1.00
H1818  H     0.81587   0.93794   0.72096   0.00000  Uiso   1.00
N1819  N     0.77507   0.70916   0.89452   0.00000  Uiso   1.00
H1820  H     0.77540   0.69641   0.92763   0.00000  Uiso   1.00
C1821  C     0.72455   0.72233   0.87366   0.00000  Uiso   1.00
H1822  H     0.69806   0.69543   0.86787   0.00000  Uiso   1.00
H1823  H     0.72646   0.73869   0.83965   0.00000  Uiso   1.00
H1824  H     0.70894   0.74364   0.89792   0.00000  Uiso   1.00
N1825  N     0.76583   0.78135   0.70773   0.00000  Uiso   1.00
H1826  H     0.77466   0.75102   0.70344   0.00000  Uiso   1.00
C1827  C     0.71149   0.78888   0.69451   0.00000  Uiso   1.00
H1828  H     0.68891   0.76917   0.71634   0.00000  Uiso   1.00
H1829  H     0.69935   0.78148   0.99012   0.00000  Uiso   1.00
H1830  H     0.70295   0.82146   0.70076   0.00000  Uiso   1.00
N1831  N     0.90479   0.88178   0.95925   0.00000  Uiso   1.00
H1832  H     0.89844   0.91272   0.96164   0.00000  Uiso   1.00
C1833  C     0.95818   0.87164   0.97390   0.00000  Uiso   1.00
H1834  H     0.98293   0.88935   0.95210   0.00000  Uiso   1.00
H1835  H     0.96412   0.83841   0.96881   0.00000  Uiso   1.00
H1836  H     0.97004   0.87959   0.67816   0.00000  Uiso   1.00
loop_
_geom_bond_atom_site_label_1
_geom_bond_atom_site_label_2
_geom_bond_distance
_geom_bond_site_symmetry_2
_ccdc_geom_bond_type
C1     C12     1.451   .     S
C1     O27     1.292   .     A
C1     O25     1.291   .     A
C2     O26     1.293   .     A
C2     C11     1.461   .     S
C2     O28     1.297   .     A
C3     C5      1.435   .     S
C3     O31     1.291   .     A
C3     O29     1.288   .     A
C4     O32     1.291   .     A
C4     C6      1.435   .     S
C4     O30     1.288   .     A
C5     C142    1.335   1_455 S
C5     H155    1.087   1_455 S
C6     C73     1.335   .     S
C6     H88     1.087   .     S
C7     C12     1.406   .     A
C7     N33     1.430   .     S
C7     C417    1.399   1_545 S
C8     N39     1.427   .     S
C8     C11     1.412   .     A
C8     C214    1.403   .     S
C9     N45     1.424   .     S
C9     C11     1.414   .     A
C9     C211    1.399   .     S
C10    C12     1.409   .     A
C10    N51     1.427   .     S
C10    C416    1.403   1_545 S
C13    N57     1.419   .     S
C13    N24     1.375   .     A
C13    C1239   1.422   1_554 S
C14    N23     1.374   .     A
C14    N63     1.420   .     S
C14    C628    1.423   .     S
C15    N23     1.362   .     A
C15    H21     1.081   .     S
C15    C625    1.422   .     S
C16    H22     1.081   .     S
C16    N24     1.362   .     A
C16    C1238   1.423   1_554 S
Cu17   O25     1.972   .     S
Cu17   N23     2.018   .     S
Cu17   Cu18    2.685   .     S
Cu17   O29     1.958   .     S
Cu17   O32     1.960   .     S
Cu17   O28     1.967   .     S
Cu18   O30     1.958   .     S
Cu18   O26     1.972   .     S
Cu18   N24     2.018   .     S
Cu18   O31     1.960   .     S
Cu18   O27     1.967   .     S
H19    C73     1.087   .     S
H20    C142    1.087   1_455 S
N33    H34     1.029   .     S
N33    C35     1.444   .     S
C35    H36     1.109   .     S
C35    H37     1.111   .     S
C35    H38     1.110   .     S
N39    C41     1.449   .     S
N39    H40     1.030   .     S
C41    H42     1.111   .     S
C41    H43     1.111   .     S
C41    H44     1.109   .     S
N45    H46     1.031   .     S
N45    C47     1.450   .     S
C47    H50     1.110   .     S
C47    H48     1.106   .     S
C47    H49     1.110   .     S
N51    H52     1.029   .     S
N51    C53     1.445   .     S
C53    H55     1.111   .     S
C53    H56     1.110   .     S
C53    H54     1.108   .     S
N57    H58     1.031   .     S
N57    C59     1.447   .     S
C59    H60     1.110   .     S
C59    H62     1.110   .     S
C59    H1285   1.111   1_554 S
H61    C671    1.111   .     S
N63    C65     1.447   .     S
N63    H64     1.029   .     S
C65    H66     1.110   .     S
C65    H67     1.111   .     S
C65    H680    1.111   .     S
H68    C1289   1.111   1_554 S
C69    C80     1.451   .     S
C69    O95     1.292   .     A
C69    O93     1.291   .     A
C70    O94     1.293   .     A
C70    C79     1.461   .     S
C70    O96     1.297   .     A
C71    C73     1.435   .     S
C71    O99     1.291   .     A
C71    O97     1.288   .     A
C72    O100    1.291   .     A
C72    C74     1.435   .     S
C72    O98     1.288   .     A
C74    C141    1.335   .     S
C74    H156    1.087   .     S
C75    C80     1.406   .     A
C75    N101    1.430   .     S
C75    C485    1.399   1_545 S
C76    N107    1.427   .     S
C76    C79     1.412   .     A
C76    C282    1.403   .     S
C77    N113    1.424   .     S
C77    C79     1.414   .     A
C77    C279    1.399   .     S
C78    C80     1.409   .     A
C78    N119    1.427   .     S
C78    C484    1.403   1_545 S
C81    N125    1.419   .     S
C81    N92     1.375   .     A
C81    C1307   1.422   1_554 S
C82    N91     1.374   .     A
C82    N131    1.420   .     S
C82    C696    1.423   .     S
C83    N91     1.362   .     A
C83    H89     1.081   .     S
C83    C693    1.422   .     S
C84    H90     1.081   .     S
C84    N92     1.362   .     A
C84    C1306   1.423   1_554 S
Cu85   O93     1.972   .     S
Cu85   N91     2.018   .     S
Cu85   Cu86    2.685   .     S
Cu85   O97     1.958   .     S
Cu85   O100    1.960   .     S
Cu85   O96     1.967   .     S
Cu86   O98     1.958   .     S
Cu86   O94     1.972   .     S
Cu86   N92     2.018   .     S
Cu86   O99     1.960   .     S
Cu86   O95     1.967   .     S
H87    C141    1.087   .     S
N101   H102    1.029   .     S
N101   C103    1.444   .     S
C103   H104    1.109   .     S
C103   H105    1.111   .     S
C103   H106    1.110   .     S
N107   C109    1.449   .     S
N107   H108    1.030   .     S
C109   H110    1.111   .     S
C109   H111    1.111   .     S
C109   H112    1.109   .     S
N113   H114    1.031   .     S
N113   C115    1.450   .     S
C115   H118    1.110   .     S
C115   H116    1.106   .     S
C115   H117    1.110   .     S
N119   H120    1.029   .     S
N119   C121    1.445   .     S
C121   H123    1.111   .     S
C121   H124    1.110   .     S
C121   H122    1.108   .     S
N125   H126    1.031   .     S
N125   C127    1.447   .     S
C127   H128    1.110   .     S
C127   H130    1.110   .     S
C127   H1353   1.111   1_554 S
H129   C739    1.111   .     S
N131   C133    1.447   .     S
N131   H132    1.029   .     S
C133   H134    1.110   .     S
C133   H135    1.111   .     S
C133   H748    1.111   .     S
H136   C1357   1.111   1_554 S
C137   C148    1.451   .     S
C137   O163    1.292   .     A
C137   O161    1.291   .     A
C138   O162    1.293   .     A
C138   C147    1.461   .     S
C138   O164    1.297   .     A
C139   C141    1.435   .     S
C139   O167    1.291   .     A
C139   O165    1.288   .     A
C140   O168    1.291   .     A
C140   C142    1.435   .     S
C140   O166    1.288   .     A
C142   C5      1.335   1_655 S
C142   H20     1.087   1_655 S
C143   C148    1.406   .     A
C143   N169    1.430   .     S
C143   C553    1.399   1_545 S
C144   N175    1.427   .     S
C144   C147    1.412   .     A
C144   C350    1.403   .     S
C145   N181    1.424   .     S
C145   C147    1.414   .     A
C145   C347    1.399   .     S
C146   C148    1.409   .     A
C146   N187    1.427   .     S
C146   C552    1.403   1_545 S
C149   N193    1.419   .     S
C149   N160    1.375   .     A
C149   C1375   1.422   1_554 S
C150   N159    1.374   .     A
C150   N199    1.420   .     S
C150   C764    1.423   .     S
C151   N159    1.362   .     A
C151   H157    1.081   .     S
C151   C761    1.422   .     S
C152   H158    1.081   .     S
C152   N160    1.362   .     A
C152   C1374   1.423   1_554 S
Cu153  O161    1.972   .     S
Cu153  N159    2.018   .     S
Cu153  Cu154   2.685   .     S
Cu153  O165    1.958   .     S
Cu153  O168    1.960   .     S
Cu153  O164    1.967   .     S
Cu154  O166    1.958   .     S
Cu154  O162    1.972   .     S
Cu154  N160    2.018   .     S
Cu154  O167    1.960   .     S
Cu154  O163    1.967   .     S
H155   C5      1.087   1_655 S
N169   H170    1.029   .     S
N169   C171    1.444   .     S
C171   H172    1.109   .     S
C171   H173    1.111   .     S
C171   H174    1.110   .     S
N175   C177    1.449   .     S
N175   H176    1.030   .     S
C177   H178    1.111   .     S
C177   H179    1.111   .     S
C177   H180    1.109   .     S
N181   H182    1.031   .     S
N181   C183    1.450   .     S
C183   H186    1.110   .     S
C183   H184    1.106   .     S
C183   H185    1.110   .     S
N187   H188    1.029   .     S
N187   C189    1.445   .     S
C189   H191    1.111   .     S
C189   H192    1.110   .     S
C189   H190    1.108   .     S
N193   H194    1.031   .     S
N193   C195    1.447   .     S
C195   H196    1.110   .     S
C195   H198    1.110   .     S
C195   H1421   1.111   1_554 S
H197   C807    1.111   .     S
N199   C201    1.447   .     S
N199   H200    1.029   .     S
C201   H202    1.110   .     S
C201   H203    1.111   .     S
C201   H816    1.111   .     S
H204   C1425   1.111   1_554 S
C205   C216    1.451   .     S
C205   O231    1.292   .     A
C205   O229    1.291   .     A
C206   O230    1.293   .     A
C206   C215    1.461   .     S
C206   O232    1.297   .     A
C207   C209    1.435   .     S
C207   O235    1.291   .     A
C207   O233    1.288   .     A
C208   O236    1.291   .     A
C208   C210    1.435   .     S
C208   O234    1.288   .     A
C209   C346    1.335   1_455 S
C209   H359    1.087   1_455 S
C210   C277    1.335   .     S
C210   H292    1.087   .     S
C211   C216    1.406   .     A
C211   N237    1.430   .     S
C212   N243    1.427   .     S
C212   C215    1.412   .     A
C212   C418    1.403   .     S
C213   N249    1.424   .     S
C213   C215    1.414   .     A
C213   C415    1.399   .     S
C214   C216    1.409   .     A
C214   N255    1.427   .     S
C217   N261    1.419   .     S
C217   N228    1.375   .     A
C217   C1443   1.422   1_554 S
C218   N227    1.374   .     A
C218   N267    1.420   .     S
C218   C832    1.423   .     S
C219   N227    1.362   .     A
C219   H225    1.081   .     S
C219   C829    1.422   .     S
C220   H226    1.081   .     S
C220   N228    1.362   .     A
C220   C1442   1.423   1_554 S
Cu221  O229    1.972   .     S
Cu221  N227    2.018   .     S
Cu221  Cu222   2.685   .     S
Cu221  O233    1.958   .     S
Cu221  O236    1.960   .     S
Cu221  O232    1.967   .     S
Cu222  O234    1.958   .     S
Cu222  O230    1.972   .     S
Cu222  N228    2.018   .     S
Cu222  O235    1.960   .     S
Cu222  O231    1.967   .     S
H223   C277    1.087   .     S
H224   C346    1.087   1_455 S
N237   H238    1.029   .     S
N237   C239    1.444   .     S
C239   H240    1.109   .     S
C239   H241    1.111   .     S
C239   H242    1.110   .     S
N243   C245    1.449   .     S
N243   H244    1.030   .     S
C245   H246    1.111   .     S
C245   H247    1.111   .     S
C245   H248    1.109   .     S
N249   H250    1.031   .     S
N249   C251    1.450   .     S
C251   H254    1.110   .     S
C251   H252    1.106   .     S
C251   H253    1.110   .     S
N255   H256    1.029   .     S
N255   C257    1.445   .     S
C257   H259    1.111   .     S
C257   H260    1.110   .     S
C257   H258    1.108   .     S
N261   H262    1.031   .     S
N261   C263    1.447   .     S
C263   H264    1.110   .     S
C263   H266    1.110   .     S
C263   H1489   1.111   1_554 S
H265   C875    1.111   .     S
N267   C269    1.447   .     S
N267   H268    1.029   .     S
C269   H270    1.110   .     S
C269   H271    1.111   .     S
C269   H884    1.111   .     S
H272   C1493   1.111   1_554 S
C273   C284    1.451   .     S
C273   O299    1.292   .     A
C273   O297    1.291   .     A
C274   O298    1.293   .     A
C274   C283    1.461   .     S
C274   O300    1.297   .     A
C275   C277    1.435   .     S
C275   O303    1.291   .     A
C275   O301    1.288   .     A
C276   O304    1.291   .     A
C276   C278    1.435   .     S
C276   O302    1.288   .     A
C278   C345    1.335   .     S
C278   H360    1.087   .     S
C279   C284    1.406   .     A
C279   N305    1.430   .     S
C280   N311    1.427   .     S
C280   C283    1.412   .     A
C280   C486    1.403   .     S
C281   N317    1.424   .     S
C281   C283    1.414   .     A
C281   C483    1.399   .     S
C282   C284    1.409   .     A
C282   N323    1.427   .     S
C285   N329    1.419   .     S
C285   N296    1.375   .     A
C285   C1511   1.422   1_554 S
C286   N295    1.374   .     A
C286   N335    1.420   .     S
C286   C900    1.423   .     S
C287   N295    1.362   .     A
C287   H293    1.081   .     S
C287   C897    1.422   .     S
C288   H294    1.081   .     S
C288   N296    1.362   .     A
C288   C1510   1.423   1_554 S
Cu289  O297    1.972   .     S
Cu289  N295    2.018   .     S
Cu289  Cu290   2.685   .     S
Cu289  O301    1.958   .     S
Cu289  O304    1.960   .     S
Cu289  O300    1.967   .     S
Cu290  O302    1.958   .     S
Cu290  O298    1.972   .     S
Cu290  N296    2.018   .     S
Cu290  O303    1.960   .     S
Cu290  O299    1.967   .     S
H291   C345    1.087   .     S
N305   H306    1.029   .     S
N305   C307    1.444   .     S
C307   H308    1.109   .     S
C307   H309    1.111   .     S
C307   H310    1.110   .     S
N311   C313    1.449   .     S
N311   H312    1.030   .     S
C313   H314    1.111   .     S
C313   H315    1.111   .     S
C313   H316    1.109   .     S
N317   H318    1.031   .     S
N317   C319    1.450   .     S
C319   H322    1.110   .     S
C319   H320    1.106   .     S
C319   H321    1.110   .     S
N323   H324    1.029   .     S
N323   C325    1.445   .     S
C325   H327    1.111   .     S
C325   H328    1.110   .     S
C325   H326    1.108   .     S
N329   H330    1.031   .     S
N329   C331    1.447   .     S
C331   H332    1.110   .     S
C331   H334    1.110   .     S
C331   H1557   1.111   1_554 S
H333   C943    1.111   .     S
N335   C337    1.447   .     S
N335   H336    1.029   .     S
C337   H338    1.110   .     S
C337   H339    1.111   .     S
C337   H952    1.111   .     S
H340   C1561   1.111   1_554 S
C341   C352    1.451   .     S
C341   O367    1.292   .     A
C341   O365    1.291   .     A
C342   O366    1.293   .     A
C342   C351    1.461   .     S
C342   O368    1.297   .     A
C343   C345    1.435   .     S
C343   O371    1.291   .     A
C343   O369    1.288   .     A
C344   O372    1.291   .     A
C344   C346    1.435   .     S
C344   O370    1.288   .     A
C346   C209    1.335   1_655 S
C346   H224    1.087   1_655 S
C347   C352    1.406   .     A
C347   N373    1.430   .     S
C348   N379    1.427   .     S
C348   C351    1.412   .     A
C348   C554    1.403   .     S
C349   N385    1.424   .     S
C349   C351    1.414   .     A
C349   C551    1.399   .     S
C350   C352    1.409   .     A
C350   N391    1.427   .     S
C353   N397    1.419   .     S
C353   N364    1.375   .     A
C353   C1579   1.422   1_554 S
C354   N363    1.374   .     A
C354   N403    1.420   .     S
C354   C968    1.423   .     S
C355   N363    1.362   .     A
C355   H361    1.081   .     S
C355   C965    1.422   .     S
C356   H362    1.081   .     S
C356   N364    1.362   .     A
C356   C1578   1.423   1_554 S
Cu357  O365    1.972   .     S
Cu357  N363    2.018   .     S
Cu357  Cu358   2.685   .     S
Cu357  O369    1.958   .     S
Cu357  O372    1.960   .     S
Cu357  O368    1.967   .     S
Cu358  O370    1.958   .     S
Cu358  O366    1.972   .     S
Cu358  N364    2.018   .     S
Cu358  O371    1.960   .     S
Cu358  O367    1.967   .     S
H359   C209    1.087   1_655 S
N373   H374    1.029   .     S
N373   C375    1.444   .     S
C375   H376    1.109   .     S
C375   H377    1.111   .     S
C375   H378    1.110   .     S
N379   C381    1.449   .     S
N379   H380    1.030   .     S
C381   H382    1.111   .     S
C381   H383    1.111   .     S
C381   H384    1.109   .     S
N385   H386    1.031   .     S
N385   C387    1.450   .     S
C387   H390    1.110   .     S
C387   H388    1.106   .     S
C387   H389    1.110   .     S
N391   H392    1.029   .     S
N391   C393    1.445   .     S
C393   H395    1.111   .     S
C393   H396    1.110   .     S
C393   H394    1.108   .     S
N397   H398    1.031   .     S
N397   C399    1.447   .     S
C399   H400    1.110   .     S
C399   H402    1.110   .     S
C399   H1625   1.111   1_554 S
H401   C1011   1.111   .     S
N403   C405    1.447   .     S
N403   H404    1.029   .     S
C405   H406    1.110   .     S
C405   H407    1.111   .     S
C405   H1020   1.111   .     S
H408   C1629   1.111   1_554 S
C409   C420    1.451   .     S
C409   O435    1.292   .     A
C409   O433    1.291   .     A
C410   O434    1.293   .     A
C410   C419    1.461   .     S
C410   O436    1.297   .     A
C411   C413    1.435   .     S
C411   O439    1.291   .     A
C411   O437    1.288   .     A
C412   O440    1.291   .     A
C412   C414    1.435   .     S
C412   O438    1.288   .     A
C413   C550    1.335   1_455 S
C413   H563    1.087   1_455 S
C414   C481    1.335   .     S
C414   H496    1.087   .     S
C415   C420    1.406   .     A
C415   N441    1.430   .     S
C416   N447    1.427   .     S
C416   C419    1.412   .     A
C416   C10     1.403   1_565 S
C417   N453    1.424   .     S
C417   C419    1.414   .     A
C417   C7      1.399   1_565 S
C418   C420    1.409   .     A
C418   N459    1.427   .     S
C421   N465    1.419   .     S
C421   N432    1.375   .     A
C421   C1647   1.422   1_554 S
C422   N431    1.374   .     A
C422   N471    1.420   .     S
C422   C1036   1.423   .     S
C423   N431    1.362   .     A
C423   H429    1.081   .     S
C423   C1033   1.422   .     S
C424   H430    1.081   .     S
C424   N432    1.362   .     A
C424   C1646   1.423   1_554 S
Cu425  O433    1.972   .     S
Cu425  N431    2.018   .     S
Cu425  Cu426   2.685   .     S
Cu425  O437    1.958   .     S
Cu425  O440    1.960   .     S
Cu425  O436    1.967   .     S
Cu426  O438    1.958   .     S
Cu426  O434    1.972   .     S
Cu426  N432    2.018   .     S
Cu426  O439    1.960   .     S
Cu426  O435    1.967   .     S
H427   C481    1.087   .     S
H428   C550    1.087   1_455 S
N441   H442    1.029   .     S
N441   C443    1.444   .     S
C443   H444    1.109   .     S
C443   H445    1.111   .     S
C443   H446    1.110   .     S
N447   C449    1.449   .     S
N447   H448    1.030   .     S
C449   H450    1.111   .     S
C449   H451    1.111   .     S
C449   H452    1.109   .     S
N453   H454    1.031   .     S
N453   C455    1.450   .     S
C455   H458    1.110   .     S
C455   H456    1.106   .     S
C455   H457    1.110   .     S
N459   H460    1.029   .     S
N459   C461    1.445   .     S
C461   H463    1.111   .     S
C461   H464    1.110   .     S
C461   H462    1.108   .     S
N465   H466    1.031   .     S
N465   C467    1.447   .     S
C467   H468    1.110   .     S
C467   H470    1.110   .     S
C467   H1693   1.111   1_554 S
H469   C1079   1.111   .     S
N471   C473    1.447   .     S
N471   H472    1.029   .     S
C473   H474    1.110   .     S
C473   H475    1.111   .     S
C473   H1088   1.111   .     S
H476   C1697   1.111   1_554 S
C477   C488    1.451   .     S
C477   O503    1.292   .     A
C477   O501    1.291   .     A
C478   O502    1.293   .     A
C478   C487    1.461   .     S
C478   O504    1.297   .     A
C479   C481    1.435   .     S
C479   O507    1.291   .     A
C479   O505    1.288   .     A
C480   O508    1.291   .     A
C480   C482    1.435   .     S
C480   O506    1.288   .     A
C482   C549    1.335   .     S
C482   H564    1.087   .     S
C483   C488    1.406   .     A
C483   N509    1.430   .     S
C484   N515    1.427   .     S
C484   C487    1.412   .     A
C484   C78     1.403   1_565 S
C485   N521    1.424   .     S
C485   C487    1.414   .     A
C485   C75     1.399   1_565 S
C486   C488    1.409   .     A
C486   N527    1.427   .     S
C489   N533    1.419   .     S
C489   N500    1.375   .     A
C489   C1715   1.422   1_554 S
C490   N499    1.374   .     A
C490   N539    1.420   .     S
C490   C1104   1.423   .     S
C491   N499    1.362   .     A
C491   H497    1.081   .     S
C491   C1101   1.422   .     S
C492   H498    1.081   .     S
C492   N500    1.362   .     A
C492   C1714   1.423   1_554 S
Cu493  O501    1.972   .     S
Cu493  N499    2.018   .     S
Cu493  Cu494   2.685   .     S
Cu493  O505    1.958   .     S
Cu493  O508    1.960   .     S
Cu493  O504    1.967   .     S
Cu494  O506    1.958   .     S
Cu494  O502    1.972   .     S
Cu494  N500    2.018   .     S
Cu494  O507    1.960   .     S
Cu494  O503    1.967   .     S
H495   C549    1.087   .     S
N509   H510    1.029   .     S
N509   C511    1.444   .     S
C511   H512    1.109   .     S
C511   H513    1.111   .     S
C511   H514    1.110   .     S
N515   C517    1.449   .     S
N515   H516    1.030   .     S
C517   H518    1.111   .     S
C517   H519    1.111   .     S
C517   H520    1.109   .     S
N521   H522    1.031   .     S
N521   C523    1.450   .     S
C523   H526    1.110   .     S
C523   H524    1.106   .     S
C523   H525    1.110   .     S
N527   H528    1.029   .     S
N527   C529    1.445   .     S
C529   H531    1.111   .     S
C529   H532    1.110   .     S
C529   H530    1.108   .     S
N533   H534    1.031   .     S
N533   C535    1.447   .     S
C535   H536    1.110   .     S
C535   H538    1.110   .     S
C535   H1761   1.111   1_554 S
H537   C1147   1.111   .     S
N539   C541    1.447   .     S
N539   H540    1.029   .     S
C541   H542    1.110   .     S
C541   H543    1.111   .     S
C541   H1156   1.111   .     S
H544   C1765   1.111   1_554 S
C545   C556    1.451   .     S
C545   O571    1.292   .     A
C545   O569    1.291   .     A
C546   O570    1.293   .     A
C546   C555    1.461   .     S
C546   O572    1.297   .     A
C547   C549    1.435   .     S
C547   O575    1.291   .     A
C547   O573    1.288   .     A
C548   O576    1.291   .     A
C548   C550    1.435   .     S
C548   O574    1.288   .     A
C550   C413    1.335   1_655 S
C550   H428    1.087   1_655 S
C551   C556    1.406   .     A
C551   N577    1.430   .     S
C552   N583    1.427   .     S
C552   C555    1.412   .     A
C552   C146    1.403   1_565 S
C553   N589    1.424   .     S
C553   C555    1.414   .     A
C553   C143    1.399   1_565 S
C554   C556    1.409   .     A
C554   N595    1.427   .     S
C557   N601    1.419   .     S
C557   N568    1.375   .     A
C557   C1783   1.422   1_554 S
C558   N567    1.374   .     A
C558   N607    1.420   .     S
C558   C1172   1.423   .     S
C559   N567    1.362   .     A
C559   H565    1.081   .     S
C559   C1169   1.422   .     S
C560   H566    1.081   .     S
C560   N568    1.362   .     A
C560   C1782   1.423   1_554 S
Cu561  O569    1.972   .     S
Cu561  N567    2.018   .     S
Cu561  Cu562   2.685   .     S
Cu561  O573    1.958   .     S
Cu561  O576    1.960   .     S
Cu561  O572    1.967   .     S
Cu562  O574    1.958   .     S
Cu562  O570    1.972   .     S
Cu562  N568    2.018   .     S
Cu562  O575    1.960   .     S
Cu562  O571    1.967   .     S
H563   C413    1.087   1_655 S
N577   H578    1.029   .     S
N577   C579    1.444   .     S
C579   H580    1.109   .     S
C579   H581    1.111   .     S
C579   H582    1.110   .     S
N583   C585    1.449   .     S
N583   H584    1.030   .     S
C585   H586    1.111   .     S
C585   H587    1.111   .     S
C585   H588    1.109   .     S
N589   H590    1.031   .     S
N589   C591    1.450   .     S
C591   H594    1.110   .     S
C591   H592    1.106   .     S
C591   H593    1.110   .     S
N595   H596    1.029   .     S
N595   C597    1.445   .     S
C597   H599    1.111   .     S
C597   H600    1.110   .     S
C597   H598    1.108   .     S
N601   H602    1.031   .     S
N601   C603    1.447   .     S
C603   H604    1.110   .     S
C603   H606    1.110   .     S
C603   H1829   1.111   1_554 S
H605   C1215   1.111   .     S
N607   C609    1.447   .     S
N607   H608    1.029   .     S
C609   H610    1.110   .     S
C609   H611    1.111   .     S
C609   H1224   1.111   .     S
H612   C1833   1.111   1_554 S
C613   C624    1.451   .     S
C613   O639    1.292   .     A
C613   O637    1.291   .     A
C614   O638    1.293   .     A
C614   C623    1.461   .     S
C614   O640    1.297   .     A
C615   C617    1.435   .     S
C615   O643    1.291   .     A
C615   O641    1.288   .     A
C616   O644    1.291   .     A
C616   C618    1.435   .     S
C616   O642    1.288   .     A
C617   C754    1.335   1_455 S
C617   H767    1.087   1_455 S
C618   C685    1.335   .     S
C618   H700    1.087   .     S
C619   C624    1.406   .     A
C619   N645    1.430   .     S
C619   C1029   1.399   1_545 S
C620   N651    1.427   .     S
C620   C623    1.412   .     A
C620   C826    1.403   .     S
C621   N657    1.424   .     S
C621   C623    1.414   .     A
C621   C823    1.399   .     S
C622   C624    1.409   .     A
C622   N663    1.427   .     S
C622   C1028   1.403   1_545 S
C625   N669    1.419   .     S
C625   N636    1.375   .     A
C626   N635    1.374   .     A
C626   N675    1.420   .     S
C626   C1240   1.423   .     S
C627   N635    1.362   .     A
C627   H633    1.081   .     S
C627   C1237   1.422   .     S
C628   H634    1.081   .     S
C628   N636    1.362   .     A
Cu629  O637    1.972   .     S
Cu629  N635    2.018   .     S
Cu629  Cu630   2.685   .     S
Cu629  O641    1.958   .     S
Cu629  O644    1.960   .     S
Cu629  O640    1.967   .     S
Cu630  O642    1.958   .     S
Cu630  O638    1.972   .     S
Cu630  N636    2.018   .     S
Cu630  O643    1.960   .     S
Cu630  O639    1.967   .     S
H631   C685    1.087   .     S
H632   C754    1.087   1_455 S
N645   H646    1.029   .     S
N645   C647    1.444   .     S
C647   H648    1.109   .     S
C647   H649    1.111   .     S
C647   H650    1.110   .     S
N651   C653    1.449   .     S
N651   H652    1.030   .     S
C653   H654    1.111   .     S
C653   H655    1.111   .     S
C653   H656    1.109   .     S
N657   H658    1.031   .     S
N657   C659    1.450   .     S
C659   H662    1.110   .     S
C659   H660    1.106   .     S
C659   H661    1.110   .     S
N663   H664    1.029   .     S
N663   C665    1.445   .     S
C665   H667    1.111   .     S
C665   H668    1.110   .     S
C665   H666    1.108   .     S
N669   H670    1.031   .     S
N669   C671    1.447   .     S
C671   H672    1.110   .     S
C671   H674    1.110   .     S
H673   C1283   1.111   .     S
N675   C677    1.447   .     S
N675   H676    1.029   .     S
C677   H678    1.110   .     S
C677   H679    1.111   .     S
C677   H1292   1.111   .     S
C681   C692    1.451   .     S
C681   O707    1.292   .     A
C681   O705    1.291   .     A
C682   O706    1.293   .     A
C682   C691    1.461   .     S
C682   O708    1.297   .     A
C683   C685    1.435   .     S
C683   O711    1.291   .     A
C683   O709    1.288   .     A
C684   O712    1.291   .     A
C684   C686    1.435   .     S
C684   O710    1.288   .     A
C686   C753    1.335   .     S
C686   H768    1.087   .     S
C687   C692    1.406   .     A
C687   N713    1.430   .     S
C687   C1097   1.399   1_545 S
C688   N719    1.427   .     S
C688   C691    1.412   .     A
C688   C894    1.403   .     S
C689   N725    1.424   .     S
C689   C691    1.414   .     A
C689   C891    1.399   .     S
C690   C692    1.409   .     A
C690   N731    1.427   .     S
C690   C1096   1.403   1_545 S
C693   N737    1.419   .     S
C693   N704    1.375   .     A
C694   N703    1.374   .     A
C694   N743    1.420   .     S
C694   C1308   1.423   .     S
C695   N703    1.362   .     A
C695   H701    1.081   .     S
C695   C1305   1.422   .     S
C696   H702    1.081   .     S
C696   N704    1.362   .     A
Cu697  O705    1.972   .     S
Cu697  N703    2.018   .     S
Cu697  Cu698   2.685   .     S
Cu697  O709    1.958   .     S
Cu697  O712    1.960   .     S
Cu697  O708    1.967   .     S
Cu698  O710    1.958   .     S
Cu698  O706    1.972   .     S
Cu698  N704    2.018   .     S
Cu698  O711    1.960   .     S
Cu698  O707    1.967   .     S
H699   C753    1.087   .     S
N713   H714    1.029   .     S
N713   C715    1.444   .     S
C715   H716    1.109   .     S
C715   H717    1.111   .     S
C715   H718    1.110   .     S
N719   C721    1.449   .     S
N719   H720    1.030   .     S
C721   H722    1.111   .     S
C721   H723    1.111   .     S
C721   H724    1.109   .     S
N725   H726    1.031   .     S
N725   C727    1.450   .     S
C727   H730    1.110   .     S
C727   H728    1.106   .     S
C727   H729    1.110   .     S
N731   H732    1.029   .     S
N731   C733    1.445   .     S
C733   H735    1.111   .     S
C733   H736    1.110   .     S
C733   H734    1.108   .     S
N737   H738    1.031   .     S
N737   C739    1.447   .     S
C739   H740    1.110   .     S
C739   H742    1.110   .     S
H741   C1351   1.111   .     S
N743   C745    1.447   .     S
N743   H744    1.029   .     S
C745   H746    1.110   .     S
C745   H747    1.111   .     S
C745   H1360   1.111   .     S
C749   C760    1.451   .     S
C749   O775    1.292   .     A
C749   O773    1.291   .     A
C750   O774    1.293   .     A
C750   C759    1.461   .     S
C750   O776    1.297   .     A
C751   C753    1.435   .     S
C751   O779    1.291   .     A
C751   O777    1.288   .     A
C752   O780    1.291   .     A
C752   C754    1.435   .     S
C752   O778    1.288   .     A
C754   C617    1.335   1_655 S
C754   H632    1.087   1_655 S
C755   C760    1.406   .     A
C755   N781    1.430   .     S
C755   C1165   1.399   1_545 S
C756   N787    1.427   .     S
C756   C759    1.412   .     A
C756   C962    1.403   .     S
C757   N793    1.424   .     S
C757   C759    1.414   .     A
C757   C959    1.399   .     S
C758   C760    1.409   .     A
C758   N799    1.427   .     S
C758   C1164   1.403   1_545 S
C761   N805    1.419   .     S
C761   N772    1.375   .     A
C762   N771    1.374   .     A
C762   N811    1.420   .     S
C762   C1376   1.423   .     S
C763   N771    1.362   .     A
C763   H769    1.081   .     S
C763   C1373   1.422   .     S
C764   H770    1.081   .     S
C764   N772    1.362   .     A
Cu765  O773    1.972   .     S
Cu765  N771    2.018   .     S
Cu765  Cu766   2.685   .     S
Cu765  O777    1.958   .     S
Cu765  O780    1.960   .     S
Cu765  O776    1.967   .     S
Cu766  O778    1.958   .     S
Cu766  O774    1.972   .     S
Cu766  N772    2.018   .     S
Cu766  O779    1.960   .     S
Cu766  O775    1.967   .     S
H767   C617    1.087   1_655 S
N781   H782    1.029   .     S
N781   C783    1.444   .     S
C783   H784    1.109   .     S
C783   H785    1.111   .     S
C783   H786    1.110   .     S
N787   C789    1.449   .     S
N787   H788    1.030   .     S
C789   H790    1.111   .     S
C789   H791    1.111   .     S
C789   H792    1.109   .     S
N793   H794    1.031   .     S
N793   C795    1.450   .     S
C795   H798    1.110   .     S
C795   H796    1.106   .     S
C795   H797    1.110   .     S
N799   H800    1.029   .     S
N799   C801    1.445   .     S
C801   H803    1.111   .     S
C801   H804    1.110   .     S
C801   H802    1.108   .     S
N805   H806    1.031   .     S
N805   C807    1.447   .     S
C807   H808    1.110   .     S
C807   H810    1.110   .     S
H809   C1419   1.111   .     S
N811   C813    1.447   .     S
N811   H812    1.029   .     S
C813   H814    1.110   .     S
C813   H815    1.111   .     S
C813   H1428   1.111   .     S
C817   C828    1.451   .     S
C817   O843    1.292   .     A
C817   O841    1.291   .     A
C818   O842    1.293   .     A
C818   C827    1.461   .     S
C818   O844    1.297   .     A
C819   C821    1.435   .     S
C819   O847    1.291   .     A
C819   O845    1.288   .     A
C820   O848    1.291   .     A
C820   C822    1.435   .     S
C820   O846    1.288   .     A
C821   C958    1.335   1_455 S
C821   H971    1.087   1_455 S
C822   C889    1.335   .     S
C822   H904    1.087   .     S
C823   C828    1.406   .     A
C823   N849    1.430   .     S
C824   N855    1.427   .     S
C824   C827    1.412   .     A
C824   C1030   1.403   .     S
C825   N861    1.424   .     S
C825   C827    1.414   .     A
C825   C1027   1.399   .     S
C826   C828    1.409   .     A
C826   N867    1.427   .     S
C829   N873    1.419   .     S
C829   N840    1.375   .     A
C830   N839    1.374   .     A
C830   N879    1.420   .     S
C830   C1444   1.423   .     S
C831   N839    1.362   .     A
C831   H837    1.081   .     S
C831   C1441   1.422   .     S
C832   H838    1.081   .     S
C832   N840    1.362   .     A
Cu833  O841    1.972   .     S
Cu833  N839    2.018   .     S
Cu833  Cu834   2.685   .     S
Cu833  O845    1.958   .     S
Cu833  O848    1.960   .     S
Cu833  O844    1.967   .     S
Cu834  O846    1.958   .     S
Cu834  O842    1.972   .     S
Cu834  N840    2.018   .     S
Cu834  O847    1.960   .     S
Cu834  O843    1.967   .     S
H835   C889    1.087   .     S
H836   C958    1.087   1_455 S
N849   H850    1.029   .     S
N849   C851    1.444   .     S
C851   H852    1.109   .     S
C851   H853    1.111   .     S
C851   H854    1.110   .     S
N855   C857    1.449   .     S
N855   H856    1.030   .     S
C857   H858    1.111   .     S
C857   H859    1.111   .     S
C857   H860    1.109   .     S
N861   H862    1.031   .     S
N861   C863    1.450   .     S
C863   H866    1.110   .     S
C863   H864    1.106   .     S
C863   H865    1.110   .     S
N867   H868    1.029   .     S
N867   C869    1.445   .     S
C869   H871    1.111   .     S
C869   H872    1.110   .     S
C869   H870    1.108   .     S
N873   H874    1.031   .     S
N873   C875    1.447   .     S
C875   H876    1.110   .     S
C875   H878    1.110   .     S
H877   C1487   1.111   .     S
N879   C881    1.447   .     S
N879   H880    1.029   .     S
C881   H882    1.110   .     S
C881   H883    1.111   .     S
C881   H1496   1.111   .     S
C885   C896    1.451   .     S
C885   O911    1.292   .     A
C885   O909    1.291   .     A
C886   O910    1.293   .     A
C886   C895    1.461   .     S
C886   O912    1.297   .     A
C887   C889    1.435   .     S
C887   O915    1.291   .     A
C887   O913    1.288   .     A
C888   O916    1.291   .     A
C888   C890    1.435   .     S
C888   O914    1.288   .     A
C890   C957    1.335   .     S
C890   H972    1.087   .     S
C891   C896    1.406   .     A
C891   N917    1.430   .     S
C892   N923    1.427   .     S
C892   C895    1.412   .     A
C892   C1098   1.403   .     S
C893   N929    1.424   .     S
C893   C895    1.414   .     A
C893   C1095   1.399   .     S
C894   C896    1.409   .     A
C894   N935    1.427   .     S
C897   N941    1.419   .     S
C897   N908    1.375   .     A
C898   N907    1.374   .     A
C898   N947    1.420   .     S
C898   C1512   1.423   .     S
C899   N907    1.362   .     A
C899   H905    1.081   .     S
C899   C1509   1.422   .     S
C900   H906    1.081   .     S
C900   N908    1.362   .     A
Cu901  O909    1.972   .     S
Cu901  N907    2.018   .     S
Cu901  Cu902   2.685   .     S
Cu901  O913    1.958   .     S
Cu901  O916    1.960   .     S
Cu901  O912    1.967   .     S
Cu902  O914    1.958   .     S
Cu902  O910    1.972   .     S
Cu902  N908    2.018   .     S
Cu902  O915    1.960   .     S
Cu902  O911    1.967   .     S
H903   C957    1.087   .     S
N917   H918    1.029   .     S
N917   C919    1.444   .     S
C919   H920    1.109   .     S
C919   H921    1.111   .     S
C919   H922    1.110   .     S
N923   C925    1.449   .     S
N923   H924    1.030   .     S
C925   H926    1.111   .     S
C925   H927    1.111   .     S
C925   H928    1.109   .     S
N929   H930    1.031   .     S
N929   C931    1.450   .     S
C931   H934    1.110   .     S
C931   H932    1.106   .     S
C931   H933    1.110   .     S
N935   H936    1.029   .     S
N935   C937    1.445   .     S
C937   H939    1.111   .     S
C937   H940    1.110   .     S
C937   H938    1.108   .     S
N941   H942    1.031   .     S
N941   C943    1.447   .     S
C943   H944    1.110   .     S
C943   H946    1.110   .     S
H945   C1555   1.111   .     S
N947   C949    1.447   .     S
N947   H948    1.029   .     S
C949   H950    1.110   .     S
C949   H951    1.111   .     S
C949   H1564   1.111   .     S
C953   C964    1.451   .     S
C953   O979    1.292   .     A
C953   O977    1.291   .     A
C954   O978    1.293   .     A
C954   C963    1.461   .     S
C954   O980    1.297   .     A
C955   C957    1.435   .     S
C955   O983    1.291   .     A
C955   O981    1.288   .     A
C956   O984    1.291   .     A
C956   C958    1.435   .     S
C956   O982    1.288   .     A
C958   C821    1.335   1_655 S
C958   H836    1.087   1_655 S
C959   C964    1.406   .     A
C959   N985    1.430   .     S
C960   N991    1.427   .     S
C960   C963    1.412   .     A
C960   C1166   1.403   .     S
C961   N997    1.424   .     S
C961   C963    1.414   .     A
C961   C1163   1.399   .     S
C962   C964    1.409   .     A
C962   N1003   1.427   .     S
C965   N1009   1.419   .     S
C965   N976    1.375   .     A
C966   N975    1.374   .     A
C966   N1015   1.420   .     S
C966   C1580   1.423   .     S
C967   N975    1.362   .     A
C967   H973    1.081   .     S
C967   C1577   1.422   .     S
C968   H974    1.081   .     S
C968   N976    1.362   .     A
Cu969  O977    1.972   .     S
Cu969  N975    2.018   .     S
Cu969  Cu970   2.685   .     S
Cu969  O981    1.958   .     S
Cu969  O984    1.960   .     S
Cu969  O980    1.967   .     S
Cu970  O982    1.958   .     S
Cu970  O978    1.972   .     S
Cu970  N976    2.018   .     S
Cu970  O983    1.960   .     S
Cu970  O979    1.967   .     S
H971   C821    1.087   1_655 S
N985   H986    1.029   .     S
N985   C987    1.444   .     S
C987   H988    1.109   .     S
C987   H989    1.111   .     S
C987   H990    1.110   .     S
N991   C993    1.449   .     S
N991   H992    1.030   .     S
C993   H994    1.111   .     S
C993   H995    1.111   .     S
C993   H996    1.109   .     S
N997   H998    1.031   .     S
N997   C999    1.450   .     S
C999   H1002   1.110   .     S
C999   H1000   1.106   .     S
C999   H1001   1.110   .     S
N1003  H1004   1.029   .     S
N1003  C1005   1.445   .     S
C1005  H1007   1.111   .     S
C1005  H1008   1.110   .     S
C1005  H1006   1.108   .     S
N1009  H1010   1.031   .     S
N1009  C1011   1.447   .     S
C1011  H1012   1.110   .     S
C1011  H1014   1.110   .     S
H1013  C1623   1.111   .     S
N1015  C1017   1.447   .     S
N1015  H1016   1.029   .     S
C1017  H1018   1.110   .     S
C1017  H1019   1.111   .     S
C1017  H1632   1.111   .     S
C1021  C1032   1.451   .     S
C1021  O1047   1.292   .     A
C1021  O1045   1.291   .     A
C1022  O1046   1.293   .     A
C1022  C1031   1.461   .     S
C1022  O1048   1.297   .     A
C1023  C1025   1.435   .     S
C1023  O1051   1.291   .     A
C1023  O1049   1.288   .     A
C1024  O1052   1.291   .     A
C1024  C1026   1.435   .     S
C1024  O1050   1.288   .     A
C1025  C1162   1.335   1_455 S
C1025  H1175   1.087   1_455 S
C1026  C1093   1.335   .     S
C1026  H1108   1.087   .     S
C1027  C1032   1.406   .     A
C1027  N1053   1.430   .     S
C1028  N1059   1.427   .     S
C1028  C1031   1.412   .     A
C1028  C622    1.403   1_565 S
C1029  N1065   1.424   .     S
C1029  C1031   1.414   .     A
C1029  C619    1.399   1_565 S
C1030  C1032   1.409   .     A
C1030  N1071   1.427   .     S
C1033  N1077   1.419   .     S
C1033  N1044   1.375   .     A
C1034  N1043   1.374   .     A
C1034  N1083   1.420   .     S
C1034  C1648   1.423   .     S
C1035  N1043   1.362   .     A
C1035  H1041   1.081   .     S
C1035  C1645   1.422   .     S
C1036  H1042   1.081   .     S
C1036  N1044   1.362   .     A
Cu1037 O1045   1.972   .     S
Cu1037 N1043   2.018   .     S
Cu1037 Cu1038  2.685   .     S
Cu1037 O1049   1.958   .     S
Cu1037 O1052   1.960   .     S
Cu1037 O1048   1.967   .     S
Cu1038 O1050   1.958   .     S
Cu1038 O1046   1.972   .     S
Cu1038 N1044   2.018   .     S
Cu1038 O1051   1.960   .     S
Cu1038 O1047   1.967   .     S
H1039  C1093   1.087   .     S
H1040  C1162   1.087   1_455 S
N1053  H1054   1.029   .     S
N1053  C1055   1.444   .     S
C1055  H1056   1.109   .     S
C1055  H1057   1.111   .     S
C1055  H1058   1.110   .     S
N1059  C1061   1.449   .     S
N1059  H1060   1.030   .     S
C1061  H1062   1.111   .     S
C1061  H1063   1.111   .     S
C1061  H1064   1.109   .     S
N1065  H1066   1.031   .     S
N1065  C1067   1.450   .     S
C1067  H1070   1.110   .     S
C1067  H1068   1.106   .     S
C1067  H1069   1.110   .     S
N1071  H1072   1.029   .     S
N1071  C1073   1.445   .     S
C1073  H1075   1.111   .     S
C1073  H1076   1.110   .     S
C1073  H1074   1.108   .     S
N1077  H1078   1.031   .     S
N1077  C1079   1.447   .     S
C1079  H1080   1.110   .     S
C1079  H1082   1.110   .     S
H1081  C1691   1.111   .     S
N1083  C1085   1.447   .     S
N1083  H1084   1.029   .     S
C1085  H1086   1.110   .     S
C1085  H1087   1.111   .     S
C1085  H1700   1.111   .     S
C1089  C1100   1.451   .     S
C1089  O1115   1.292   .     A
C1089  O1113   1.291   .     A
C1090  O1114   1.293   .     A
C1090  C1099   1.461   .     S
C1090  O1116   1.297   .     A
C1091  C1093   1.435   .     S
C1091  O1119   1.291   .     A
C1091  O1117   1.288   .     A
C1092  O1120   1.291   .     A
C1092  C1094   1.435   .     S
C1092  O1118   1.288   .     A
C1094  C1161   1.335   .     S
C1094  H1176   1.087   .     S
C1095  C1100   1.406   .     A
C1095  N1121   1.430   .     S
C1096  N1127   1.427   .     S
C1096  C1099   1.412   .     A
C1096  C690    1.403   1_565 S
C1097  N1133   1.424   .     S
C1097  C1099   1.414   .     A
C1097  C687    1.399   1_565 S
C1098  C1100   1.409   .     A
C1098  N1139   1.427   .     S
C1101  N1145   1.419   .     S
C1101  N1112   1.375   .     A
C1102  N1111   1.374   .     A
C1102  N1151   1.420   .     S
C1102  C1716   1.423   .     S
C1103  N1111   1.362   .     A
C1103  H1109   1.081   .     S
C1103  C1713   1.422   .     S
C1104  H1110   1.081   .     S
C1104  N1112   1.362   .     A
Cu1105 O1113   1.972   .     S
Cu1105 N1111   2.018   .     S
Cu1105 Cu1106  2.685   .     S
Cu1105 O1117   1.958   .     S
Cu1105 O1120   1.960   .     S
Cu1105 O1116   1.967   .     S
Cu1106 O1118   1.958   .     S
Cu1106 O1114   1.972   .     S
Cu1106 N1112   2.018   .     S
Cu1106 O1119   1.960   .     S
Cu1106 O1115   1.967   .     S
H1107  C1161   1.087   .     S
N1121  H1122   1.029   .     S
N1121  C1123   1.444   .     S
C1123  H1124   1.109   .     S
C1123  H1125   1.111   .     S
C1123  H1126   1.110   .     S
N1127  C1129   1.449   .     S
N1127  H1128   1.030   .     S
C1129  H1130   1.111   .     S
C1129  H1131   1.111   .     S
C1129  H1132   1.109   .     S
N1133  H1134   1.031   .     S
N1133  C1135   1.450   .     S
C1135  H1138   1.110   .     S
C1135  H1136   1.106   .     S
C1135  H1137   1.110   .     S
N1139  H1140   1.029   .     S
N1139  C1141   1.445   .     S
C1141  H1143   1.111   .     S
C1141  H1144   1.110   .     S
C1141  H1142   1.108   .     S
N1145  H1146   1.031   .     S
N1145  C1147   1.447   .     S
C1147  H1148   1.110   .     S
C1147  H1150   1.110   .     S
H1149  C1759   1.111   .     S
N1151  C1153   1.447   .     S
N1151  H1152   1.029   .     S
C1153  H1154   1.110   .     S
C1153  H1155   1.111   .     S
C1153  H1768   1.111   .     S
C1157  C1168   1.451   .     S
C1157  O1183   1.292   .     A
C1157  O1181   1.291   .     A
C1158  O1182   1.293   .     A
C1158  C1167   1.461   .     S
C1158  O1184   1.297   .     A
C1159  C1161   1.435   .     S
C1159  O1187   1.291   .     A
C1159  O1185   1.288   .     A
C1160  O1188   1.291   .     A
C1160  C1162   1.435   .     S
C1160  O1186   1.288   .     A
C1162  C1025   1.335   1_655 S
C1162  H1040   1.087   1_655 S
C1163  C1168   1.406   .     A
C1163  N1189   1.430   .     S
C1164  N1195   1.427   .     S
C1164  C1167   1.412   .     A
C1164  C758    1.403   1_565 S
C1165  N1201   1.424   .     S
C1165  C1167   1.414   .     A
C1165  C755    1.399   1_565 S
C1166  C1168   1.409   .     A
C1166  N1207   1.427   .     S
C1169  N1213   1.419   .     S
C1169  N1180   1.375   .     A
C1170  N1179   1.374   .     A
C1170  N1219   1.420   .     S
C1170  C1784   1.423   .     S
C1171  N1179   1.362   .     A
C1171  H1177   1.081   .     S
C1171  C1781   1.422   .     S
C1172  H1178   1.081   .     S
C1172  N1180   1.362   .     A
Cu1173 O1181   1.972   .     S
Cu1173 N1179   2.018   .     S
Cu1173 Cu1174  2.685   .     S
Cu1173 O1185   1.958   .     S
Cu1173 O1188   1.960   .     S
Cu1173 O1184   1.967   .     S
Cu1174 O1186   1.958   .     S
Cu1174 O1182   1.972   .     S
Cu1174 N1180   2.018   .     S
Cu1174 O1187   1.960   .     S
Cu1174 O1183   1.967   .     S
H1175  C1025   1.087   1_655 S
N1189  H1190   1.029   .     S
N1189  C1191   1.444   .     S
C1191  H1192   1.109   .     S
C1191  H1193   1.111   .     S
C1191  H1194   1.110   .     S
N1195  C1197   1.449   .     S
N1195  H1196   1.030   .     S
C1197  H1198   1.111   .     S
C1197  H1199   1.111   .     S
C1197  H1200   1.109   .     S
N1201  H1202   1.031   .     S
N1201  C1203   1.450   .     S
C1203  H1206   1.110   .     S
C1203  H1204   1.106   .     S
C1203  H1205   1.110   .     S
N1207  H1208   1.029   .     S
N1207  C1209   1.445   .     S
C1209  H1211   1.111   .     S
C1209  H1212   1.110   .     S
C1209  H1210   1.108   .     S
N1213  H1214   1.031   .     S
N1213  C1215   1.447   .     S
C1215  H1216   1.110   .     S
C1215  H1218   1.110   .     S
H1217  C1827   1.111   .     S
N1219  C1221   1.447   .     S
N1219  H1220   1.029   .     S
C1221  H1222   1.110   .     S
C1221  H1223   1.111   .     S
C1221  H1836   1.111   .     S
C1225  C1236   1.451   .     S
C1225  O1251   1.292   .     A
C1225  O1249   1.291   .     A
C1226  O1250   1.293   .     A
C1226  C1235   1.461   .     S
C1226  O1252   1.297   .     A
C1227  C1229   1.435   .     S
C1227  O1255   1.291   .     A
C1227  O1253   1.288   .     A
C1228  O1256   1.291   .     A
C1228  C1230   1.435   .     S
C1228  O1254   1.288   .     A
C1229  C1366   1.335   1_455 S
C1229  H1379   1.087   1_455 S
C1230  C1297   1.335   .     S
C1230  H1312   1.087   .     S
C1231  C1236   1.406   .     A
C1231  N1257   1.430   .     S
C1231  C1641   1.399   1_545 S
C1232  N1263   1.427   .     S
C1232  C1235   1.412   .     A
C1232  C1438   1.403   .     S
C1233  N1269   1.424   .     S
C1233  C1235   1.414   .     A
C1233  C1435   1.399   .     S
C1234  C1236   1.409   .     A
C1234  N1275   1.427   .     S
C1234  C1640   1.403   1_545 S
C1237  N1281   1.419   .     S
C1237  N1248   1.375   .     A
C1238  N1247   1.374   .     A
C1238  N1287   1.420   .     S
C1238  C16     1.423   1_556 S
C1239  N1247   1.362   .     A
C1239  H1245   1.081   .     S
C1239  C13     1.422   1_556 S
C1240  H1246   1.081   .     S
C1240  N1248   1.362   .     A
Cu1241 O1249   1.972   .     S
Cu1241 N1247   2.018   .     S
Cu1241 Cu1242  2.685   .     S
Cu1241 O1253   1.958   .     S
Cu1241 O1256   1.960   .     S
Cu1241 O1252   1.967   .     S
Cu1242 O1254   1.958   .     S
Cu1242 O1250   1.972   .     S
Cu1242 N1248   2.018   .     S
Cu1242 O1255   1.960   .     S
Cu1242 O1251   1.967   .     S
H1243  C1297   1.087   .     S
H1244  C1366   1.087   1_455 S
N1257  H1258   1.029   .     S
N1257  C1259   1.444   .     S
C1259  H1260   1.109   .     S
C1259  H1261   1.111   .     S
C1259  H1262   1.110   .     S
N1263  C1265   1.449   .     S
N1263  H1264   1.030   .     S
C1265  H1266   1.111   .     S
C1265  H1267   1.111   .     S
C1265  H1268   1.109   .     S
N1269  H1270   1.031   .     S
N1269  C1271   1.450   .     S
C1271  H1274   1.110   .     S
C1271  H1272   1.106   .     S
C1271  H1273   1.110   .     S
N1275  H1276   1.029   .     S
N1275  C1277   1.445   .     S
C1277  H1279   1.111   .     S
C1277  H1280   1.110   .     S
C1277  H1278   1.108   .     S
N1281  H1282   1.031   .     S
N1281  C1283   1.447   .     S
C1283  H1284   1.110   .     S
C1283  H1286   1.110   .     S
H1285  C59     1.111   1_556 S
N1287  C1289   1.447   .     S
N1287  H1288   1.029   .     S
C1289  H1290   1.110   .     S
C1289  H1291   1.111   .     S
C1289  H68     1.111   1_556 S
C1293  C1304   1.451   .     S
C1293  O1319   1.292   .     A
C1293  O1317   1.291   .     A
C1294  O1318   1.293   .     A
C1294  C1303   1.461   .     S
C1294  O1320   1.297   .     A
C1295  C1297   1.435   .     S
C1295  O1323   1.291   .     A
C1295  O1321   1.288   .     A
C1296  O1324   1.291   .     A
C1296  C1298   1.435   .     S
C1296  O1322   1.288   .     A
C1298  C1365   1.335   .     S
C1298  H1380   1.087   .     S
C1299  C1304   1.406   .     A
C1299  N1325   1.430   .     S
C1299  C1709   1.399   1_545 S
C1300  N1331   1.427   .     S
C1300  C1303   1.412   .     A
C1300  C1506   1.403   .     S
C1301  N1337   1.424   .     S
C1301  C1303   1.414   .     A
C1301  C1503   1.399   .     S
C1302  C1304   1.409   .     A
C1302  N1343   1.427   .     S
C1302  C1708   1.403   1_545 S
C1305  N1349   1.419   .     S
C1305  N1316   1.375   .     A
C1306  N1315   1.374   .     A
C1306  N1355   1.420   .     S
C1306  C84     1.423   1_556 S
C1307  N1315   1.362   .     A
C1307  H1313   1.081   .     S
C1307  C81     1.422   1_556 S
C1308  H1314   1.081   .     S
C1308  N1316   1.362   .     A
Cu1309 O1317   1.972   .     S
Cu1309 N1315   2.018   .     S
Cu1309 Cu1310  2.685   .     S
Cu1309 O1321   1.958   .     S
Cu1309 O1324   1.960   .     S
Cu1309 O1320   1.967   .     S
Cu1310 O1322   1.958   .     S
Cu1310 O1318   1.972   .     S
Cu1310 N1316   2.018   .     S
Cu1310 O1323   1.960   .     S
Cu1310 O1319   1.967   .     S
H1311  C1365   1.087   .     S
N1325  H1326   1.029   .     S
N1325  C1327   1.444   .     S
C1327  H1328   1.109   .     S
C1327  H1329   1.111   .     S
C1327  H1330   1.110   .     S
N1331  C1333   1.449   .     S
N1331  H1332   1.030   .     S
C1333  H1334   1.111   .     S
C1333  H1335   1.111   .     S
C1333  H1336   1.109   .     S
N1337  H1338   1.031   .     S
N1337  C1339   1.450   .     S
C1339  H1342   1.110   .     S
C1339  H1340   1.106   .     S
C1339  H1341   1.110   .     S
N1343  H1344   1.029   .     S
N1343  C1345   1.445   .     S
C1345  H1347   1.111   .     S
C1345  H1348   1.110   .     S
C1345  H1346   1.108   .     S
N1349  H1350   1.031   .     S
N1349  C1351   1.447   .     S
C1351  H1352   1.110   .     S
C1351  H1354   1.110   .     S
H1353  C127    1.111   1_556 S
N1355  C1357   1.447   .     S
N1355  H1356   1.029   .     S
C1357  H1358   1.110   .     S
C1357  H1359   1.111   .     S
C1357  H136    1.111   1_556 S
C1361  C1372   1.451   .     S
C1361  O1387   1.292   .     A
C1361  O1385   1.291   .     A
C1362  O1386   1.293   .     A
C1362  C1371   1.461   .     S
C1362  O1388   1.297   .     A
C1363  C1365   1.435   .     S
C1363  O1391   1.291   .     A
C1363  O1389   1.288   .     A
C1364  O1392   1.291   .     A
C1364  C1366   1.435   .     S
C1364  O1390   1.288   .     A
C1366  C1229   1.335   1_655 S
C1366  H1244   1.087   1_655 S
C1367  C1372   1.406   .     A
C1367  N1393   1.430   .     S
C1367  C1777   1.399   1_545 S
C1368  N1399   1.427   .     S
C1368  C1371   1.412   .     A
C1368  C1574   1.403   .     S
C1369  N1405   1.424   .     S
C1369  C1371   1.414   .     A
C1369  C1571   1.399   .     S
C1370  C1372   1.409   .     A
C1370  N1411   1.427   .     S
C1370  C1776   1.403   1_545 S
C1373  N1417   1.419   .     S
C1373  N1384   1.375   .     A
C1374  N1383   1.374   .     A
C1374  N1423   1.420   .     S
C1374  C152    1.423   1_556 S
C1375  N1383   1.362   .     A
C1375  H1381   1.081   .     S
C1375  C149    1.422   1_556 S
C1376  H1382   1.081   .     S
C1376  N1384   1.362   .     A
Cu1377 O1385   1.972   .     S
Cu1377 N1383   2.018   .     S
Cu1377 Cu1378  2.685   .     S
Cu1377 O1389   1.958   .     S
Cu1377 O1392   1.960   .     S
Cu1377 O1388   1.967   .     S
Cu1378 O1390   1.958   .     S
Cu1378 O1386   1.972   .     S
Cu1378 N1384   2.018   .     S
Cu1378 O1391   1.960   .     S
Cu1378 O1387   1.967   .     S
H1379  C1229   1.087   1_655 S
N1393  H1394   1.029   .     S
N1393  C1395   1.444   .     S
C1395  H1396   1.109   .     S
C1395  H1397   1.111   .     S
C1395  H1398   1.110   .     S
N1399  C1401   1.449   .     S
N1399  H1400   1.030   .     S
C1401  H1402   1.111   .     S
C1401  H1403   1.111   .     S
C1401  H1404   1.109   .     S
N1405  H1406   1.031   .     S
N1405  C1407   1.450   .     S
C1407  H1410   1.110   .     S
C1407  H1408   1.106   .     S
C1407  H1409   1.110   .     S
N1411  H1412   1.029   .     S
N1411  C1413   1.445   .     S
C1413  H1415   1.111   .     S
C1413  H1416   1.110   .     S
C1413  H1414   1.108   .     S
N1417  H1418   1.031   .     S
N1417  C1419   1.447   .     S
C1419  H1420   1.110   .     S
C1419  H1422   1.110   .     S
H1421  C195    1.111   1_556 S
N1423  C1425   1.447   .     S
N1423  H1424   1.029   .     S
C1425  H1426   1.110   .     S
C1425  H1427   1.111   .     S
C1425  H204    1.111   1_556 S
C1429  C1440   1.451   .     S
C1429  O1455   1.292   .     A
C1429  O1453   1.291   .     A
C1430  O1454   1.293   .     A
C1430  C1439   1.461   .     S
C1430  O1456   1.297   .     A
C1431  C1433   1.435   .     S
C1431  O1459   1.291   .     A
C1431  O1457   1.288   .     A
C1432  O1460   1.291   .     A
C1432  C1434   1.435   .     S
C1432  O1458   1.288   .     A
C1433  C1570   1.335   1_455 S
C1433  H1583   1.087   1_455 S
C1434  C1501   1.335   .     S
C1434  H1516   1.087   .     S
C1435  C1440   1.406   .     A
C1435  N1461   1.430   .     S
C1436  N1467   1.427   .     S
C1436  C1439   1.412   .     A
C1436  C1642   1.403   .     S
C1437  N1473   1.424   .     S
C1437  C1439   1.414   .     A
C1437  C1639   1.399   .     S
C1438  C1440   1.409   .     A
C1438  N1479   1.427   .     S
C1441  N1485   1.419   .     S
C1441  N1452   1.375   .     A
C1442  N1451   1.374   .     A
C1442  N1491   1.420   .     S
C1442  C220    1.423   1_556 S
C1443  N1451   1.362   .     A
C1443  H1449   1.081   .     S
C1443  C217    1.422   1_556 S
C1444  H1450   1.081   .     S
C1444  N1452   1.362   .     A
Cu1445 O1453   1.972   .     S
Cu1445 N1451   2.018   .     S
Cu1445 Cu1446  2.685   .     S
Cu1445 O1457   1.958   .     S
Cu1445 O1460   1.960   .     S
Cu1445 O1456   1.967   .     S
Cu1446 O1458   1.958   .     S
Cu1446 O1454   1.972   .     S
Cu1446 N1452   2.018   .     S
Cu1446 O1459   1.960   .     S
Cu1446 O1455   1.967   .     S
H1447  C1501   1.087   .     S
H1448  C1570   1.087   1_455 S
N1461  H1462   1.029   .     S
N1461  C1463   1.444   .     S
C1463  H1464   1.109   .     S
C1463  H1465   1.111   .     S
C1463  H1466   1.110   .     S
N1467  C1469   1.449   .     S
N1467  H1468   1.030   .     S
C1469  H1470   1.111   .     S
C1469  H1471   1.111   .     S
C1469  H1472   1.109   .     S
N1473  H1474   1.031   .     S
N1473  C1475   1.450   .     S
C1475  H1478   1.110   .     S
C1475  H1476   1.106   .     S
C1475  H1477   1.110   .     S
N1479  H1480   1.029   .     S
N1479  C1481   1.445   .     S
C1481  H1483   1.111   .     S
C1481  H1484   1.110   .     S
C1481  H1482   1.108   .     S
N1485  H1486   1.031   .     S
N1485  C1487   1.447   .     S
C1487  H1488   1.110   .     S
C1487  H1490   1.110   .     S
H1489  C263    1.111   1_556 S
N1491  C1493   1.447   .     S
N1491  H1492   1.029   .     S
C1493  H1494   1.110   .     S
C1493  H1495   1.111   .     S
C1493  H272    1.111   1_556 S
C1497  C1508   1.451   .     S
C1497  O1523   1.292   .     A
C1497  O1521   1.291   .     A
C1498  O1522   1.293   .     A
C1498  C1507   1.461   .     S
C1498  O1524   1.297   .     A
C1499  C1501   1.435   .     S
C1499  O1527   1.291   .     A
C1499  O1525   1.288   .     A
C1500  O1528   1.291   .     A
C1500  C1502   1.435   .     S
C1500  O1526   1.288   .     A
C1502  C1569   1.335   .     S
C1502  H1584   1.087   .     S
C1503  C1508   1.406   .     A
C1503  N1529   1.430   .     S
C1504  N1535   1.427   .     S
C1504  C1507   1.412   .     A
C1504  C1710   1.403   .     S
C1505  N1541   1.424   .     S
C1505  C1507   1.414   .     A
C1505  C1707   1.399   .     S
C1506  C1508   1.409   .     A
C1506  N1547   1.427   .     S
C1509  N1553   1.419   .     S
C1509  N1520   1.375   .     A
C1510  N1519   1.374   .     A
C1510  N1559   1.420   .     S
C1510  C288    1.423   1_556 S
C1511  N1519   1.362   .     A
C1511  H1517   1.081   .     S
C1511  C285    1.422   1_556 S
C1512  H1518   1.081   .     S
C1512  N1520   1.362   .     A
Cu1513 O1521   1.972   .     S
Cu1513 N1519   2.018   .     S
Cu1513 Cu1514  2.685   .     S
Cu1513 O1525   1.958   .     S
Cu1513 O1528   1.960   .     S
Cu1513 O1524   1.967   .     S
Cu1514 O1526   1.958   .     S
Cu1514 O1522   1.972   .     S
Cu1514 N1520   2.018   .     S
Cu1514 O1527   1.960   .     S
Cu1514 O1523   1.967   .     S
H1515  C1569   1.087   .     S
N1529  H1530   1.029   .     S
N1529  C1531   1.444   .     S
C1531  H1532   1.109   .     S
C1531  H1533   1.111   .     S
C1531  H1534   1.110   .     S
N1535  C1537   1.449   .     S
N1535  H1536   1.030   .     S
C1537  H1538   1.111   .     S
C1537  H1539   1.111   .     S
C1537  H1540   1.109   .     S
N1541  H1542   1.031   .     S
N1541  C1543   1.450   .     S
C1543  H1546   1.110   .     S
C1543  H1544   1.106   .     S
C1543  H1545   1.110   .     S
N1547  H1548   1.029   .     S
N1547  C1549   1.445   .     S
C1549  H1551   1.111   .     S
C1549  H1552   1.110   .     S
C1549  H1550   1.108   .     S
N1553  H1554   1.031   .     S
N1553  C1555   1.447   .     S
C1555  H1556   1.110   .     S
C1555  H1558   1.110   .     S
H1557  C331    1.111   1_556 S
N1559  C1561   1.447   .     S
N1559  H1560   1.029   .     S
C1561  H1562   1.110   .     S
C1561  H1563   1.111   .     S
C1561  H340    1.111   1_556 S
C1565  C1576   1.451   .     S
C1565  O1591   1.292   .     A
C1565  O1589   1.291   .     A
C1566  O1590   1.293   .     A
C1566  C1575   1.461   .     S
C1566  O1592   1.297   .     A
C1567  C1569   1.435   .     S
C1567  O1595   1.291   .     A
C1567  O1593   1.288   .     A
C1568  O1596   1.291   .     A
C1568  C1570   1.435   .     S
C1568  O1594   1.288   .     A
C1570  C1433   1.335   1_655 S
C1570  H1448   1.087   1_655 S
C1571  C1576   1.406   .     A
C1571  N1597   1.430   .     S
C1572  N1603   1.427   .     S
C1572  C1575   1.412   .     A
C1572  C1778   1.403   .     S
C1573  N1609   1.424   .     S
C1573  C1575   1.414   .     A
C1573  C1775   1.399   .     S
C1574  C1576   1.409   .     A
C1574  N1615   1.427   .     S
C1577  N1621   1.419   .     S
C1577  N1588   1.375   .     A
C1578  N1587   1.374   .     A
C1578  N1627   1.420   .     S
C1578  C356    1.423   1_556 S
C1579  N1587   1.362   .     A
C1579  H1585   1.081   .     S
C1579  C353    1.422   1_556 S
C1580  H1586   1.081   .     S
C1580  N1588   1.362   .     A
Cu1581 O1589   1.972   .     S
Cu1581 N1587   2.018   .     S
Cu1581 Cu1582  2.685   .     S
Cu1581 O1593   1.958   .     S
Cu1581 O1596   1.960   .     S
Cu1581 O1592   1.967   .     S
Cu1582 O1594   1.958   .     S
Cu1582 O1590   1.972   .     S
Cu1582 N1588   2.018   .     S
Cu1582 O1595   1.960   .     S
Cu1582 O1591   1.967   .     S
H1583  C1433   1.087   1_655 S
N1597  H1598   1.029   .     S
N1597  C1599   1.444   .     S
C1599  H1600   1.109   .     S
C1599  H1601   1.111   .     S
C1599  H1602   1.110   .     S
N1603  C1605   1.449   .     S
N1603  H1604   1.030   .     S
C1605  H1606   1.111   .     S
C1605  H1607   1.111   .     S
C1605  H1608   1.109   .     S
N1609  H1610   1.031   .     S
N1609  C1611   1.450   .     S
C1611  H1614   1.110   .     S
C1611  H1612   1.106   .     S
C1611  H1613   1.110   .     S
N1615  H1616   1.029   .     S
N1615  C1617   1.445   .     S
C1617  H1619   1.111   .     S
C1617  H1620   1.110   .     S
C1617  H1618   1.108   .     S
N1621  H1622   1.031   .     S
N1621  C1623   1.447   .     S
C1623  H1624   1.110   .     S
C1623  H1626   1.110   .     S
H1625  C399    1.111   1_556 S
N1627  C1629   1.447   .     S
N1627  H1628   1.029   .     S
C1629  H1630   1.110   .     S
C1629  H1631   1.111   .     S
C1629  H408    1.111   1_556 S
C1633  C1644   1.451   .     S
C1633  O1659   1.292   .     A
C1633  O1657   1.291   .     A
C1634  O1658   1.293   .     A
C1634  C1643   1.461   .     S
C1634  O1660   1.297   .     A
C1635  C1637   1.435   .     S
C1635  O1663   1.291   .     A
C1635  O1661   1.288   .     A
C1636  O1664   1.291   .     A
C1636  C1638   1.435   .     S
C1636  O1662   1.288   .     A
C1637  C1774   1.335   1_455 S
C1637  H1787   1.087   1_455 S
C1638  C1705   1.335   .     S
C1638  H1720   1.087   .     S
C1639  C1644   1.406   .     A
C1639  N1665   1.430   .     S
C1640  N1671   1.427   .     S
C1640  C1643   1.412   .     A
C1640  C1234   1.403   1_565 S
C1641  N1677   1.424   .     S
C1641  C1643   1.414   .     A
C1641  C1231   1.399   1_565 S
C1642  C1644   1.409   .     A
C1642  N1683   1.427   .     S
C1645  N1689   1.419   .     S
C1645  N1656   1.375   .     A
C1646  N1655   1.374   .     A
C1646  N1695   1.420   .     S
C1646  C424    1.423   1_556 S
C1647  N1655   1.362   .     A
C1647  H1653   1.081   .     S
C1647  C421    1.422   1_556 S
C1648  H1654   1.081   .     S
C1648  N1656   1.362   .     A
Cu1649 O1657   1.972   .     S
Cu1649 N1655   2.018   .     S
Cu1649 Cu1650  2.685   .     S
Cu1649 O1661   1.958   .     S
Cu1649 O1664   1.960   .     S
Cu1649 O1660   1.967   .     S
Cu1650 O1662   1.958   .     S
Cu1650 O1658   1.972   .     S
Cu1650 N1656   2.018   .     S
Cu1650 O1663   1.960   .     S
Cu1650 O1659   1.967   .     S
H1651  C1705   1.087   .     S
H1652  C1774   1.087   1_455 S
N1665  H1666   1.029   .     S
N1665  C1667   1.444   .     S
C1667  H1668   1.109   .     S
C1667  H1669   1.111   .     S
C1667  H1670   1.110   .     S
N1671  C1673   1.449   .     S
N1671  H1672   1.030   .     S
C1673  H1674   1.111   .     S
C1673  H1675   1.111   .     S
C1673  H1676   1.109   .     S
N1677  H1678   1.031   .     S
N1677  C1679   1.450   .     S
C1679  H1682   1.110   .     S
C1679  H1680   1.106   .     S
C1679  H1681   1.110   .     S
N1683  H1684   1.029   .     S
N1683  C1685   1.445   .     S
C1685  H1687   1.111   .     S
C1685  H1688   1.110   .     S
C1685  H1686   1.108   .     S
N1689  H1690   1.031   .     S
N1689  C1691   1.447   .     S
C1691  H1692   1.110   .     S
C1691  H1694   1.110   .     S
H1693  C467    1.111   1_556 S
N1695  C1697   1.447   .     S
N1695  H1696   1.029   .     S
C1697  H1698   1.110   .     S
C1697  H1699   1.111   .     S
C1697  H476    1.111   1_556 S
C1701  C1712   1.451   .     S
C1701  O1727   1.292   .     A
C1701  O1725   1.291   .     A
C1702  O1726   1.293   .     A
C1702  C1711   1.461   .     S
C1702  O1728   1.297   .     A
C1703  C1705   1.435   .     S
C1703  O1731   1.291   .     A
C1703  O1729   1.288   .     A
C1704  O1732   1.291   .     A
C1704  C1706   1.435   .     S
C1704  O1730   1.288   .     A
C1706  C1773   1.335   .     S
C1706  H1788   1.087   .     S
C1707  C1712   1.406   .     A
C1707  N1733   1.430   .     S
C1708  N1739   1.427   .     S
C1708  C1711   1.412   .     A
C1708  C1302   1.403   1_565 S
C1709  N1745   1.424   .     S
C1709  C1711   1.414   .     A
C1709  C1299   1.399   1_565 S
C1710  C1712   1.409   .     A
C1710  N1751   1.427   .     S
C1713  N1757   1.419   .     S
C1713  N1724   1.375   .     A
C1714  N1723   1.374   .     A
C1714  N1763   1.420   .     S
C1714  C492    1.423   1_556 S
C1715  N1723   1.362   .     A
C1715  H1721   1.081   .     S
C1715  C489    1.422   1_556 S
C1716  H1722   1.081   .     S
C1716  N1724   1.362   .     A
Cu1717 O1725   1.972   .     S
Cu1717 N1723   2.018   .     S
Cu1717 Cu1718  2.685   .     S
Cu1717 O1729   1.958   .     S
Cu1717 O1732   1.960   .     S
Cu1717 O1728   1.967   .     S
Cu1718 O1730   1.958   .     S
Cu1718 O1726   1.972   .     S
Cu1718 N1724   2.018   .     S
Cu1718 O1731   1.960   .     S
Cu1718 O1727   1.967   .     S
H1719  C1773   1.087   .     S
N1733  H1734   1.029   .     S
N1733  C1735   1.444   .     S
C1735  H1736   1.109   .     S
C1735  H1737   1.111   .     S
C1735  H1738   1.110   .     S
N1739  C1741   1.449   .     S
N1739  H1740   1.030   .     S
C1741  H1742   1.111   .     S
C1741  H1743   1.111   .     S
C1741  H1744   1.109   .     S
N1745  H1746   1.031   .     S
N1745  C1747   1.450   .     S
C1747  H1750   1.110   .     S
C1747  H1748   1.106   .     S
C1747  H1749   1.110   .     S
N1751  H1752   1.029   .     S
N1751  C1753   1.445   .     S
C1753  H1755   1.111   .     S
C1753  H1756   1.110   .     S
C1753  H1754   1.108   .     S
N1757  H1758   1.031   .     S
N1757  C1759   1.447   .     S
C1759  H1760   1.110   .     S
C1759  H1762   1.110   .     S
H1761  C535    1.111   1_556 S
N1763  C1765   1.447   .     S
N1763  H1764   1.029   .     S
C1765  H1766   1.110   .     S
C1765  H1767   1.111   .     S
C1765  H544    1.111   1_556 S
C1769  C1780   1.451   .     S
C1769  O1795   1.292   .     A
C1769  O1793   1.291   .     A
C1770  O1794   1.293   .     A
C1770  C1779   1.461   .     S
C1770  O1796   1.297   .     A
C1771  C1773   1.435   .     S
C1771  O1799   1.291   .     A
C1771  O1797   1.288   .     A
C1772  O1800   1.291   .     A
C1772  C1774   1.435   .     S
C1772  O1798   1.288   .     A
C1774  C1637   1.335   1_655 S
C1774  H1652   1.087   1_655 S
C1775  C1780   1.406   .     A
C1775  N1801   1.430   .     S
C1776  N1807   1.427   .     S
C1776  C1779   1.412   .     A
C1776  C1370   1.403   1_565 S
C1777  N1813   1.424   .     S
C1777  C1779   1.414   .     A
C1777  C1367   1.399   1_565 S
C1778  C1780   1.409   .     A
C1778  N1819   1.427   .     S
C1781  N1825   1.419   .     S
C1781  N1792   1.375   .     A
C1782  N1791   1.374   .     A
C1782  N1831   1.420   .     S
C1782  C560    1.423   1_556 S
C1783  N1791   1.362   .     A
C1783  H1789   1.081   .     S
C1783  C557    1.422   1_556 S
C1784  H1790   1.081   .     S
C1784  N1792   1.362   .     A
Cu1785 O1793   1.972   .     S
Cu1785 N1791   2.018   .     S
Cu1785 Cu1786  2.685   .     S
Cu1785 O1797   1.958   .     S
Cu1785 O1800   1.960   .     S
Cu1785 O1796   1.967   .     S
Cu1786 O1798   1.958   .     S
Cu1786 O1794   1.972   .     S
Cu1786 N1792   2.018   .     S
Cu1786 O1799   1.960   .     S
Cu1786 O1795   1.967   .     S
H1787  C1637   1.087   1_655 S
N1801  H1802   1.029   .     S
N1801  C1803   1.444   .     S
C1803  H1804   1.109   .     S
C1803  H1805   1.111   .     S
C1803  H1806   1.110   .     S
N1807  C1809   1.449   .     S
N1807  H1808   1.030   .     S
C1809  H1810   1.111   .     S
C1809  H1811   1.111   .     S
C1809  H1812   1.109   .     S
N1813  H1814   1.031   .     S
N1813  C1815   1.450   .     S
C1815  H1818   1.110   .     S
C1815  H1816   1.106   .     S
C1815  H1817   1.110   .     S
N1819  H1820   1.029   .     S
N1819  C1821   1.445   .     S
C1821  H1823   1.111   .     S
C1821  H1824   1.110   .     S
C1821  H1822   1.108   .     S
N1825  H1826   1.031   .     S
N1825  C1827   1.447   .     S
C1827  H1828   1.110   .     S
C1827  H1830   1.110   .     S
H1829  C603    1.111   1_556 S
N1831  C1833   1.447   .     S
N1831  H1832   1.029   .     S
C1833  H1834   1.110   .     S
C1833  H1835   1.111   .     S
C1833  H612    1.111   1_556 S
