data_str_m2_o1_o10_pcu_sym.191
_audit_creation_date              2020-01-03
_audit_creation_method            'Materials Studio'
_symmetry_space_group_name_H-M    'P1'
_symmetry_Int_Tables_number       1
_symmetry_cell_setting            triclinic
loop_
_symmetry_equiv_pos_as_xyz
  x,y,z
_cell_length_a                    26.2405
_cell_length_b                    32.3770
_cell_length_c                    28.7654
_cell_angle_alpha                 89.3224
_cell_angle_beta                  96.5087
_cell_angle_gamma                 91.1233
loop_
_atom_site_label
_atom_site_type_symbol
_atom_site_fract_x
_atom_site_fract_y
_atom_site_fract_z
_atom_site_U_iso_or_equiv
_atom_site_adp_type
_atom_site_occupancy
C1     C     0.16823   0.08755   0.16702   0.00000  Uiso   1.00
C2     C     0.16511   0.24579   0.16631   0.00000  Uiso   1.00
C3     C     0.06831   0.16506   0.15525   0.00000  Uiso   1.00
C4     C     0.26502   0.16827   0.17808   0.00000  Uiso   1.00
C5     C     0.01393   0.15730   0.15145   0.00000  Uiso   1.00
C6     C     0.31941   0.17603   0.18189   0.00000  Uiso   1.00
C7     C     0.13836   0.02253   0.13145   0.00000  Uiso   1.00
C8     C     0.19497   0.31080   0.20188   0.00000  Uiso   1.00
C9     C     0.13463   0.31300   0.13062   0.00000  Uiso   1.00
C10    C     0.19870   0.02033   0.20272   0.00000  Uiso   1.00
C11    C     0.16400   0.29045   0.16610   0.00000  Uiso   1.00
C12    C     0.16933   0.04288   0.16723   0.00000  Uiso   1.00
C13    C     0.12871   0.14696   0.02168   0.00000  Uiso   1.00
C14    C     0.20463   0.18637   0.31166   0.00000  Uiso   1.00
C15    C     0.12843   0.14658   0.30574   0.00000  Uiso   1.00
C16    C     0.20491   0.18675   0.02759   0.00000  Uiso   1.00
Cu17   Cu    0.16667   0.16667   0.21355   0.00000  Uiso   1.00
Cu18   Cu    0.16667   0.16666   0.11978   0.00000  Uiso   1.00
H19    H     0.11524   0.04039   0.10507   0.00000  Uiso   1.00
H20    H     0.21810   0.29294   0.22827   0.00000  Uiso   1.00
H21    H     0.09872   0.13084   0.03791   0.00000  Uiso   1.00
H22    H     0.23462   0.20249   0.29542   0.00000  Uiso   1.00
N23    N     0.16668   0.16668   0.28403   0.00000  Uiso   1.00
N24    N     0.16665   0.16666   0.04931   0.00000  Uiso   1.00
O25    O     0.16666   0.10655   0.20625   0.00000  Uiso   1.00
O26    O     0.16667   0.22678   0.12709   0.00000  Uiso   1.00
O27    O     0.16666   0.10654   0.12706   0.00000  Uiso   1.00
O28    O     0.16667   0.22679   0.20628   0.00000  Uiso   1.00
O29    O     0.09161   0.16667   0.19712   0.00000  Uiso   1.00
O30    O     0.24172   0.16666   0.13621   0.00000  Uiso   1.00
O31    O     0.09161   0.16666   0.11793   0.00000  Uiso   1.00
O32    O     0.24172   0.16667   0.21540   0.00000  Uiso   1.00
C33    C     0.32744   0.12201   0.12095   0.00000  Uiso   1.00
O34    O     0.00984   0.11738   0.08296   0.00000  Uiso   1.00
O35    O     0.29261   0.09317   0.13652   0.00000  Uiso   1.00
H36    H     0.28247   0.07067   0.11286   0.00000  Uiso   1.00
C37    C     0.00589   0.21132   0.21239   0.00000  Uiso   1.00
O38    O     0.32349   0.21596   0.25038   0.00000  Uiso   1.00
O39    O     0.04072   0.24016   0.19681   0.00000  Uiso   1.00
H40    H     0.05086   0.26267   0.22047   0.00000  Uiso   1.00
C41    C     0.09785   0.29353   0.09378   0.00000  Uiso   1.00
O42    O     0.07467   0.26165   0.10201   0.00000  Uiso   1.00
O43    O     0.08822   0.31272   0.04992   0.00000  Uiso   1.00
H44    H     0.06210   0.29688   0.02795   0.00000  Uiso   1.00
C45    C     0.23548   0.03980   0.23956   0.00000  Uiso   1.00
O46    O     0.25866   0.07168   0.23132   0.00000  Uiso   1.00
O47    O     0.24511   0.02061   0.28341   0.00000  Uiso   1.00
H48    H     0.27124   0.03645   0.30538   0.00000  Uiso   1.00
C49    C     0.08504   0.12411   0.27982   0.00000  Uiso   1.00
O50    O     0.09242   0.09461   0.25562   0.00000  Uiso   1.00
O51    O     0.03501   0.13466   0.28647   0.00000  Uiso   1.00
H52    H     0.00824   0.11664   0.26786   0.00000  Uiso   1.00
C53    C     0.24829   0.20922   0.05351   0.00000  Uiso   1.00
O54    O     0.24092   0.23872   0.07771   0.00000  Uiso   1.00
O55    O     0.29832   0.19867   0.04686   0.00000  Uiso   1.00
H56    H     0.32510   0.21669   0.06547   0.00000  Uiso   1.00
C57    C     0.50156   0.08755   0.16702   0.00000  Uiso   1.00
C58    C     0.49844   0.24579   0.16631   0.00000  Uiso   1.00
C59    C     0.40164   0.16506   0.15525   0.00000  Uiso   1.00
C60    C     0.59836   0.16827   0.17808   0.00000  Uiso   1.00
C61    C     0.34726   0.15730   0.15145   0.00000  Uiso   1.00
C62    C     0.65274   0.17603   0.18189   0.00000  Uiso   1.00
C63    C     0.47169   0.02253   0.13145   0.00000  Uiso   1.00
C64    C     0.52831   0.31080   0.20188   0.00000  Uiso   1.00
C65    C     0.46796   0.31300   0.13062   0.00000  Uiso   1.00
C66    C     0.53204   0.02033   0.20272   0.00000  Uiso   1.00
C67    C     0.49733   0.29045   0.16610   0.00000  Uiso   1.00
C68    C     0.50267   0.04288   0.16723   0.00000  Uiso   1.00
C69    C     0.46204   0.14696   0.02168   0.00000  Uiso   1.00
C70    C     0.53796   0.18637   0.31166   0.00000  Uiso   1.00
C71    C     0.46176   0.14658   0.30574   0.00000  Uiso   1.00
C72    C     0.53824   0.18675   0.02759   0.00000  Uiso   1.00
Cu73   Cu    0.50000   0.16667   0.21355   0.00000  Uiso   1.00
Cu74   Cu    0.50000   0.16666   0.11978   0.00000  Uiso   1.00
H75    H     0.44857   0.04039   0.10507   0.00000  Uiso   1.00
H76    H     0.55143   0.29294   0.22827   0.00000  Uiso   1.00
H77    H     0.43205   0.13084   0.03791   0.00000  Uiso   1.00
H78    H     0.56795   0.20249   0.29542   0.00000  Uiso   1.00
N79    N     0.50001   0.16668   0.28403   0.00000  Uiso   1.00
N80    N     0.49999   0.16666   0.04931   0.00000  Uiso   1.00
O81    O     0.50000   0.10655   0.20625   0.00000  Uiso   1.00
O82    O     0.50000   0.22678   0.12709   0.00000  Uiso   1.00
O83    O     0.50000   0.10654   0.12706   0.00000  Uiso   1.00
O84    O     0.50000   0.22679   0.20628   0.00000  Uiso   1.00
O85    O     0.42495   0.16667   0.19712   0.00000  Uiso   1.00
O86    O     0.57505   0.16666   0.13621   0.00000  Uiso   1.00
O87    O     0.42494   0.16666   0.11793   0.00000  Uiso   1.00
O88    O     0.57506   0.16667   0.21540   0.00000  Uiso   1.00
C89    C     0.66078   0.12201   0.12095   0.00000  Uiso   1.00
O90    O     0.34317   0.11738   0.08296   0.00000  Uiso   1.00
O91    O     0.62594   0.09317   0.13652   0.00000  Uiso   1.00
H92    H     0.61581   0.07067   0.11286   0.00000  Uiso   1.00
C93    C     0.33922   0.21132   0.21239   0.00000  Uiso   1.00
O94    O     0.65683   0.21596   0.25038   0.00000  Uiso   1.00
O95    O     0.37406   0.24016   0.19681   0.00000  Uiso   1.00
H96    H     0.38419   0.26267   0.22047   0.00000  Uiso   1.00
C97    C     0.43118   0.29353   0.09378   0.00000  Uiso   1.00
O98    O     0.40800   0.26165   0.10201   0.00000  Uiso   1.00
O99    O     0.42155   0.31272   0.04992   0.00000  Uiso   1.00
H100   H     0.39543   0.29688   0.02795   0.00000  Uiso   1.00
C101   C     0.56882   0.03980   0.23956   0.00000  Uiso   1.00
O102   O     0.59200   0.07168   0.23132   0.00000  Uiso   1.00
O103   O     0.57845   0.02061   0.28341   0.00000  Uiso   1.00
H104   H     0.60457   0.03645   0.30538   0.00000  Uiso   1.00
C105   C     0.41838   0.12411   0.27982   0.00000  Uiso   1.00
O106   O     0.42575   0.09461   0.25562   0.00000  Uiso   1.00
O107   O     0.36834   0.13466   0.28647   0.00000  Uiso   1.00
H108   H     0.34157   0.11664   0.26786   0.00000  Uiso   1.00
C109   C     0.58162   0.20922   0.05351   0.00000  Uiso   1.00
O110   O     0.57425   0.23872   0.07771   0.00000  Uiso   1.00
O111   O     0.63166   0.19867   0.04686   0.00000  Uiso   1.00
H112   H     0.65843   0.21669   0.06547   0.00000  Uiso   1.00
C113   C     0.83489   0.08755   0.16702   0.00000  Uiso   1.00
C114   C     0.83177   0.24579   0.16631   0.00000  Uiso   1.00
C115   C     0.73498   0.16506   0.15525   0.00000  Uiso   1.00
C116   C     0.93169   0.16827   0.17808   0.00000  Uiso   1.00
C117   C     0.68059   0.15730   0.15145   0.00000  Uiso   1.00
C118   C     0.98607   0.17603   0.18189   0.00000  Uiso   1.00
C119   C     0.80503   0.02253   0.13145   0.00000  Uiso   1.00
C120   C     0.86164   0.31080   0.20188   0.00000  Uiso   1.00
C121   C     0.80130   0.31300   0.13062   0.00000  Uiso   1.00
C122   C     0.86537   0.02033   0.20272   0.00000  Uiso   1.00
C123   C     0.83067   0.29045   0.16610   0.00000  Uiso   1.00
C124   C     0.83600   0.04288   0.16723   0.00000  Uiso   1.00
C125   C     0.79537   0.14696   0.02168   0.00000  Uiso   1.00
C126   C     0.87129   0.18637   0.31166   0.00000  Uiso   1.00
C127   C     0.79509   0.14658   0.30574   0.00000  Uiso   1.00
C128   C     0.87158   0.18675   0.02759   0.00000  Uiso   1.00
Cu129  Cu    0.83333   0.16667   0.21355   0.00000  Uiso   1.00
Cu130  Cu    0.83333   0.16666   0.11978   0.00000  Uiso   1.00
H131   H     0.78190   0.04039   0.10507   0.00000  Uiso   1.00
H132   H     0.88476   0.29294   0.22827   0.00000  Uiso   1.00
H133   H     0.76538   0.13084   0.03791   0.00000  Uiso   1.00
H134   H     0.90128   0.20249   0.29542   0.00000  Uiso   1.00
N135   N     0.83335   0.16668   0.28403   0.00000  Uiso   1.00
N136   N     0.83332   0.16666   0.04931   0.00000  Uiso   1.00
O137   O     0.83333   0.10655   0.20625   0.00000  Uiso   1.00
O138   O     0.83334   0.22678   0.12709   0.00000  Uiso   1.00
O139   O     0.83333   0.10654   0.12706   0.00000  Uiso   1.00
O140   O     0.83334   0.22679   0.20628   0.00000  Uiso   1.00
O141   O     0.75828   0.16667   0.19712   0.00000  Uiso   1.00
O142   O     0.90839   0.16666   0.13621   0.00000  Uiso   1.00
O143   O     0.75828   0.16666   0.11793   0.00000  Uiso   1.00
O144   O     0.90839   0.16667   0.21540   0.00000  Uiso   1.00
C145   C     0.99411   0.12201   0.12095   0.00000  Uiso   1.00
O146   O     0.67651   0.11738   0.08296   0.00000  Uiso   1.00
O147   O     0.95928   0.09317   0.13652   0.00000  Uiso   1.00
H148   H     0.94914   0.07067   0.11286   0.00000  Uiso   1.00
C149   C     0.67256   0.21132   0.21239   0.00000  Uiso   1.00
O150   O     0.99016   0.21596   0.25038   0.00000  Uiso   1.00
O151   O     0.70739   0.24016   0.19681   0.00000  Uiso   1.00
H152   H     0.71753   0.26267   0.22047   0.00000  Uiso   1.00
C153   C     0.76452   0.29353   0.09378   0.00000  Uiso   1.00
O154   O     0.74134   0.26165   0.10201   0.00000  Uiso   1.00
O155   O     0.75489   0.31272   0.04992   0.00000  Uiso   1.00
H156   H     0.72876   0.29688   0.02795   0.00000  Uiso   1.00
C157   C     0.90215   0.03980   0.23956   0.00000  Uiso   1.00
O158   O     0.92533   0.07168   0.23132   0.00000  Uiso   1.00
O159   O     0.91178   0.02061   0.28341   0.00000  Uiso   1.00
H160   H     0.93790   0.03645   0.30538   0.00000  Uiso   1.00
C161   C     0.75171   0.12411   0.27982   0.00000  Uiso   1.00
O162   O     0.75908   0.09461   0.25562   0.00000  Uiso   1.00
O163   O     0.70168   0.13466   0.28647   0.00000  Uiso   1.00
H164   H     0.67490   0.11664   0.26786   0.00000  Uiso   1.00
C165   C     0.91496   0.20922   0.05351   0.00000  Uiso   1.00
O166   O     0.90759   0.23872   0.07771   0.00000  Uiso   1.00
O167   O     0.96499   0.19867   0.04686   0.00000  Uiso   1.00
H168   H     0.99177   0.21669   0.06547   0.00000  Uiso   1.00
C169   C     0.16823   0.42088   0.16702   0.00000  Uiso   1.00
C170   C     0.16511   0.57912   0.16631   0.00000  Uiso   1.00
C171   C     0.06831   0.49840   0.15525   0.00000  Uiso   1.00
C172   C     0.26502   0.50160   0.17808   0.00000  Uiso   1.00
C173   C     0.01393   0.49064   0.15145   0.00000  Uiso   1.00
C174   C     0.31941   0.50936   0.18189   0.00000  Uiso   1.00
C175   C     0.13836   0.35586   0.13145   0.00000  Uiso   1.00
C176   C     0.19497   0.64414   0.20188   0.00000  Uiso   1.00
C177   C     0.13463   0.64633   0.13062   0.00000  Uiso   1.00
C178   C     0.19870   0.35367   0.20272   0.00000  Uiso   1.00
C179   C     0.16400   0.62378   0.16610   0.00000  Uiso   1.00
C180   C     0.16933   0.37622   0.16723   0.00000  Uiso   1.00
C181   C     0.12871   0.48030   0.02168   0.00000  Uiso   1.00
C182   C     0.20463   0.51970   0.31166   0.00000  Uiso   1.00
C183   C     0.12843   0.47992   0.30574   0.00000  Uiso   1.00
C184   C     0.20491   0.52008   0.02759   0.00000  Uiso   1.00
Cu185  Cu    0.16667   0.50001   0.21355   0.00000  Uiso   1.00
Cu186  Cu    0.16667   0.49999   0.11978   0.00000  Uiso   1.00
H187   H     0.11524   0.37372   0.10507   0.00000  Uiso   1.00
H188   H     0.21810   0.62628   0.22827   0.00000  Uiso   1.00
H189   H     0.09872   0.46417   0.03791   0.00000  Uiso   1.00
H190   H     0.23462   0.53583   0.29542   0.00000  Uiso   1.00
N191   N     0.16668   0.50001   0.28403   0.00000  Uiso   1.00
N192   N     0.16665   0.49999   0.04931   0.00000  Uiso   1.00
O193   O     0.16666   0.43989   0.20625   0.00000  Uiso   1.00
O194   O     0.16667   0.56011   0.12709   0.00000  Uiso   1.00
O195   O     0.16666   0.43988   0.12706   0.00000  Uiso   1.00
O196   O     0.16667   0.56012   0.20628   0.00000  Uiso   1.00
O197   O     0.09161   0.50000   0.19712   0.00000  Uiso   1.00
O198   O     0.24172   0.50000   0.13621   0.00000  Uiso   1.00
O199   O     0.09161   0.49999   0.11793   0.00000  Uiso   1.00
O200   O     0.24172   0.50001   0.21540   0.00000  Uiso   1.00
C201   C     0.32744   0.45534   0.12095   0.00000  Uiso   1.00
O202   O     0.00984   0.45071   0.08296   0.00000  Uiso   1.00
O203   O     0.29261   0.42650   0.13652   0.00000  Uiso   1.00
H204   H     0.28247   0.40400   0.11286   0.00000  Uiso   1.00
C205   C     0.00589   0.54466   0.21239   0.00000  Uiso   1.00
O206   O     0.32349   0.54929   0.25038   0.00000  Uiso   1.00
O207   O     0.04072   0.57350   0.19681   0.00000  Uiso   1.00
H208   H     0.05086   0.59600   0.22047   0.00000  Uiso   1.00
C209   C     0.09785   0.62687   0.09378   0.00000  Uiso   1.00
O210   O     0.07467   0.59499   0.10201   0.00000  Uiso   1.00
O211   O     0.08822   0.64606   0.04992   0.00000  Uiso   1.00
H212   H     0.06210   0.63021   0.02795   0.00000  Uiso   1.00
C213   C     0.23548   0.37313   0.23956   0.00000  Uiso   1.00
O214   O     0.25866   0.40501   0.23132   0.00000  Uiso   1.00
O215   O     0.24511   0.35394   0.28341   0.00000  Uiso   1.00
H216   H     0.27124   0.36979   0.30538   0.00000  Uiso   1.00
C217   C     0.08504   0.45745   0.27982   0.00000  Uiso   1.00
O218   O     0.09242   0.42794   0.25562   0.00000  Uiso   1.00
O219   O     0.03501   0.46799   0.28647   0.00000  Uiso   1.00
H220   H     0.00824   0.44997   0.26786   0.00000  Uiso   1.00
C221   C     0.24829   0.54255   0.05351   0.00000  Uiso   1.00
O222   O     0.24092   0.57206   0.07771   0.00000  Uiso   1.00
O223   O     0.29832   0.53201   0.04686   0.00000  Uiso   1.00
H224   H     0.32510   0.55003   0.06547   0.00000  Uiso   1.00
C225   C     0.50156   0.42088   0.16702   0.00000  Uiso   1.00
C226   C     0.49844   0.57912   0.16631   0.00000  Uiso   1.00
C227   C     0.40164   0.49840   0.15525   0.00000  Uiso   1.00
C228   C     0.59836   0.50160   0.17808   0.00000  Uiso   1.00
C229   C     0.34726   0.49064   0.15145   0.00000  Uiso   1.00
C230   C     0.65274   0.50936   0.18189   0.00000  Uiso   1.00
C231   C     0.47169   0.35586   0.13145   0.00000  Uiso   1.00
C232   C     0.52831   0.64414   0.20188   0.00000  Uiso   1.00
C233   C     0.46796   0.64633   0.13062   0.00000  Uiso   1.00
C234   C     0.53204   0.35367   0.20272   0.00000  Uiso   1.00
C235   C     0.49733   0.62378   0.16610   0.00000  Uiso   1.00
C236   C     0.50267   0.37622   0.16723   0.00000  Uiso   1.00
C237   C     0.46204   0.48030   0.02168   0.00000  Uiso   1.00
C238   C     0.53796   0.51970   0.31166   0.00000  Uiso   1.00
C239   C     0.46176   0.47992   0.30574   0.00000  Uiso   1.00
C240   C     0.53824   0.52008   0.02759   0.00000  Uiso   1.00
Cu241  Cu    0.50000   0.50001   0.21355   0.00000  Uiso   1.00
Cu242  Cu    0.50000   0.49999   0.11978   0.00000  Uiso   1.00
H243   H     0.44857   0.37372   0.10507   0.00000  Uiso   1.00
H244   H     0.55143   0.62628   0.22827   0.00000  Uiso   1.00
H245   H     0.43205   0.46417   0.03791   0.00000  Uiso   1.00
H246   H     0.56795   0.53583   0.29542   0.00000  Uiso   1.00
N247   N     0.50001   0.50001   0.28403   0.00000  Uiso   1.00
N248   N     0.49999   0.49999   0.04931   0.00000  Uiso   1.00
O249   O     0.50000   0.43989   0.20625   0.00000  Uiso   1.00
O250   O     0.50000   0.56011   0.12709   0.00000  Uiso   1.00
O251   O     0.50000   0.43988   0.12706   0.00000  Uiso   1.00
O252   O     0.50000   0.56012   0.20628   0.00000  Uiso   1.00
O253   O     0.42495   0.50000   0.19712   0.00000  Uiso   1.00
O254   O     0.57505   0.50000   0.13621   0.00000  Uiso   1.00
O255   O     0.42494   0.49999   0.11793   0.00000  Uiso   1.00
O256   O     0.57506   0.50001   0.21540   0.00000  Uiso   1.00
C257   C     0.66078   0.45534   0.12095   0.00000  Uiso   1.00
O258   O     0.34317   0.45071   0.08296   0.00000  Uiso   1.00
O259   O     0.62594   0.42650   0.13652   0.00000  Uiso   1.00
H260   H     0.61581   0.40400   0.11286   0.00000  Uiso   1.00
C261   C     0.33922   0.54466   0.21239   0.00000  Uiso   1.00
O262   O     0.65683   0.54929   0.25038   0.00000  Uiso   1.00
O263   O     0.37406   0.57350   0.19681   0.00000  Uiso   1.00
H264   H     0.38419   0.59600   0.22047   0.00000  Uiso   1.00
C265   C     0.43118   0.62687   0.09378   0.00000  Uiso   1.00
O266   O     0.40800   0.59499   0.10201   0.00000  Uiso   1.00
O267   O     0.42155   0.64606   0.04992   0.00000  Uiso   1.00
H268   H     0.39543   0.63021   0.02795   0.00000  Uiso   1.00
C269   C     0.56882   0.37313   0.23956   0.00000  Uiso   1.00
O270   O     0.59200   0.40501   0.23132   0.00000  Uiso   1.00
O271   O     0.57845   0.35394   0.28341   0.00000  Uiso   1.00
H272   H     0.60457   0.36979   0.30538   0.00000  Uiso   1.00
C273   C     0.41838   0.45745   0.27982   0.00000  Uiso   1.00
O274   O     0.42575   0.42794   0.25562   0.00000  Uiso   1.00
O275   O     0.36834   0.46799   0.28647   0.00000  Uiso   1.00
H276   H     0.34157   0.44997   0.26786   0.00000  Uiso   1.00
C277   C     0.58162   0.54255   0.05351   0.00000  Uiso   1.00
O278   O     0.57425   0.57206   0.07771   0.00000  Uiso   1.00
O279   O     0.63166   0.53201   0.04686   0.00000  Uiso   1.00
H280   H     0.65843   0.55003   0.06547   0.00000  Uiso   1.00
C281   C     0.83489   0.42088   0.16702   0.00000  Uiso   1.00
C282   C     0.83177   0.57912   0.16631   0.00000  Uiso   1.00
C283   C     0.73498   0.49840   0.15525   0.00000  Uiso   1.00
C284   C     0.93169   0.50160   0.17808   0.00000  Uiso   1.00
C285   C     0.68059   0.49064   0.15145   0.00000  Uiso   1.00
C286   C     0.98607   0.50936   0.18189   0.00000  Uiso   1.00
C287   C     0.80503   0.35586   0.13145   0.00000  Uiso   1.00
C288   C     0.86164   0.64414   0.20188   0.00000  Uiso   1.00
C289   C     0.80130   0.64633   0.13062   0.00000  Uiso   1.00
C290   C     0.86537   0.35367   0.20272   0.00000  Uiso   1.00
C291   C     0.83067   0.62378   0.16610   0.00000  Uiso   1.00
C292   C     0.83600   0.37622   0.16723   0.00000  Uiso   1.00
C293   C     0.79537   0.48030   0.02168   0.00000  Uiso   1.00
C294   C     0.87129   0.51970   0.31166   0.00000  Uiso   1.00
C295   C     0.79509   0.47992   0.30574   0.00000  Uiso   1.00
C296   C     0.87158   0.52008   0.02759   0.00000  Uiso   1.00
Cu297  Cu    0.83333   0.50001   0.21355   0.00000  Uiso   1.00
Cu298  Cu    0.83333   0.49999   0.11978   0.00000  Uiso   1.00
H299   H     0.78190   0.37372   0.10507   0.00000  Uiso   1.00
H300   H     0.88476   0.62628   0.22827   0.00000  Uiso   1.00
H301   H     0.76538   0.46417   0.03791   0.00000  Uiso   1.00
H302   H     0.90128   0.53583   0.29542   0.00000  Uiso   1.00
N303   N     0.83335   0.50001   0.28403   0.00000  Uiso   1.00
N304   N     0.83332   0.49999   0.04931   0.00000  Uiso   1.00
O305   O     0.83333   0.43989   0.20625   0.00000  Uiso   1.00
O306   O     0.83334   0.56011   0.12709   0.00000  Uiso   1.00
O307   O     0.83333   0.43988   0.12706   0.00000  Uiso   1.00
O308   O     0.83334   0.56012   0.20628   0.00000  Uiso   1.00
O309   O     0.75828   0.50000   0.19712   0.00000  Uiso   1.00
O310   O     0.90839   0.50000   0.13621   0.00000  Uiso   1.00
O311   O     0.75828   0.49999   0.11793   0.00000  Uiso   1.00
O312   O     0.90839   0.50001   0.21540   0.00000  Uiso   1.00
C313   C     0.99411   0.45534   0.12095   0.00000  Uiso   1.00
O314   O     0.67651   0.45071   0.08296   0.00000  Uiso   1.00
O315   O     0.95928   0.42650   0.13652   0.00000  Uiso   1.00
H316   H     0.94914   0.40400   0.11286   0.00000  Uiso   1.00
C317   C     0.67256   0.54466   0.21239   0.00000  Uiso   1.00
O318   O     0.99016   0.54929   0.25038   0.00000  Uiso   1.00
O319   O     0.70739   0.57350   0.19681   0.00000  Uiso   1.00
H320   H     0.71753   0.59600   0.22047   0.00000  Uiso   1.00
C321   C     0.76452   0.62687   0.09378   0.00000  Uiso   1.00
O322   O     0.74134   0.59499   0.10201   0.00000  Uiso   1.00
O323   O     0.75489   0.64606   0.04992   0.00000  Uiso   1.00
H324   H     0.72876   0.63021   0.02795   0.00000  Uiso   1.00
C325   C     0.90215   0.37313   0.23956   0.00000  Uiso   1.00
O326   O     0.92533   0.40501   0.23132   0.00000  Uiso   1.00
O327   O     0.91178   0.35394   0.28341   0.00000  Uiso   1.00
H328   H     0.93790   0.36979   0.30538   0.00000  Uiso   1.00
C329   C     0.75171   0.45745   0.27982   0.00000  Uiso   1.00
O330   O     0.75908   0.42794   0.25562   0.00000  Uiso   1.00
O331   O     0.70168   0.46799   0.28647   0.00000  Uiso   1.00
H332   H     0.67490   0.44997   0.26786   0.00000  Uiso   1.00
C333   C     0.91496   0.54255   0.05351   0.00000  Uiso   1.00
O334   O     0.90759   0.57206   0.07771   0.00000  Uiso   1.00
O335   O     0.96499   0.53201   0.04686   0.00000  Uiso   1.00
H336   H     0.99177   0.55003   0.06547   0.00000  Uiso   1.00
C337   C     0.16823   0.75421   0.16702   0.00000  Uiso   1.00
C338   C     0.16511   0.91245   0.16631   0.00000  Uiso   1.00
C339   C     0.06831   0.83173   0.15525   0.00000  Uiso   1.00
C340   C     0.26502   0.83494   0.17808   0.00000  Uiso   1.00
C341   C     0.01393   0.82397   0.15145   0.00000  Uiso   1.00
C342   C     0.31941   0.84270   0.18189   0.00000  Uiso   1.00
C343   C     0.13836   0.68920   0.13145   0.00000  Uiso   1.00
C344   C     0.19497   0.97747   0.20188   0.00000  Uiso   1.00
C345   C     0.13463   0.97967   0.13062   0.00000  Uiso   1.00
C346   C     0.19870   0.68700   0.20272   0.00000  Uiso   1.00
C347   C     0.16400   0.95712   0.16610   0.00000  Uiso   1.00
C348   C     0.16933   0.70955   0.16723   0.00000  Uiso   1.00
C349   C     0.12871   0.81363   0.02168   0.00000  Uiso   1.00
C350   C     0.20463   0.85304   0.31166   0.00000  Uiso   1.00
C351   C     0.12843   0.81325   0.30574   0.00000  Uiso   1.00
C352   C     0.20491   0.85342   0.02759   0.00000  Uiso   1.00
Cu353  Cu    0.16667   0.83334   0.21355   0.00000  Uiso   1.00
Cu354  Cu    0.16667   0.83333   0.11978   0.00000  Uiso   1.00
H355   H     0.11524   0.70706   0.10507   0.00000  Uiso   1.00
H356   H     0.21810   0.95961   0.22827   0.00000  Uiso   1.00
H357   H     0.09872   0.79751   0.03791   0.00000  Uiso   1.00
H358   H     0.23462   0.86916   0.29542   0.00000  Uiso   1.00
N359   N     0.16668   0.83334   0.28403   0.00000  Uiso   1.00
N360   N     0.16665   0.83332   0.04931   0.00000  Uiso   1.00
O361   O     0.16666   0.77322   0.20625   0.00000  Uiso   1.00
O362   O     0.16667   0.89345   0.12709   0.00000  Uiso   1.00
O363   O     0.16666   0.77321   0.12706   0.00000  Uiso   1.00
O364   O     0.16667   0.89346   0.20628   0.00000  Uiso   1.00
O365   O     0.09161   0.83334   0.19712   0.00000  Uiso   1.00
O366   O     0.24172   0.83333   0.13621   0.00000  Uiso   1.00
O367   O     0.09161   0.83333   0.11793   0.00000  Uiso   1.00
O368   O     0.24172   0.83334   0.21540   0.00000  Uiso   1.00
C369   C     0.32744   0.78868   0.12095   0.00000  Uiso   1.00
O370   O     0.00984   0.78404   0.08296   0.00000  Uiso   1.00
O371   O     0.29261   0.75984   0.13652   0.00000  Uiso   1.00
H372   H     0.28247   0.73733   0.11286   0.00000  Uiso   1.00
C373   C     0.00589   0.87799   0.21239   0.00000  Uiso   1.00
O374   O     0.32349   0.88262   0.25038   0.00000  Uiso   1.00
O375   O     0.04072   0.90683   0.19681   0.00000  Uiso   1.00
H376   H     0.05086   0.92933   0.22047   0.00000  Uiso   1.00
C377   C     0.09785   0.96020   0.09378   0.00000  Uiso   1.00
O378   O     0.07467   0.92832   0.10201   0.00000  Uiso   1.00
O379   O     0.08822   0.97939   0.04992   0.00000  Uiso   1.00
H380   H     0.06210   0.96355   0.02795   0.00000  Uiso   1.00
C381   C     0.23548   0.70647   0.23956   0.00000  Uiso   1.00
O382   O     0.25866   0.73835   0.23132   0.00000  Uiso   1.00
O383   O     0.24511   0.68728   0.28341   0.00000  Uiso   1.00
H384   H     0.27124   0.70312   0.30538   0.00000  Uiso   1.00
C385   C     0.08504   0.79078   0.27982   0.00000  Uiso   1.00
O386   O     0.09242   0.76128   0.25562   0.00000  Uiso   1.00
O387   O     0.03501   0.80133   0.28647   0.00000  Uiso   1.00
H388   H     0.00824   0.78331   0.26786   0.00000  Uiso   1.00
C389   C     0.24829   0.87589   0.05351   0.00000  Uiso   1.00
O390   O     0.24092   0.90539   0.07771   0.00000  Uiso   1.00
O391   O     0.29832   0.86534   0.04686   0.00000  Uiso   1.00
H392   H     0.32510   0.88336   0.06547   0.00000  Uiso   1.00
C393   C     0.50156   0.75421   0.16702   0.00000  Uiso   1.00
C394   C     0.49844   0.91245   0.16631   0.00000  Uiso   1.00
C395   C     0.40164   0.83173   0.15525   0.00000  Uiso   1.00
C396   C     0.59836   0.83494   0.17808   0.00000  Uiso   1.00
C397   C     0.34726   0.82397   0.15145   0.00000  Uiso   1.00
C398   C     0.65274   0.84270   0.18189   0.00000  Uiso   1.00
C399   C     0.47169   0.68920   0.13145   0.00000  Uiso   1.00
C400   C     0.52831   0.97747   0.20188   0.00000  Uiso   1.00
C401   C     0.46796   0.97967   0.13062   0.00000  Uiso   1.00
C402   C     0.53204   0.68700   0.20272   0.00000  Uiso   1.00
C403   C     0.49733   0.95712   0.16610   0.00000  Uiso   1.00
C404   C     0.50267   0.70955   0.16723   0.00000  Uiso   1.00
C405   C     0.46204   0.81363   0.02168   0.00000  Uiso   1.00
C406   C     0.53796   0.85304   0.31166   0.00000  Uiso   1.00
C407   C     0.46176   0.81325   0.30574   0.00000  Uiso   1.00
C408   C     0.53824   0.85342   0.02759   0.00000  Uiso   1.00
Cu409  Cu    0.50000   0.83334   0.21355   0.00000  Uiso   1.00
Cu410  Cu    0.50000   0.83333   0.11978   0.00000  Uiso   1.00
H411   H     0.44857   0.70706   0.10507   0.00000  Uiso   1.00
H412   H     0.55143   0.95961   0.22827   0.00000  Uiso   1.00
H413   H     0.43205   0.79751   0.03791   0.00000  Uiso   1.00
H414   H     0.56795   0.86916   0.29542   0.00000  Uiso   1.00
N415   N     0.50001   0.83334   0.28403   0.00000  Uiso   1.00
N416   N     0.49999   0.83332   0.04931   0.00000  Uiso   1.00
O417   O     0.50000   0.77322   0.20625   0.00000  Uiso   1.00
O418   O     0.50000   0.89345   0.12709   0.00000  Uiso   1.00
O419   O     0.50000   0.77321   0.12706   0.00000  Uiso   1.00
O420   O     0.50000   0.89346   0.20628   0.00000  Uiso   1.00
O421   O     0.42495   0.83334   0.19712   0.00000  Uiso   1.00
O422   O     0.57505   0.83333   0.13621   0.00000  Uiso   1.00
O423   O     0.42494   0.83333   0.11793   0.00000  Uiso   1.00
O424   O     0.57506   0.83334   0.21540   0.00000  Uiso   1.00
C425   C     0.66078   0.78868   0.12095   0.00000  Uiso   1.00
O426   O     0.34317   0.78404   0.08296   0.00000  Uiso   1.00
O427   O     0.62594   0.75984   0.13652   0.00000  Uiso   1.00
H428   H     0.61581   0.73733   0.11286   0.00000  Uiso   1.00
C429   C     0.33922   0.87799   0.21239   0.00000  Uiso   1.00
O430   O     0.65683   0.88262   0.25038   0.00000  Uiso   1.00
O431   O     0.37406   0.90683   0.19681   0.00000  Uiso   1.00
H432   H     0.38419   0.92933   0.22047   0.00000  Uiso   1.00
C433   C     0.43118   0.96020   0.09378   0.00000  Uiso   1.00
O434   O     0.40800   0.92832   0.10201   0.00000  Uiso   1.00
O435   O     0.42155   0.97939   0.04992   0.00000  Uiso   1.00
H436   H     0.39543   0.96355   0.02795   0.00000  Uiso   1.00
C437   C     0.56882   0.70647   0.23956   0.00000  Uiso   1.00
O438   O     0.59200   0.73835   0.23132   0.00000  Uiso   1.00
O439   O     0.57845   0.68728   0.28341   0.00000  Uiso   1.00
H440   H     0.60457   0.70312   0.30538   0.00000  Uiso   1.00
C441   C     0.41838   0.79078   0.27982   0.00000  Uiso   1.00
O442   O     0.42575   0.76128   0.25562   0.00000  Uiso   1.00
O443   O     0.36834   0.80133   0.28647   0.00000  Uiso   1.00
H444   H     0.34157   0.78331   0.26786   0.00000  Uiso   1.00
C445   C     0.58162   0.87589   0.05351   0.00000  Uiso   1.00
O446   O     0.57425   0.90539   0.07771   0.00000  Uiso   1.00
O447   O     0.63166   0.86534   0.04686   0.00000  Uiso   1.00
H448   H     0.65843   0.88336   0.06547   0.00000  Uiso   1.00
C449   C     0.83489   0.75421   0.16702   0.00000  Uiso   1.00
C450   C     0.83177   0.91245   0.16631   0.00000  Uiso   1.00
C451   C     0.73498   0.83173   0.15525   0.00000  Uiso   1.00
C452   C     0.93169   0.83494   0.17808   0.00000  Uiso   1.00
C453   C     0.68059   0.82397   0.15145   0.00000  Uiso   1.00
C454   C     0.98607   0.84270   0.18189   0.00000  Uiso   1.00
C455   C     0.80503   0.68920   0.13145   0.00000  Uiso   1.00
C456   C     0.86164   0.97747   0.20188   0.00000  Uiso   1.00
C457   C     0.80130   0.97967   0.13062   0.00000  Uiso   1.00
C458   C     0.86537   0.68700   0.20272   0.00000  Uiso   1.00
C459   C     0.83067   0.95712   0.16610   0.00000  Uiso   1.00
C460   C     0.83600   0.70955   0.16723   0.00000  Uiso   1.00
C461   C     0.79537   0.81363   0.02168   0.00000  Uiso   1.00
C462   C     0.87129   0.85304   0.31166   0.00000  Uiso   1.00
C463   C     0.79509   0.81325   0.30574   0.00000  Uiso   1.00
C464   C     0.87158   0.85342   0.02759   0.00000  Uiso   1.00
Cu465  Cu    0.83333   0.83334   0.21355   0.00000  Uiso   1.00
Cu466  Cu    0.83333   0.83333   0.11978   0.00000  Uiso   1.00
H467   H     0.78190   0.70706   0.10507   0.00000  Uiso   1.00
H468   H     0.88476   0.95961   0.22827   0.00000  Uiso   1.00
H469   H     0.76538   0.79751   0.03791   0.00000  Uiso   1.00
H470   H     0.90128   0.86916   0.29542   0.00000  Uiso   1.00
N471   N     0.83335   0.83334   0.28403   0.00000  Uiso   1.00
N472   N     0.83332   0.83332   0.04931   0.00000  Uiso   1.00
O473   O     0.83333   0.77322   0.20625   0.00000  Uiso   1.00
O474   O     0.83334   0.89345   0.12709   0.00000  Uiso   1.00
O475   O     0.83333   0.77321   0.12706   0.00000  Uiso   1.00
O476   O     0.83334   0.89346   0.20628   0.00000  Uiso   1.00
O477   O     0.75828   0.83334   0.19712   0.00000  Uiso   1.00
O478   O     0.90839   0.83333   0.13621   0.00000  Uiso   1.00
O479   O     0.75828   0.83333   0.11793   0.00000  Uiso   1.00
O480   O     0.90839   0.83334   0.21540   0.00000  Uiso   1.00
C481   C     0.99411   0.78868   0.12095   0.00000  Uiso   1.00
O482   O     0.67651   0.78404   0.08296   0.00000  Uiso   1.00
O483   O     0.95928   0.75984   0.13652   0.00000  Uiso   1.00
H484   H     0.94914   0.73733   0.11286   0.00000  Uiso   1.00
C485   C     0.67256   0.87799   0.21239   0.00000  Uiso   1.00
O486   O     0.99016   0.88262   0.25038   0.00000  Uiso   1.00
O487   O     0.70739   0.90683   0.19681   0.00000  Uiso   1.00
H488   H     0.71753   0.92933   0.22047   0.00000  Uiso   1.00
C489   C     0.76452   0.96020   0.09378   0.00000  Uiso   1.00
O490   O     0.74134   0.92832   0.10201   0.00000  Uiso   1.00
O491   O     0.75489   0.97939   0.04992   0.00000  Uiso   1.00
H492   H     0.72876   0.96355   0.02795   0.00000  Uiso   1.00
C493   C     0.90215   0.70647   0.23956   0.00000  Uiso   1.00
O494   O     0.92533   0.73835   0.23132   0.00000  Uiso   1.00
O495   O     0.91178   0.68728   0.28341   0.00000  Uiso   1.00
H496   H     0.93790   0.70312   0.30538   0.00000  Uiso   1.00
C497   C     0.75171   0.79078   0.27982   0.00000  Uiso   1.00
O498   O     0.75908   0.76128   0.25562   0.00000  Uiso   1.00
O499   O     0.70168   0.80133   0.28647   0.00000  Uiso   1.00
H500   H     0.67490   0.78331   0.26786   0.00000  Uiso   1.00
C501   C     0.91496   0.87589   0.05351   0.00000  Uiso   1.00
O502   O     0.90759   0.90539   0.07771   0.00000  Uiso   1.00
O503   O     0.96499   0.86534   0.04686   0.00000  Uiso   1.00
H504   H     0.99177   0.88336   0.06547   0.00000  Uiso   1.00
C505   C     0.16823   0.08755   0.50036   0.00000  Uiso   1.00
C506   C     0.16511   0.24579   0.49964   0.00000  Uiso   1.00
C507   C     0.06831   0.16506   0.48858   0.00000  Uiso   1.00
C508   C     0.26502   0.16827   0.51142   0.00000  Uiso   1.00
C509   C     0.01393   0.15730   0.48478   0.00000  Uiso   1.00
C510   C     0.31941   0.17603   0.51522   0.00000  Uiso   1.00
C511   C     0.13836   0.02253   0.46478   0.00000  Uiso   1.00
C512   C     0.19497   0.31080   0.53522   0.00000  Uiso   1.00
C513   C     0.13463   0.31300   0.46395   0.00000  Uiso   1.00
C514   C     0.19870   0.02033   0.53605   0.00000  Uiso   1.00
C515   C     0.16400   0.29045   0.49943   0.00000  Uiso   1.00
C516   C     0.16933   0.04288   0.50057   0.00000  Uiso   1.00
C517   C     0.12871   0.14696   0.35501   0.00000  Uiso   1.00
C518   C     0.20463   0.18637   0.64499   0.00000  Uiso   1.00
C519   C     0.12843   0.14658   0.63908   0.00000  Uiso   1.00
C520   C     0.20491   0.18675   0.36092   0.00000  Uiso   1.00
Cu521  Cu    0.16667   0.16667   0.54689   0.00000  Uiso   1.00
Cu522  Cu    0.16667   0.16666   0.45311   0.00000  Uiso   1.00
H523   H     0.11524   0.04039   0.43840   0.00000  Uiso   1.00
H524   H     0.21810   0.29294   0.56160   0.00000  Uiso   1.00
H525   H     0.09872   0.13084   0.37124   0.00000  Uiso   1.00
H526   H     0.23462   0.20249   0.62875   0.00000  Uiso   1.00
N527   N     0.16668   0.16668   0.61736   0.00000  Uiso   1.00
N528   N     0.16665   0.16666   0.38264   0.00000  Uiso   1.00
O529   O     0.16666   0.10655   0.53958   0.00000  Uiso   1.00
O530   O     0.16667   0.22678   0.46042   0.00000  Uiso   1.00
O531   O     0.16666   0.10654   0.46039   0.00000  Uiso   1.00
O532   O     0.16667   0.22679   0.53961   0.00000  Uiso   1.00
O533   O     0.09161   0.16667   0.53046   0.00000  Uiso   1.00
O534   O     0.24172   0.16666   0.46954   0.00000  Uiso   1.00
O535   O     0.09161   0.16666   0.45127   0.00000  Uiso   1.00
O536   O     0.24172   0.16667   0.54873   0.00000  Uiso   1.00
C537   C     0.32744   0.12201   0.45428   0.00000  Uiso   1.00
O538   O     0.00984   0.11738   0.41629   0.00000  Uiso   1.00
O539   O     0.29261   0.09317   0.46985   0.00000  Uiso   1.00
H540   H     0.28247   0.07067   0.44620   0.00000  Uiso   1.00
C541   C     0.00589   0.21132   0.54572   0.00000  Uiso   1.00
O542   O     0.32349   0.21596   0.58371   0.00000  Uiso   1.00
O543   O     0.04072   0.24016   0.53015   0.00000  Uiso   1.00
H544   H     0.05086   0.26267   0.55380   0.00000  Uiso   1.00
C545   C     0.09785   0.29353   0.42711   0.00000  Uiso   1.00
O546   O     0.07467   0.26165   0.43535   0.00000  Uiso   1.00
O547   O     0.08822   0.31272   0.38326   0.00000  Uiso   1.00
H548   H     0.06210   0.29688   0.36128   0.00000  Uiso   1.00
C549   C     0.23548   0.03980   0.57289   0.00000  Uiso   1.00
O550   O     0.25866   0.07168   0.56465   0.00000  Uiso   1.00
O551   O     0.24511   0.02061   0.61674   0.00000  Uiso   1.00
H552   H     0.27124   0.03645   0.63872   0.00000  Uiso   1.00
C553   C     0.08504   0.12411   0.61316   0.00000  Uiso   1.00
O554   O     0.09242   0.09461   0.58896   0.00000  Uiso   1.00
O555   O     0.03501   0.13466   0.61980   0.00000  Uiso   1.00
H556   H     0.00824   0.11664   0.60119   0.00000  Uiso   1.00
C557   C     0.24829   0.20922   0.38684   0.00000  Uiso   1.00
O558   O     0.24092   0.23872   0.41104   0.00000  Uiso   1.00
O559   O     0.29832   0.19867   0.38020   0.00000  Uiso   1.00
H560   H     0.32510   0.21669   0.39881   0.00000  Uiso   1.00
C561   C     0.50156   0.08755   0.50036   0.00000  Uiso   1.00
C562   C     0.49844   0.24579   0.49964   0.00000  Uiso   1.00
C563   C     0.40164   0.16506   0.48858   0.00000  Uiso   1.00
C564   C     0.59836   0.16827   0.51142   0.00000  Uiso   1.00
C565   C     0.34726   0.15730   0.48478   0.00000  Uiso   1.00
C566   C     0.65274   0.17603   0.51522   0.00000  Uiso   1.00
C567   C     0.47169   0.02253   0.46478   0.00000  Uiso   1.00
C568   C     0.52831   0.31080   0.53522   0.00000  Uiso   1.00
C569   C     0.46796   0.31300   0.46395   0.00000  Uiso   1.00
C570   C     0.53204   0.02033   0.53605   0.00000  Uiso   1.00
C571   C     0.49733   0.29045   0.49943   0.00000  Uiso   1.00
C572   C     0.50267   0.04288   0.50057   0.00000  Uiso   1.00
C573   C     0.46204   0.14696   0.35501   0.00000  Uiso   1.00
C574   C     0.53796   0.18637   0.64499   0.00000  Uiso   1.00
C575   C     0.46176   0.14658   0.63908   0.00000  Uiso   1.00
C576   C     0.53824   0.18675   0.36092   0.00000  Uiso   1.00
Cu577  Cu    0.50000   0.16667   0.54689   0.00000  Uiso   1.00
Cu578  Cu    0.50000   0.16666   0.45311   0.00000  Uiso   1.00
H579   H     0.44857   0.04039   0.43840   0.00000  Uiso   1.00
H580   H     0.55143   0.29294   0.56160   0.00000  Uiso   1.00
H581   H     0.43205   0.13084   0.37124   0.00000  Uiso   1.00
H582   H     0.56795   0.20249   0.62875   0.00000  Uiso   1.00
N583   N     0.50001   0.16668   0.61736   0.00000  Uiso   1.00
N584   N     0.49999   0.16666   0.38264   0.00000  Uiso   1.00
O585   O     0.50000   0.10655   0.53958   0.00000  Uiso   1.00
O586   O     0.50000   0.22678   0.46042   0.00000  Uiso   1.00
O587   O     0.50000   0.10654   0.46039   0.00000  Uiso   1.00
O588   O     0.50000   0.22679   0.53961   0.00000  Uiso   1.00
O589   O     0.42495   0.16667   0.53046   0.00000  Uiso   1.00
O590   O     0.57505   0.16666   0.46954   0.00000  Uiso   1.00
O591   O     0.42494   0.16666   0.45127   0.00000  Uiso   1.00
O592   O     0.57506   0.16667   0.54873   0.00000  Uiso   1.00
C593   C     0.66078   0.12201   0.45428   0.00000  Uiso   1.00
O594   O     0.34317   0.11738   0.41629   0.00000  Uiso   1.00
O595   O     0.62594   0.09317   0.46985   0.00000  Uiso   1.00
H596   H     0.61581   0.07067   0.44620   0.00000  Uiso   1.00
C597   C     0.33922   0.21132   0.54572   0.00000  Uiso   1.00
O598   O     0.65683   0.21596   0.58371   0.00000  Uiso   1.00
O599   O     0.37406   0.24016   0.53015   0.00000  Uiso   1.00
H600   H     0.38419   0.26267   0.55380   0.00000  Uiso   1.00
C601   C     0.43118   0.29353   0.42711   0.00000  Uiso   1.00
O602   O     0.40800   0.26165   0.43535   0.00000  Uiso   1.00
O603   O     0.42155   0.31272   0.38326   0.00000  Uiso   1.00
H604   H     0.39543   0.29688   0.36128   0.00000  Uiso   1.00
C605   C     0.56882   0.03980   0.57289   0.00000  Uiso   1.00
O606   O     0.59200   0.07168   0.56465   0.00000  Uiso   1.00
O607   O     0.57845   0.02061   0.61674   0.00000  Uiso   1.00
H608   H     0.60457   0.03645   0.63872   0.00000  Uiso   1.00
C609   C     0.41838   0.12411   0.61316   0.00000  Uiso   1.00
O610   O     0.42575   0.09461   0.58896   0.00000  Uiso   1.00
O611   O     0.36834   0.13466   0.61980   0.00000  Uiso   1.00
H612   H     0.34157   0.11664   0.60119   0.00000  Uiso   1.00
C613   C     0.58162   0.20922   0.38684   0.00000  Uiso   1.00
O614   O     0.57425   0.23872   0.41104   0.00000  Uiso   1.00
O615   O     0.63166   0.19867   0.38020   0.00000  Uiso   1.00
H616   H     0.65843   0.21669   0.39881   0.00000  Uiso   1.00
C617   C     0.83489   0.08755   0.50036   0.00000  Uiso   1.00
C618   C     0.83177   0.24579   0.49964   0.00000  Uiso   1.00
C619   C     0.73498   0.16506   0.48858   0.00000  Uiso   1.00
C620   C     0.93169   0.16827   0.51142   0.00000  Uiso   1.00
C621   C     0.68059   0.15730   0.48478   0.00000  Uiso   1.00
C622   C     0.98607   0.17603   0.51522   0.00000  Uiso   1.00
C623   C     0.80503   0.02253   0.46478   0.00000  Uiso   1.00
C624   C     0.86164   0.31080   0.53522   0.00000  Uiso   1.00
C625   C     0.80130   0.31300   0.46395   0.00000  Uiso   1.00
C626   C     0.86537   0.02033   0.53605   0.00000  Uiso   1.00
C627   C     0.83067   0.29045   0.49943   0.00000  Uiso   1.00
C628   C     0.83600   0.04288   0.50057   0.00000  Uiso   1.00
C629   C     0.79537   0.14696   0.35501   0.00000  Uiso   1.00
C630   C     0.87129   0.18637   0.64499   0.00000  Uiso   1.00
C631   C     0.79509   0.14658   0.63908   0.00000  Uiso   1.00
C632   C     0.87158   0.18675   0.36092   0.00000  Uiso   1.00
Cu633  Cu    0.83333   0.16667   0.54689   0.00000  Uiso   1.00
Cu634  Cu    0.83333   0.16666   0.45311   0.00000  Uiso   1.00
H635   H     0.78190   0.04039   0.43840   0.00000  Uiso   1.00
H636   H     0.88476   0.29294   0.56160   0.00000  Uiso   1.00
H637   H     0.76538   0.13084   0.37124   0.00000  Uiso   1.00
H638   H     0.90128   0.20249   0.62875   0.00000  Uiso   1.00
N639   N     0.83335   0.16668   0.61736   0.00000  Uiso   1.00
N640   N     0.83332   0.16666   0.38264   0.00000  Uiso   1.00
O641   O     0.83333   0.10655   0.53958   0.00000  Uiso   1.00
O642   O     0.83334   0.22678   0.46042   0.00000  Uiso   1.00
O643   O     0.83333   0.10654   0.46039   0.00000  Uiso   1.00
O644   O     0.83334   0.22679   0.53961   0.00000  Uiso   1.00
O645   O     0.75828   0.16667   0.53046   0.00000  Uiso   1.00
O646   O     0.90839   0.16666   0.46954   0.00000  Uiso   1.00
O647   O     0.75828   0.16666   0.45127   0.00000  Uiso   1.00
O648   O     0.90839   0.16667   0.54873   0.00000  Uiso   1.00
C649   C     0.99411   0.12201   0.45428   0.00000  Uiso   1.00
O650   O     0.67651   0.11738   0.41629   0.00000  Uiso   1.00
O651   O     0.95928   0.09317   0.46985   0.00000  Uiso   1.00
H652   H     0.94914   0.07067   0.44620   0.00000  Uiso   1.00
C653   C     0.67256   0.21132   0.54572   0.00000  Uiso   1.00
O654   O     0.99016   0.21596   0.58371   0.00000  Uiso   1.00
O655   O     0.70739   0.24016   0.53015   0.00000  Uiso   1.00
H656   H     0.71753   0.26267   0.55380   0.00000  Uiso   1.00
C657   C     0.76452   0.29353   0.42711   0.00000  Uiso   1.00
O658   O     0.74134   0.26165   0.43535   0.00000  Uiso   1.00
O659   O     0.75489   0.31272   0.38326   0.00000  Uiso   1.00
H660   H     0.72876   0.29688   0.36128   0.00000  Uiso   1.00
C661   C     0.90215   0.03980   0.57289   0.00000  Uiso   1.00
O662   O     0.92533   0.07168   0.56465   0.00000  Uiso   1.00
O663   O     0.91178   0.02061   0.61674   0.00000  Uiso   1.00
H664   H     0.93790   0.03645   0.63872   0.00000  Uiso   1.00
C665   C     0.75171   0.12411   0.61316   0.00000  Uiso   1.00
O666   O     0.75908   0.09461   0.58896   0.00000  Uiso   1.00
O667   O     0.70168   0.13466   0.61980   0.00000  Uiso   1.00
H668   H     0.67490   0.11664   0.60119   0.00000  Uiso   1.00
C669   C     0.91496   0.20922   0.38684   0.00000  Uiso   1.00
O670   O     0.90759   0.23872   0.41104   0.00000  Uiso   1.00
O671   O     0.96499   0.19867   0.38020   0.00000  Uiso   1.00
H672   H     0.99177   0.21669   0.39881   0.00000  Uiso   1.00
C673   C     0.16823   0.42088   0.50036   0.00000  Uiso   1.00
C674   C     0.16511   0.57912   0.49964   0.00000  Uiso   1.00
C675   C     0.06831   0.49840   0.48858   0.00000  Uiso   1.00
C676   C     0.26502   0.50160   0.51142   0.00000  Uiso   1.00
C677   C     0.01393   0.49064   0.48478   0.00000  Uiso   1.00
C678   C     0.31941   0.50936   0.51522   0.00000  Uiso   1.00
C679   C     0.13836   0.35586   0.46478   0.00000  Uiso   1.00
C680   C     0.19497   0.64414   0.53522   0.00000  Uiso   1.00
C681   C     0.13463   0.64633   0.46395   0.00000  Uiso   1.00
C682   C     0.19870   0.35367   0.53605   0.00000  Uiso   1.00
C683   C     0.16400   0.62378   0.49943   0.00000  Uiso   1.00
C684   C     0.16933   0.37622   0.50057   0.00000  Uiso   1.00
C685   C     0.12871   0.48030   0.35501   0.00000  Uiso   1.00
C686   C     0.20463   0.51970   0.64499   0.00000  Uiso   1.00
C687   C     0.12843   0.47992   0.63908   0.00000  Uiso   1.00
C688   C     0.20491   0.52008   0.36092   0.00000  Uiso   1.00
Cu689  Cu    0.16667   0.50001   0.54689   0.00000  Uiso   1.00
Cu690  Cu    0.16667   0.49999   0.45311   0.00000  Uiso   1.00
H691   H     0.11524   0.37372   0.43840   0.00000  Uiso   1.00
H692   H     0.21810   0.62628   0.56160   0.00000  Uiso   1.00
H693   H     0.09872   0.46417   0.37124   0.00000  Uiso   1.00
H694   H     0.23462   0.53583   0.62875   0.00000  Uiso   1.00
N695   N     0.16668   0.50001   0.61736   0.00000  Uiso   1.00
N696   N     0.16665   0.49999   0.38264   0.00000  Uiso   1.00
O697   O     0.16666   0.43989   0.53958   0.00000  Uiso   1.00
O698   O     0.16667   0.56011   0.46042   0.00000  Uiso   1.00
O699   O     0.16666   0.43988   0.46039   0.00000  Uiso   1.00
O700   O     0.16667   0.56012   0.53961   0.00000  Uiso   1.00
O701   O     0.09161   0.50000   0.53046   0.00000  Uiso   1.00
O702   O     0.24172   0.50000   0.46954   0.00000  Uiso   1.00
O703   O     0.09161   0.49999   0.45127   0.00000  Uiso   1.00
O704   O     0.24172   0.50001   0.54873   0.00000  Uiso   1.00
C705   C     0.32744   0.45534   0.45428   0.00000  Uiso   1.00
O706   O     0.00984   0.45071   0.41629   0.00000  Uiso   1.00
O707   O     0.29261   0.42650   0.46985   0.00000  Uiso   1.00
H708   H     0.28247   0.40400   0.44620   0.00000  Uiso   1.00
C709   C     0.00589   0.54466   0.54572   0.00000  Uiso   1.00
O710   O     0.32349   0.54929   0.58371   0.00000  Uiso   1.00
O711   O     0.04072   0.57350   0.53015   0.00000  Uiso   1.00
H712   H     0.05086   0.59600   0.55380   0.00000  Uiso   1.00
C713   C     0.09785   0.62687   0.42711   0.00000  Uiso   1.00
O714   O     0.07467   0.59499   0.43535   0.00000  Uiso   1.00
O715   O     0.08822   0.64606   0.38326   0.00000  Uiso   1.00
H716   H     0.06210   0.63021   0.36128   0.00000  Uiso   1.00
C717   C     0.23548   0.37313   0.57289   0.00000  Uiso   1.00
O718   O     0.25866   0.40501   0.56465   0.00000  Uiso   1.00
O719   O     0.24511   0.35394   0.61674   0.00000  Uiso   1.00
H720   H     0.27124   0.36979   0.63872   0.00000  Uiso   1.00
C721   C     0.08504   0.45745   0.61316   0.00000  Uiso   1.00
O722   O     0.09242   0.42794   0.58896   0.00000  Uiso   1.00
O723   O     0.03501   0.46799   0.61980   0.00000  Uiso   1.00
H724   H     0.00824   0.44997   0.60119   0.00000  Uiso   1.00
C725   C     0.24829   0.54255   0.38684   0.00000  Uiso   1.00
O726   O     0.24092   0.57206   0.41104   0.00000  Uiso   1.00
O727   O     0.29832   0.53201   0.38020   0.00000  Uiso   1.00
H728   H     0.32510   0.55003   0.39881   0.00000  Uiso   1.00
C729   C     0.50156   0.42088   0.50036   0.00000  Uiso   1.00
C730   C     0.49844   0.57912   0.49964   0.00000  Uiso   1.00
C731   C     0.40164   0.49840   0.48858   0.00000  Uiso   1.00
C732   C     0.59836   0.50160   0.51142   0.00000  Uiso   1.00
C733   C     0.34726   0.49064   0.48478   0.00000  Uiso   1.00
C734   C     0.65274   0.50936   0.51522   0.00000  Uiso   1.00
C735   C     0.47169   0.35586   0.46478   0.00000  Uiso   1.00
C736   C     0.52831   0.64414   0.53522   0.00000  Uiso   1.00
C737   C     0.46796   0.64633   0.46395   0.00000  Uiso   1.00
C738   C     0.53204   0.35367   0.53605   0.00000  Uiso   1.00
C739   C     0.49733   0.62378   0.49943   0.00000  Uiso   1.00
C740   C     0.50267   0.37622   0.50057   0.00000  Uiso   1.00
C741   C     0.46204   0.48030   0.35501   0.00000  Uiso   1.00
C742   C     0.53796   0.51970   0.64499   0.00000  Uiso   1.00
C743   C     0.46176   0.47992   0.63908   0.00000  Uiso   1.00
C744   C     0.53824   0.52008   0.36092   0.00000  Uiso   1.00
Cu745  Cu    0.50000   0.50001   0.54689   0.00000  Uiso   1.00
Cu746  Cu    0.50000   0.49999   0.45311   0.00000  Uiso   1.00
H747   H     0.44857   0.37372   0.43840   0.00000  Uiso   1.00
H748   H     0.55143   0.62628   0.56160   0.00000  Uiso   1.00
H749   H     0.43205   0.46417   0.37124   0.00000  Uiso   1.00
H750   H     0.56795   0.53583   0.62875   0.00000  Uiso   1.00
N751   N     0.50001   0.50001   0.61736   0.00000  Uiso   1.00
N752   N     0.49999   0.49999   0.38264   0.00000  Uiso   1.00
O753   O     0.50000   0.43989   0.53958   0.00000  Uiso   1.00
O754   O     0.50000   0.56011   0.46042   0.00000  Uiso   1.00
O755   O     0.50000   0.43988   0.46039   0.00000  Uiso   1.00
O756   O     0.50000   0.56012   0.53961   0.00000  Uiso   1.00
O757   O     0.42495   0.50000   0.53046   0.00000  Uiso   1.00
O758   O     0.57505   0.50000   0.46954   0.00000  Uiso   1.00
O759   O     0.42494   0.49999   0.45127   0.00000  Uiso   1.00
O760   O     0.57506   0.50001   0.54873   0.00000  Uiso   1.00
C761   C     0.66078   0.45534   0.45428   0.00000  Uiso   1.00
O762   O     0.34317   0.45071   0.41629   0.00000  Uiso   1.00
O763   O     0.62594   0.42650   0.46985   0.00000  Uiso   1.00
H764   H     0.61581   0.40400   0.44620   0.00000  Uiso   1.00
C765   C     0.33922   0.54466   0.54572   0.00000  Uiso   1.00
O766   O     0.65683   0.54929   0.58371   0.00000  Uiso   1.00
O767   O     0.37406   0.57350   0.53015   0.00000  Uiso   1.00
H768   H     0.38419   0.59600   0.55380   0.00000  Uiso   1.00
C769   C     0.43118   0.62687   0.42711   0.00000  Uiso   1.00
O770   O     0.40800   0.59499   0.43535   0.00000  Uiso   1.00
O771   O     0.42155   0.64606   0.38326   0.00000  Uiso   1.00
H772   H     0.39543   0.63021   0.36128   0.00000  Uiso   1.00
C773   C     0.56882   0.37313   0.57289   0.00000  Uiso   1.00
O774   O     0.59200   0.40501   0.56465   0.00000  Uiso   1.00
O775   O     0.57845   0.35394   0.61674   0.00000  Uiso   1.00
H776   H     0.60457   0.36979   0.63872   0.00000  Uiso   1.00
C777   C     0.41838   0.45745   0.61316   0.00000  Uiso   1.00
O778   O     0.42575   0.42794   0.58896   0.00000  Uiso   1.00
O779   O     0.36834   0.46799   0.61980   0.00000  Uiso   1.00
H780   H     0.34157   0.44997   0.60119   0.00000  Uiso   1.00
C781   C     0.58162   0.54255   0.38684   0.00000  Uiso   1.00
O782   O     0.57425   0.57206   0.41104   0.00000  Uiso   1.00
O783   O     0.63166   0.53201   0.38020   0.00000  Uiso   1.00
H784   H     0.65843   0.55003   0.39881   0.00000  Uiso   1.00
C785   C     0.83489   0.42088   0.50036   0.00000  Uiso   1.00
C786   C     0.83177   0.57912   0.49964   0.00000  Uiso   1.00
C787   C     0.73498   0.49840   0.48858   0.00000  Uiso   1.00
C788   C     0.93169   0.50160   0.51142   0.00000  Uiso   1.00
C789   C     0.68059   0.49064   0.48478   0.00000  Uiso   1.00
C790   C     0.98607   0.50936   0.51522   0.00000  Uiso   1.00
C791   C     0.80503   0.35586   0.46478   0.00000  Uiso   1.00
C792   C     0.86164   0.64414   0.53522   0.00000  Uiso   1.00
C793   C     0.80130   0.64633   0.46395   0.00000  Uiso   1.00
C794   C     0.86537   0.35367   0.53605   0.00000  Uiso   1.00
C795   C     0.83067   0.62378   0.49943   0.00000  Uiso   1.00
C796   C     0.83600   0.37622   0.50057   0.00000  Uiso   1.00
C797   C     0.79537   0.48030   0.35501   0.00000  Uiso   1.00
C798   C     0.87129   0.51970   0.64499   0.00000  Uiso   1.00
C799   C     0.79509   0.47992   0.63908   0.00000  Uiso   1.00
C800   C     0.87158   0.52008   0.36092   0.00000  Uiso   1.00
Cu801  Cu    0.83333   0.50001   0.54689   0.00000  Uiso   1.00
Cu802  Cu    0.83333   0.49999   0.45311   0.00000  Uiso   1.00
H803   H     0.78190   0.37372   0.43840   0.00000  Uiso   1.00
H804   H     0.88476   0.62628   0.56160   0.00000  Uiso   1.00
H805   H     0.76538   0.46417   0.37124   0.00000  Uiso   1.00
H806   H     0.90128   0.53583   0.62875   0.00000  Uiso   1.00
N807   N     0.83335   0.50001   0.61736   0.00000  Uiso   1.00
N808   N     0.83332   0.49999   0.38264   0.00000  Uiso   1.00
O809   O     0.83333   0.43989   0.53958   0.00000  Uiso   1.00
O810   O     0.83334   0.56011   0.46042   0.00000  Uiso   1.00
O811   O     0.83333   0.43988   0.46039   0.00000  Uiso   1.00
O812   O     0.83334   0.56012   0.53961   0.00000  Uiso   1.00
O813   O     0.75828   0.50000   0.53046   0.00000  Uiso   1.00
O814   O     0.90839   0.50000   0.46954   0.00000  Uiso   1.00
O815   O     0.75828   0.49999   0.45127   0.00000  Uiso   1.00
O816   O     0.90839   0.50001   0.54873   0.00000  Uiso   1.00
C817   C     0.99411   0.45534   0.45428   0.00000  Uiso   1.00
O818   O     0.67651   0.45071   0.41629   0.00000  Uiso   1.00
O819   O     0.95928   0.42650   0.46985   0.00000  Uiso   1.00
H820   H     0.94914   0.40400   0.44620   0.00000  Uiso   1.00
C821   C     0.67256   0.54466   0.54572   0.00000  Uiso   1.00
O822   O     0.99016   0.54929   0.58371   0.00000  Uiso   1.00
O823   O     0.70739   0.57350   0.53015   0.00000  Uiso   1.00
H824   H     0.71753   0.59600   0.55380   0.00000  Uiso   1.00
C825   C     0.76452   0.62687   0.42711   0.00000  Uiso   1.00
O826   O     0.74134   0.59499   0.43535   0.00000  Uiso   1.00
O827   O     0.75489   0.64606   0.38326   0.00000  Uiso   1.00
H828   H     0.72876   0.63021   0.36128   0.00000  Uiso   1.00
C829   C     0.90215   0.37313   0.57289   0.00000  Uiso   1.00
O830   O     0.92533   0.40501   0.56465   0.00000  Uiso   1.00
O831   O     0.91178   0.35394   0.61674   0.00000  Uiso   1.00
H832   H     0.93790   0.36979   0.63872   0.00000  Uiso   1.00
C833   C     0.75171   0.45745   0.61316   0.00000  Uiso   1.00
O834   O     0.75908   0.42794   0.58896   0.00000  Uiso   1.00
O835   O     0.70168   0.46799   0.61980   0.00000  Uiso   1.00
H836   H     0.67490   0.44997   0.60119   0.00000  Uiso   1.00
C837   C     0.91496   0.54255   0.38684   0.00000  Uiso   1.00
O838   O     0.90759   0.57206   0.41104   0.00000  Uiso   1.00
O839   O     0.96499   0.53201   0.38020   0.00000  Uiso   1.00
H840   H     0.99177   0.55003   0.39881   0.00000  Uiso   1.00
C841   C     0.16823   0.75421   0.50036   0.00000  Uiso   1.00
C842   C     0.16511   0.91245   0.49964   0.00000  Uiso   1.00
C843   C     0.06831   0.83173   0.48858   0.00000  Uiso   1.00
C844   C     0.26502   0.83494   0.51142   0.00000  Uiso   1.00
C845   C     0.01393   0.82397   0.48478   0.00000  Uiso   1.00
C846   C     0.31941   0.84270   0.51522   0.00000  Uiso   1.00
C847   C     0.13836   0.68920   0.46478   0.00000  Uiso   1.00
C848   C     0.19497   0.97747   0.53522   0.00000  Uiso   1.00
C849   C     0.13463   0.97967   0.46395   0.00000  Uiso   1.00
C850   C     0.19870   0.68700   0.53605   0.00000  Uiso   1.00
C851   C     0.16400   0.95712   0.49943   0.00000  Uiso   1.00
C852   C     0.16933   0.70955   0.50057   0.00000  Uiso   1.00
C853   C     0.12871   0.81363   0.35501   0.00000  Uiso   1.00
C854   C     0.20463   0.85304   0.64499   0.00000  Uiso   1.00
C855   C     0.12843   0.81325   0.63908   0.00000  Uiso   1.00
C856   C     0.20491   0.85342   0.36092   0.00000  Uiso   1.00
Cu857  Cu    0.16667   0.83334   0.54689   0.00000  Uiso   1.00
Cu858  Cu    0.16667   0.83333   0.45311   0.00000  Uiso   1.00
H859   H     0.11524   0.70706   0.43840   0.00000  Uiso   1.00
H860   H     0.21810   0.95961   0.56160   0.00000  Uiso   1.00
H861   H     0.09872   0.79751   0.37124   0.00000  Uiso   1.00
H862   H     0.23462   0.86916   0.62875   0.00000  Uiso   1.00
N863   N     0.16668   0.83334   0.61736   0.00000  Uiso   1.00
N864   N     0.16665   0.83332   0.38264   0.00000  Uiso   1.00
O865   O     0.16666   0.77322   0.53958   0.00000  Uiso   1.00
O866   O     0.16667   0.89345   0.46042   0.00000  Uiso   1.00
O867   O     0.16666   0.77321   0.46039   0.00000  Uiso   1.00
O868   O     0.16667   0.89346   0.53961   0.00000  Uiso   1.00
O869   O     0.09161   0.83334   0.53046   0.00000  Uiso   1.00
O870   O     0.24172   0.83333   0.46954   0.00000  Uiso   1.00
O871   O     0.09161   0.83333   0.45127   0.00000  Uiso   1.00
O872   O     0.24172   0.83334   0.54873   0.00000  Uiso   1.00
C873   C     0.32744   0.78868   0.45428   0.00000  Uiso   1.00
O874   O     0.00984   0.78404   0.41629   0.00000  Uiso   1.00
O875   O     0.29261   0.75984   0.46985   0.00000  Uiso   1.00
H876   H     0.28247   0.73733   0.44620   0.00000  Uiso   1.00
C877   C     0.00589   0.87799   0.54572   0.00000  Uiso   1.00
O878   O     0.32349   0.88262   0.58371   0.00000  Uiso   1.00
O879   O     0.04072   0.90683   0.53015   0.00000  Uiso   1.00
H880   H     0.05086   0.92933   0.55380   0.00000  Uiso   1.00
C881   C     0.09785   0.96020   0.42711   0.00000  Uiso   1.00
O882   O     0.07467   0.92832   0.43535   0.00000  Uiso   1.00
O883   O     0.08822   0.97939   0.38326   0.00000  Uiso   1.00
H884   H     0.06210   0.96355   0.36128   0.00000  Uiso   1.00
C885   C     0.23548   0.70647   0.57289   0.00000  Uiso   1.00
O886   O     0.25866   0.73835   0.56465   0.00000  Uiso   1.00
O887   O     0.24511   0.68728   0.61674   0.00000  Uiso   1.00
H888   H     0.27124   0.70312   0.63872   0.00000  Uiso   1.00
C889   C     0.08504   0.79078   0.61316   0.00000  Uiso   1.00
O890   O     0.09242   0.76128   0.58896   0.00000  Uiso   1.00
O891   O     0.03501   0.80133   0.61980   0.00000  Uiso   1.00
H892   H     0.00824   0.78331   0.60119   0.00000  Uiso   1.00
C893   C     0.24829   0.87589   0.38684   0.00000  Uiso   1.00
O894   O     0.24092   0.90539   0.41104   0.00000  Uiso   1.00
O895   O     0.29832   0.86534   0.38020   0.00000  Uiso   1.00
H896   H     0.32510   0.88336   0.39881   0.00000  Uiso   1.00
C897   C     0.50156   0.75421   0.50036   0.00000  Uiso   1.00
C898   C     0.49844   0.91245   0.49964   0.00000  Uiso   1.00
C899   C     0.40164   0.83173   0.48858   0.00000  Uiso   1.00
C900   C     0.59836   0.83494   0.51142   0.00000  Uiso   1.00
C901   C     0.34726   0.82397   0.48478   0.00000  Uiso   1.00
C902   C     0.65274   0.84270   0.51522   0.00000  Uiso   1.00
C903   C     0.47169   0.68920   0.46478   0.00000  Uiso   1.00
C904   C     0.52831   0.97747   0.53522   0.00000  Uiso   1.00
C905   C     0.46796   0.97967   0.46395   0.00000  Uiso   1.00
C906   C     0.53204   0.68700   0.53605   0.00000  Uiso   1.00
C907   C     0.49733   0.95712   0.49943   0.00000  Uiso   1.00
C908   C     0.50267   0.70955   0.50057   0.00000  Uiso   1.00
C909   C     0.46204   0.81363   0.35501   0.00000  Uiso   1.00
C910   C     0.53796   0.85304   0.64499   0.00000  Uiso   1.00
C911   C     0.46176   0.81325   0.63908   0.00000  Uiso   1.00
C912   C     0.53824   0.85342   0.36092   0.00000  Uiso   1.00
Cu913  Cu    0.50000   0.83334   0.54689   0.00000  Uiso   1.00
Cu914  Cu    0.50000   0.83333   0.45311   0.00000  Uiso   1.00
H915   H     0.44857   0.70706   0.43840   0.00000  Uiso   1.00
H916   H     0.55143   0.95961   0.56160   0.00000  Uiso   1.00
H917   H     0.43205   0.79751   0.37124   0.00000  Uiso   1.00
H918   H     0.56795   0.86916   0.62875   0.00000  Uiso   1.00
N919   N     0.50001   0.83334   0.61736   0.00000  Uiso   1.00
N920   N     0.49999   0.83332   0.38264   0.00000  Uiso   1.00
O921   O     0.50000   0.77322   0.53958   0.00000  Uiso   1.00
O922   O     0.50000   0.89345   0.46042   0.00000  Uiso   1.00
O923   O     0.50000   0.77321   0.46039   0.00000  Uiso   1.00
O924   O     0.50000   0.89346   0.53961   0.00000  Uiso   1.00
O925   O     0.42495   0.83334   0.53046   0.00000  Uiso   1.00
O926   O     0.57505   0.83333   0.46954   0.00000  Uiso   1.00
O927   O     0.42494   0.83333   0.45127   0.00000  Uiso   1.00
O928   O     0.57506   0.83334   0.54873   0.00000  Uiso   1.00
C929   C     0.66078   0.78868   0.45428   0.00000  Uiso   1.00
O930   O     0.34317   0.78404   0.41629   0.00000  Uiso   1.00
O931   O     0.62594   0.75984   0.46985   0.00000  Uiso   1.00
H932   H     0.61581   0.73733   0.44620   0.00000  Uiso   1.00
C933   C     0.33922   0.87799   0.54572   0.00000  Uiso   1.00
O934   O     0.65683   0.88262   0.58371   0.00000  Uiso   1.00
O935   O     0.37406   0.90683   0.53015   0.00000  Uiso   1.00
H936   H     0.38419   0.92933   0.55380   0.00000  Uiso   1.00
C937   C     0.43118   0.96020   0.42711   0.00000  Uiso   1.00
O938   O     0.40800   0.92832   0.43535   0.00000  Uiso   1.00
O939   O     0.42155   0.97939   0.38326   0.00000  Uiso   1.00
H940   H     0.39543   0.96355   0.36128   0.00000  Uiso   1.00
C941   C     0.56882   0.70647   0.57289   0.00000  Uiso   1.00
O942   O     0.59200   0.73835   0.56465   0.00000  Uiso   1.00
O943   O     0.57845   0.68728   0.61674   0.00000  Uiso   1.00
H944   H     0.60457   0.70312   0.63872   0.00000  Uiso   1.00
C945   C     0.41838   0.79078   0.61316   0.00000  Uiso   1.00
O946   O     0.42575   0.76128   0.58896   0.00000  Uiso   1.00
O947   O     0.36834   0.80133   0.61980   0.00000  Uiso   1.00
H948   H     0.34157   0.78331   0.60119   0.00000  Uiso   1.00
C949   C     0.58162   0.87589   0.38684   0.00000  Uiso   1.00
O950   O     0.57425   0.90539   0.41104   0.00000  Uiso   1.00
O951   O     0.63166   0.86534   0.38020   0.00000  Uiso   1.00
H952   H     0.65843   0.88336   0.39881   0.00000  Uiso   1.00
C953   C     0.83489   0.75421   0.50036   0.00000  Uiso   1.00
C954   C     0.83177   0.91245   0.49964   0.00000  Uiso   1.00
C955   C     0.73498   0.83173   0.48858   0.00000  Uiso   1.00
C956   C     0.93169   0.83494   0.51142   0.00000  Uiso   1.00
C957   C     0.68059   0.82397   0.48478   0.00000  Uiso   1.00
C958   C     0.98607   0.84270   0.51522   0.00000  Uiso   1.00
C959   C     0.80503   0.68920   0.46478   0.00000  Uiso   1.00
C960   C     0.86164   0.97747   0.53522   0.00000  Uiso   1.00
C961   C     0.80130   0.97967   0.46395   0.00000  Uiso   1.00
C962   C     0.86537   0.68700   0.53605   0.00000  Uiso   1.00
C963   C     0.83067   0.95712   0.49943   0.00000  Uiso   1.00
C964   C     0.83600   0.70955   0.50057   0.00000  Uiso   1.00
C965   C     0.79537   0.81363   0.35501   0.00000  Uiso   1.00
C966   C     0.87129   0.85304   0.64499   0.00000  Uiso   1.00
C967   C     0.79509   0.81325   0.63908   0.00000  Uiso   1.00
C968   C     0.87158   0.85342   0.36092   0.00000  Uiso   1.00
Cu969  Cu    0.83333   0.83334   0.54689   0.00000  Uiso   1.00
Cu970  Cu    0.83333   0.83333   0.45311   0.00000  Uiso   1.00
H971   H     0.78190   0.70706   0.43840   0.00000  Uiso   1.00
H972   H     0.88476   0.95961   0.56160   0.00000  Uiso   1.00
H973   H     0.76538   0.79751   0.37124   0.00000  Uiso   1.00
H974   H     0.90128   0.86916   0.62875   0.00000  Uiso   1.00
N975   N     0.83335   0.83334   0.61736   0.00000  Uiso   1.00
N976   N     0.83332   0.83332   0.38264   0.00000  Uiso   1.00
O977   O     0.83333   0.77322   0.53958   0.00000  Uiso   1.00
O978   O     0.83334   0.89345   0.46042   0.00000  Uiso   1.00
O979   O     0.83333   0.77321   0.46039   0.00000  Uiso   1.00
O980   O     0.83334   0.89346   0.53961   0.00000  Uiso   1.00
O981   O     0.75828   0.83334   0.53046   0.00000  Uiso   1.00
O982   O     0.90839   0.83333   0.46954   0.00000  Uiso   1.00
O983   O     0.75828   0.83333   0.45127   0.00000  Uiso   1.00
O984   O     0.90839   0.83334   0.54873   0.00000  Uiso   1.00
C985   C     0.99411   0.78868   0.45428   0.00000  Uiso   1.00
O986   O     0.67651   0.78404   0.41629   0.00000  Uiso   1.00
O987   O     0.95928   0.75984   0.46985   0.00000  Uiso   1.00
H988   H     0.94914   0.73733   0.44620   0.00000  Uiso   1.00
C989   C     0.67256   0.87799   0.54572   0.00000  Uiso   1.00
O990   O     0.99016   0.88262   0.58371   0.00000  Uiso   1.00
O991   O     0.70739   0.90683   0.53015   0.00000  Uiso   1.00
H992   H     0.71753   0.92933   0.55380   0.00000  Uiso   1.00
C993   C     0.76452   0.96020   0.42711   0.00000  Uiso   1.00
O994   O     0.74134   0.92832   0.43535   0.00000  Uiso   1.00
O995   O     0.75489   0.97939   0.38326   0.00000  Uiso   1.00
H996   H     0.72876   0.96355   0.36128   0.00000  Uiso   1.00
C997   C     0.90215   0.70647   0.57289   0.00000  Uiso   1.00
O998   O     0.92533   0.73835   0.56465   0.00000  Uiso   1.00
O999   O     0.91178   0.68728   0.61674   0.00000  Uiso   1.00
H1000  H     0.93790   0.70312   0.63872   0.00000  Uiso   1.00
C1001  C     0.75171   0.79078   0.61316   0.00000  Uiso   1.00
O1002  O     0.75908   0.76128   0.58896   0.00000  Uiso   1.00
O1003  O     0.70168   0.80133   0.61980   0.00000  Uiso   1.00
H1004  H     0.67490   0.78331   0.60119   0.00000  Uiso   1.00
C1005  C     0.91496   0.87589   0.38684   0.00000  Uiso   1.00
O1006  O     0.90759   0.90539   0.41104   0.00000  Uiso   1.00
O1007  O     0.96499   0.86534   0.38020   0.00000  Uiso   1.00
H1008  H     0.99177   0.88336   0.39881   0.00000  Uiso   1.00
C1009  C     0.16823   0.08755   0.83369   0.00000  Uiso   1.00
C1010  C     0.16511   0.24579   0.83298   0.00000  Uiso   1.00
C1011  C     0.06831   0.16506   0.82192   0.00000  Uiso   1.00
C1012  C     0.26502   0.16827   0.84475   0.00000  Uiso   1.00
C1013  C     0.01393   0.15730   0.81811   0.00000  Uiso   1.00
C1014  C     0.31941   0.17603   0.84855   0.00000  Uiso   1.00
C1015  C     0.13836   0.02253   0.79812   0.00000  Uiso   1.00
C1016  C     0.19497   0.31080   0.86855   0.00000  Uiso   1.00
C1017  C     0.13463   0.31300   0.79728   0.00000  Uiso   1.00
C1018  C     0.19870   0.02033   0.86938   0.00000  Uiso   1.00
C1019  C     0.16400   0.29045   0.83277   0.00000  Uiso   1.00
C1020  C     0.16933   0.04288   0.83390   0.00000  Uiso   1.00
C1021  C     0.12871   0.14696   0.68834   0.00000  Uiso   1.00
C1022  C     0.20463   0.18637   0.97832   0.00000  Uiso   1.00
C1023  C     0.12843   0.14658   0.97241   0.00000  Uiso   1.00
C1024  C     0.20491   0.18675   0.69426   0.00000  Uiso   1.00
Cu1025 Cu    0.16667   0.16667   0.88022   0.00000  Uiso   1.00
Cu1026 Cu    0.16667   0.16666   0.78645   0.00000  Uiso   1.00
H1027  H     0.11524   0.04039   0.77173   0.00000  Uiso   1.00
H1028  H     0.21810   0.29294   0.89493   0.00000  Uiso   1.00
H1029  H     0.09872   0.13084   0.70458   0.00000  Uiso   1.00
H1030  H     0.23462   0.20249   0.96209   0.00000  Uiso   1.00
N1031  N     0.16668   0.16668   0.95069   0.00000  Uiso   1.00
N1032  N     0.16665   0.16666   0.71597   0.00000  Uiso   1.00
O1033  O     0.16666   0.10655   0.87291   0.00000  Uiso   1.00
O1034  O     0.16667   0.22678   0.79375   0.00000  Uiso   1.00
O1035  O     0.16666   0.10654   0.79372   0.00000  Uiso   1.00
O1036  O     0.16667   0.22679   0.87294   0.00000  Uiso   1.00
O1037  O     0.09161   0.16667   0.86379   0.00000  Uiso   1.00
O1038  O     0.24172   0.16666   0.80288   0.00000  Uiso   1.00
O1039  O     0.09161   0.16666   0.78460   0.00000  Uiso   1.00
O1040  O     0.24172   0.16667   0.88207   0.00000  Uiso   1.00
C1041  C     0.32744   0.12201   0.78761   0.00000  Uiso   1.00
O1042  O     0.00984   0.11738   0.74962   0.00000  Uiso   1.00
O1043  O     0.29261   0.09317   0.80319   0.00000  Uiso   1.00
H1044  H     0.28247   0.07067   0.77953   0.00000  Uiso   1.00
C1045  C     0.00589   0.21132   0.87905   0.00000  Uiso   1.00
O1046  O     0.32349   0.21596   0.91704   0.00000  Uiso   1.00
O1047  O     0.04072   0.24016   0.86348   0.00000  Uiso   1.00
H1048  H     0.05086   0.26267   0.88714   0.00000  Uiso   1.00
C1049  C     0.09785   0.29353   0.76044   0.00000  Uiso   1.00
O1050  O     0.07467   0.26165   0.76868   0.00000  Uiso   1.00
O1051  O     0.08822   0.31272   0.71659   0.00000  Uiso   1.00
H1052  H     0.06210   0.29688   0.69462   0.00000  Uiso   1.00
C1053  C     0.23548   0.03980   0.90622   0.00000  Uiso   1.00
O1054  O     0.25866   0.07168   0.89799   0.00000  Uiso   1.00
O1055  O     0.24511   0.02061   0.95008   0.00000  Uiso   1.00
H1056  H     0.27124   0.03645   0.97205   0.00000  Uiso   1.00
C1057  C     0.08504   0.12411   0.94649   0.00000  Uiso   1.00
O1058  O     0.09242   0.09461   0.92229   0.00000  Uiso   1.00
O1059  O     0.03501   0.13466   0.95314   0.00000  Uiso   1.00
H1060  H     0.00824   0.11664   0.93453   0.00000  Uiso   1.00
C1061  C     0.24829   0.20922   0.72018   0.00000  Uiso   1.00
O1062  O     0.24092   0.23872   0.74438   0.00000  Uiso   1.00
O1063  O     0.29832   0.19867   0.71353   0.00000  Uiso   1.00
H1064  H     0.32510   0.21669   0.73214   0.00000  Uiso   1.00
C1065  C     0.50156   0.08755   0.83369   0.00000  Uiso   1.00
C1066  C     0.49844   0.24579   0.83298   0.00000  Uiso   1.00
C1067  C     0.40164   0.16506   0.82192   0.00000  Uiso   1.00
C1068  C     0.59836   0.16827   0.84475   0.00000  Uiso   1.00
C1069  C     0.34726   0.15730   0.81811   0.00000  Uiso   1.00
C1070  C     0.65274   0.17603   0.84855   0.00000  Uiso   1.00
C1071  C     0.47169   0.02253   0.79812   0.00000  Uiso   1.00
C1072  C     0.52831   0.31080   0.86855   0.00000  Uiso   1.00
C1073  C     0.46796   0.31300   0.79728   0.00000  Uiso   1.00
C1074  C     0.53204   0.02033   0.86938   0.00000  Uiso   1.00
C1075  C     0.49733   0.29045   0.83277   0.00000  Uiso   1.00
C1076  C     0.50267   0.04288   0.83390   0.00000  Uiso   1.00
C1077  C     0.46204   0.14696   0.68834   0.00000  Uiso   1.00
C1078  C     0.53796   0.18637   0.97832   0.00000  Uiso   1.00
C1079  C     0.46176   0.14658   0.97241   0.00000  Uiso   1.00
C1080  C     0.53824   0.18675   0.69426   0.00000  Uiso   1.00
Cu1081 Cu    0.50000   0.16667   0.88022   0.00000  Uiso   1.00
Cu1082 Cu    0.50000   0.16666   0.78645   0.00000  Uiso   1.00
H1083  H     0.44857   0.04039   0.77173   0.00000  Uiso   1.00
H1084  H     0.55143   0.29294   0.89493   0.00000  Uiso   1.00
H1085  H     0.43205   0.13084   0.70458   0.00000  Uiso   1.00
H1086  H     0.56795   0.20249   0.96209   0.00000  Uiso   1.00
N1087  N     0.50001   0.16668   0.95069   0.00000  Uiso   1.00
N1088  N     0.49999   0.16666   0.71597   0.00000  Uiso   1.00
O1089  O     0.50000   0.10655   0.87291   0.00000  Uiso   1.00
O1090  O     0.50000   0.22678   0.79375   0.00000  Uiso   1.00
O1091  O     0.50000   0.10654   0.79372   0.00000  Uiso   1.00
O1092  O     0.50000   0.22679   0.87294   0.00000  Uiso   1.00
O1093  O     0.42495   0.16667   0.86379   0.00000  Uiso   1.00
O1094  O     0.57505   0.16666   0.80288   0.00000  Uiso   1.00
O1095  O     0.42494   0.16666   0.78460   0.00000  Uiso   1.00
O1096  O     0.57506   0.16667   0.88207   0.00000  Uiso   1.00
C1097  C     0.66078   0.12201   0.78761   0.00000  Uiso   1.00
O1098  O     0.34317   0.11738   0.74962   0.00000  Uiso   1.00
O1099  O     0.62594   0.09317   0.80319   0.00000  Uiso   1.00
H1100  H     0.61581   0.07067   0.77953   0.00000  Uiso   1.00
C1101  C     0.33922   0.21132   0.87905   0.00000  Uiso   1.00
O1102  O     0.65683   0.21596   0.91704   0.00000  Uiso   1.00
O1103  O     0.37406   0.24016   0.86348   0.00000  Uiso   1.00
H1104  H     0.38419   0.26267   0.88714   0.00000  Uiso   1.00
C1105  C     0.43118   0.29353   0.76044   0.00000  Uiso   1.00
O1106  O     0.40800   0.26165   0.76868   0.00000  Uiso   1.00
O1107  O     0.42155   0.31272   0.71659   0.00000  Uiso   1.00
H1108  H     0.39543   0.29688   0.69462   0.00000  Uiso   1.00
C1109  C     0.56882   0.03980   0.90622   0.00000  Uiso   1.00
O1110  O     0.59200   0.07168   0.89799   0.00000  Uiso   1.00
O1111  O     0.57845   0.02061   0.95008   0.00000  Uiso   1.00
H1112  H     0.60457   0.03645   0.97205   0.00000  Uiso   1.00
C1113  C     0.41838   0.12411   0.94649   0.00000  Uiso   1.00
O1114  O     0.42575   0.09461   0.92229   0.00000  Uiso   1.00
O1115  O     0.36834   0.13466   0.95314   0.00000  Uiso   1.00
H1116  H     0.34157   0.11664   0.93453   0.00000  Uiso   1.00
C1117  C     0.58162   0.20922   0.72018   0.00000  Uiso   1.00
O1118  O     0.57425   0.23872   0.74438   0.00000  Uiso   1.00
O1119  O     0.63166   0.19867   0.71353   0.00000  Uiso   1.00
H1120  H     0.65843   0.21669   0.73214   0.00000  Uiso   1.00
C1121  C     0.83489   0.08755   0.83369   0.00000  Uiso   1.00
C1122  C     0.83177   0.24579   0.83298   0.00000  Uiso   1.00
C1123  C     0.73498   0.16506   0.82192   0.00000  Uiso   1.00
C1124  C     0.93169   0.16827   0.84475   0.00000  Uiso   1.00
C1125  C     0.68059   0.15730   0.81811   0.00000  Uiso   1.00
C1126  C     0.98607   0.17603   0.84855   0.00000  Uiso   1.00
C1127  C     0.80503   0.02253   0.79812   0.00000  Uiso   1.00
C1128  C     0.86164   0.31080   0.86855   0.00000  Uiso   1.00
C1129  C     0.80130   0.31300   0.79728   0.00000  Uiso   1.00
C1130  C     0.86537   0.02033   0.86938   0.00000  Uiso   1.00
C1131  C     0.83067   0.29045   0.83277   0.00000  Uiso   1.00
C1132  C     0.83600   0.04288   0.83390   0.00000  Uiso   1.00
C1133  C     0.79537   0.14696   0.68834   0.00000  Uiso   1.00
C1134  C     0.87129   0.18637   0.97832   0.00000  Uiso   1.00
C1135  C     0.79509   0.14658   0.97241   0.00000  Uiso   1.00
C1136  C     0.87158   0.18675   0.69426   0.00000  Uiso   1.00
Cu1137 Cu    0.83333   0.16667   0.88022   0.00000  Uiso   1.00
Cu1138 Cu    0.83333   0.16666   0.78645   0.00000  Uiso   1.00
H1139  H     0.78190   0.04039   0.77173   0.00000  Uiso   1.00
H1140  H     0.88476   0.29294   0.89493   0.00000  Uiso   1.00
H1141  H     0.76538   0.13084   0.70458   0.00000  Uiso   1.00
H1142  H     0.90128   0.20249   0.96209   0.00000  Uiso   1.00
N1143  N     0.83335   0.16668   0.95069   0.00000  Uiso   1.00
N1144  N     0.83332   0.16666   0.71597   0.00000  Uiso   1.00
O1145  O     0.83333   0.10655   0.87291   0.00000  Uiso   1.00
O1146  O     0.83334   0.22678   0.79375   0.00000  Uiso   1.00
O1147  O     0.83333   0.10654   0.79372   0.00000  Uiso   1.00
O1148  O     0.83334   0.22679   0.87294   0.00000  Uiso   1.00
O1149  O     0.75828   0.16667   0.86379   0.00000  Uiso   1.00
O1150  O     0.90839   0.16666   0.80288   0.00000  Uiso   1.00
O1151  O     0.75828   0.16666   0.78460   0.00000  Uiso   1.00
O1152  O     0.90839   0.16667   0.88207   0.00000  Uiso   1.00
C1153  C     0.99411   0.12201   0.78761   0.00000  Uiso   1.00
O1154  O     0.67651   0.11738   0.74962   0.00000  Uiso   1.00
O1155  O     0.95928   0.09317   0.80319   0.00000  Uiso   1.00
H1156  H     0.94914   0.07067   0.77953   0.00000  Uiso   1.00
C1157  C     0.67256   0.21132   0.87905   0.00000  Uiso   1.00
O1158  O     0.99016   0.21596   0.91704   0.00000  Uiso   1.00
O1159  O     0.70739   0.24016   0.86348   0.00000  Uiso   1.00
H1160  H     0.71753   0.26267   0.88714   0.00000  Uiso   1.00
C1161  C     0.76452   0.29353   0.76044   0.00000  Uiso   1.00
O1162  O     0.74134   0.26165   0.76868   0.00000  Uiso   1.00
O1163  O     0.75489   0.31272   0.71659   0.00000  Uiso   1.00
H1164  H     0.72876   0.29688   0.69462   0.00000  Uiso   1.00
C1165  C     0.90215   0.03980   0.90622   0.00000  Uiso   1.00
O1166  O     0.92533   0.07168   0.89799   0.00000  Uiso   1.00
O1167  O     0.91178   0.02061   0.95008   0.00000  Uiso   1.00
H1168  H     0.93790   0.03645   0.97205   0.00000  Uiso   1.00
C1169  C     0.75171   0.12411   0.94649   0.00000  Uiso   1.00
O1170  O     0.75908   0.09461   0.92229   0.00000  Uiso   1.00
O1171  O     0.70168   0.13466   0.95314   0.00000  Uiso   1.00
H1172  H     0.67490   0.11664   0.93453   0.00000  Uiso   1.00
C1173  C     0.91496   0.20922   0.72018   0.00000  Uiso   1.00
O1174  O     0.90759   0.23872   0.74438   0.00000  Uiso   1.00
O1175  O     0.96499   0.19867   0.71353   0.00000  Uiso   1.00
H1176  H     0.99177   0.21669   0.73214   0.00000  Uiso   1.00
C1177  C     0.16823   0.42088   0.83369   0.00000  Uiso   1.00
C1178  C     0.16511   0.57912   0.83298   0.00000  Uiso   1.00
C1179  C     0.06831   0.49840   0.82192   0.00000  Uiso   1.00
C1180  C     0.26502   0.50160   0.84475   0.00000  Uiso   1.00
C1181  C     0.01393   0.49064   0.81811   0.00000  Uiso   1.00
C1182  C     0.31941   0.50936   0.84855   0.00000  Uiso   1.00
C1183  C     0.13836   0.35586   0.79812   0.00000  Uiso   1.00
C1184  C     0.19497   0.64414   0.86855   0.00000  Uiso   1.00
C1185  C     0.13463   0.64633   0.79728   0.00000  Uiso   1.00
C1186  C     0.19870   0.35367   0.86938   0.00000  Uiso   1.00
C1187  C     0.16400   0.62378   0.83277   0.00000  Uiso   1.00
C1188  C     0.16933   0.37622   0.83390   0.00000  Uiso   1.00
C1189  C     0.12871   0.48030   0.68834   0.00000  Uiso   1.00
C1190  C     0.20463   0.51970   0.97832   0.00000  Uiso   1.00
C1191  C     0.12843   0.47992   0.97241   0.00000  Uiso   1.00
C1192  C     0.20491   0.52008   0.69426   0.00000  Uiso   1.00
Cu1193 Cu    0.16667   0.50001   0.88022   0.00000  Uiso   1.00
Cu1194 Cu    0.16667   0.49999   0.78645   0.00000  Uiso   1.00
H1195  H     0.11524   0.37372   0.77173   0.00000  Uiso   1.00
H1196  H     0.21810   0.62628   0.89493   0.00000  Uiso   1.00
H1197  H     0.09872   0.46417   0.70458   0.00000  Uiso   1.00
H1198  H     0.23462   0.53583   0.96209   0.00000  Uiso   1.00
N1199  N     0.16668   0.50001   0.95069   0.00000  Uiso   1.00
N1200  N     0.16665   0.49999   0.71597   0.00000  Uiso   1.00
O1201  O     0.16666   0.43989   0.87291   0.00000  Uiso   1.00
O1202  O     0.16667   0.56011   0.79375   0.00000  Uiso   1.00
O1203  O     0.16666   0.43988   0.79372   0.00000  Uiso   1.00
O1204  O     0.16667   0.56012   0.87294   0.00000  Uiso   1.00
O1205  O     0.09161   0.50000   0.86379   0.00000  Uiso   1.00
O1206  O     0.24172   0.50000   0.80288   0.00000  Uiso   1.00
O1207  O     0.09161   0.49999   0.78460   0.00000  Uiso   1.00
O1208  O     0.24172   0.50001   0.88207   0.00000  Uiso   1.00
C1209  C     0.32744   0.45534   0.78761   0.00000  Uiso   1.00
O1210  O     0.00984   0.45071   0.74962   0.00000  Uiso   1.00
O1211  O     0.29261   0.42650   0.80319   0.00000  Uiso   1.00
H1212  H     0.28247   0.40400   0.77953   0.00000  Uiso   1.00
C1213  C     0.00589   0.54466   0.87905   0.00000  Uiso   1.00
O1214  O     0.32349   0.54929   0.91704   0.00000  Uiso   1.00
O1215  O     0.04072   0.57350   0.86348   0.00000  Uiso   1.00
H1216  H     0.05086   0.59600   0.88714   0.00000  Uiso   1.00
C1217  C     0.09785   0.62687   0.76044   0.00000  Uiso   1.00
O1218  O     0.07467   0.59499   0.76868   0.00000  Uiso   1.00
O1219  O     0.08822   0.64606   0.71659   0.00000  Uiso   1.00
H1220  H     0.06210   0.63021   0.69462   0.00000  Uiso   1.00
C1221  C     0.23548   0.37313   0.90622   0.00000  Uiso   1.00
O1222  O     0.25866   0.40501   0.89799   0.00000  Uiso   1.00
O1223  O     0.24511   0.35394   0.95008   0.00000  Uiso   1.00
H1224  H     0.27124   0.36979   0.97205   0.00000  Uiso   1.00
C1225  C     0.08504   0.45745   0.94649   0.00000  Uiso   1.00
O1226  O     0.09242   0.42794   0.92229   0.00000  Uiso   1.00
O1227  O     0.03501   0.46799   0.95314   0.00000  Uiso   1.00
H1228  H     0.00824   0.44997   0.93453   0.00000  Uiso   1.00
C1229  C     0.24829   0.54255   0.72018   0.00000  Uiso   1.00
O1230  O     0.24092   0.57206   0.74438   0.00000  Uiso   1.00
O1231  O     0.29832   0.53201   0.71353   0.00000  Uiso   1.00
H1232  H     0.32510   0.55003   0.73214   0.00000  Uiso   1.00
C1233  C     0.50156   0.42088   0.83369   0.00000  Uiso   1.00
C1234  C     0.49844   0.57912   0.83298   0.00000  Uiso   1.00
C1235  C     0.40164   0.49840   0.82192   0.00000  Uiso   1.00
C1236  C     0.59836   0.50160   0.84475   0.00000  Uiso   1.00
C1237  C     0.34726   0.49064   0.81811   0.00000  Uiso   1.00
C1238  C     0.65274   0.50936   0.84855   0.00000  Uiso   1.00
C1239  C     0.47169   0.35586   0.79812   0.00000  Uiso   1.00
C1240  C     0.52831   0.64414   0.86855   0.00000  Uiso   1.00
C1241  C     0.46796   0.64633   0.79728   0.00000  Uiso   1.00
C1242  C     0.53204   0.35367   0.86938   0.00000  Uiso   1.00
C1243  C     0.49733   0.62378   0.83277   0.00000  Uiso   1.00
C1244  C     0.50267   0.37622   0.83390   0.00000  Uiso   1.00
C1245  C     0.46204   0.48030   0.68834   0.00000  Uiso   1.00
C1246  C     0.53796   0.51970   0.97832   0.00000  Uiso   1.00
C1247  C     0.46176   0.47992   0.97241   0.00000  Uiso   1.00
C1248  C     0.53824   0.52008   0.69426   0.00000  Uiso   1.00
Cu1249 Cu    0.50000   0.50001   0.88022   0.00000  Uiso   1.00
Cu1250 Cu    0.50000   0.49999   0.78645   0.00000  Uiso   1.00
H1251  H     0.44857   0.37372   0.77173   0.00000  Uiso   1.00
H1252  H     0.55143   0.62628   0.89493   0.00000  Uiso   1.00
H1253  H     0.43205   0.46417   0.70458   0.00000  Uiso   1.00
H1254  H     0.56795   0.53583   0.96209   0.00000  Uiso   1.00
N1255  N     0.50001   0.50001   0.95069   0.00000  Uiso   1.00
N1256  N     0.49999   0.49999   0.71597   0.00000  Uiso   1.00
O1257  O     0.50000   0.43989   0.87291   0.00000  Uiso   1.00
O1258  O     0.50000   0.56011   0.79375   0.00000  Uiso   1.00
O1259  O     0.50000   0.43988   0.79372   0.00000  Uiso   1.00
O1260  O     0.50000   0.56012   0.87294   0.00000  Uiso   1.00
O1261  O     0.42495   0.50000   0.86379   0.00000  Uiso   1.00
O1262  O     0.57505   0.50000   0.80288   0.00000  Uiso   1.00
O1263  O     0.42494   0.49999   0.78460   0.00000  Uiso   1.00
O1264  O     0.57506   0.50001   0.88207   0.00000  Uiso   1.00
C1265  C     0.66078   0.45534   0.78761   0.00000  Uiso   1.00
O1266  O     0.34317   0.45071   0.74962   0.00000  Uiso   1.00
O1267  O     0.62594   0.42650   0.80319   0.00000  Uiso   1.00
H1268  H     0.61581   0.40400   0.77953   0.00000  Uiso   1.00
C1269  C     0.33922   0.54466   0.87905   0.00000  Uiso   1.00
O1270  O     0.65683   0.54929   0.91704   0.00000  Uiso   1.00
O1271  O     0.37406   0.57350   0.86348   0.00000  Uiso   1.00
H1272  H     0.38419   0.59600   0.88714   0.00000  Uiso   1.00
C1273  C     0.43118   0.62687   0.76044   0.00000  Uiso   1.00
O1274  O     0.40800   0.59499   0.76868   0.00000  Uiso   1.00
O1275  O     0.42155   0.64606   0.71659   0.00000  Uiso   1.00
H1276  H     0.39543   0.63021   0.69462   0.00000  Uiso   1.00
C1277  C     0.56882   0.37313   0.90622   0.00000  Uiso   1.00
O1278  O     0.59200   0.40501   0.89799   0.00000  Uiso   1.00
O1279  O     0.57845   0.35394   0.95008   0.00000  Uiso   1.00
H1280  H     0.60457   0.36979   0.97205   0.00000  Uiso   1.00
C1281  C     0.41838   0.45745   0.94649   0.00000  Uiso   1.00
O1282  O     0.42575   0.42794   0.92229   0.00000  Uiso   1.00
O1283  O     0.36834   0.46799   0.95314   0.00000  Uiso   1.00
H1284  H     0.34157   0.44997   0.93453   0.00000  Uiso   1.00
C1285  C     0.58162   0.54255   0.72018   0.00000  Uiso   1.00
O1286  O     0.57425   0.57206   0.74438   0.00000  Uiso   1.00
O1287  O     0.63166   0.53201   0.71353   0.00000  Uiso   1.00
H1288  H     0.65843   0.55003   0.73214   0.00000  Uiso   1.00
C1289  C     0.83489   0.42088   0.83369   0.00000  Uiso   1.00
C1290  C     0.83177   0.57912   0.83298   0.00000  Uiso   1.00
C1291  C     0.73498   0.49840   0.82192   0.00000  Uiso   1.00
C1292  C     0.93169   0.50160   0.84475   0.00000  Uiso   1.00
C1293  C     0.68059   0.49064   0.81811   0.00000  Uiso   1.00
C1294  C     0.98607   0.50936   0.84855   0.00000  Uiso   1.00
C1295  C     0.80503   0.35586   0.79812   0.00000  Uiso   1.00
C1296  C     0.86164   0.64414   0.86855   0.00000  Uiso   1.00
C1297  C     0.80130   0.64633   0.79728   0.00000  Uiso   1.00
C1298  C     0.86537   0.35367   0.86938   0.00000  Uiso   1.00
C1299  C     0.83067   0.62378   0.83277   0.00000  Uiso   1.00
C1300  C     0.83600   0.37622   0.83390   0.00000  Uiso   1.00
C1301  C     0.79537   0.48030   0.68834   0.00000  Uiso   1.00
C1302  C     0.87129   0.51970   0.97832   0.00000  Uiso   1.00
C1303  C     0.79509   0.47992   0.97241   0.00000  Uiso   1.00
C1304  C     0.87158   0.52008   0.69426   0.00000  Uiso   1.00
Cu1305 Cu    0.83333   0.50001   0.88022   0.00000  Uiso   1.00
Cu1306 Cu    0.83333   0.49999   0.78645   0.00000  Uiso   1.00
H1307  H     0.78190   0.37372   0.77173   0.00000  Uiso   1.00
H1308  H     0.88476   0.62628   0.89493   0.00000  Uiso   1.00
H1309  H     0.76538   0.46417   0.70458   0.00000  Uiso   1.00
H1310  H     0.90128   0.53583   0.96209   0.00000  Uiso   1.00
N1311  N     0.83335   0.50001   0.95069   0.00000  Uiso   1.00
N1312  N     0.83332   0.49999   0.71597   0.00000  Uiso   1.00
O1313  O     0.83333   0.43989   0.87291   0.00000  Uiso   1.00
O1314  O     0.83334   0.56011   0.79375   0.00000  Uiso   1.00
O1315  O     0.83333   0.43988   0.79372   0.00000  Uiso   1.00
O1316  O     0.83334   0.56012   0.87294   0.00000  Uiso   1.00
O1317  O     0.75828   0.50000   0.86379   0.00000  Uiso   1.00
O1318  O     0.90839   0.50000   0.80288   0.00000  Uiso   1.00
O1319  O     0.75828   0.49999   0.78460   0.00000  Uiso   1.00
O1320  O     0.90839   0.50001   0.88207   0.00000  Uiso   1.00
C1321  C     0.99411   0.45534   0.78761   0.00000  Uiso   1.00
O1322  O     0.67651   0.45071   0.74962   0.00000  Uiso   1.00
O1323  O     0.95928   0.42650   0.80319   0.00000  Uiso   1.00
H1324  H     0.94914   0.40400   0.77953   0.00000  Uiso   1.00
C1325  C     0.67256   0.54466   0.87905   0.00000  Uiso   1.00
O1326  O     0.99016   0.54929   0.91704   0.00000  Uiso   1.00
O1327  O     0.70739   0.57350   0.86348   0.00000  Uiso   1.00
H1328  H     0.71753   0.59600   0.88714   0.00000  Uiso   1.00
C1329  C     0.76452   0.62687   0.76044   0.00000  Uiso   1.00
O1330  O     0.74134   0.59499   0.76868   0.00000  Uiso   1.00
O1331  O     0.75489   0.64606   0.71659   0.00000  Uiso   1.00
H1332  H     0.72876   0.63021   0.69462   0.00000  Uiso   1.00
C1333  C     0.90215   0.37313   0.90622   0.00000  Uiso   1.00
O1334  O     0.92533   0.40501   0.89799   0.00000  Uiso   1.00
O1335  O     0.91178   0.35394   0.95008   0.00000  Uiso   1.00
H1336  H     0.93790   0.36979   0.97205   0.00000  Uiso   1.00
C1337  C     0.75171   0.45745   0.94649   0.00000  Uiso   1.00
O1338  O     0.75908   0.42794   0.92229   0.00000  Uiso   1.00
O1339  O     0.70168   0.46799   0.95314   0.00000  Uiso   1.00
H1340  H     0.67490   0.44997   0.93453   0.00000  Uiso   1.00
C1341  C     0.91496   0.54255   0.72018   0.00000  Uiso   1.00
O1342  O     0.90759   0.57206   0.74438   0.00000  Uiso   1.00
O1343  O     0.96499   0.53201   0.71353   0.00000  Uiso   1.00
H1344  H     0.99177   0.55003   0.73214   0.00000  Uiso   1.00
C1345  C     0.16823   0.75421   0.83369   0.00000  Uiso   1.00
C1346  C     0.16511   0.91245   0.83298   0.00000  Uiso   1.00
C1347  C     0.06831   0.83173   0.82192   0.00000  Uiso   1.00
C1348  C     0.26502   0.83494   0.84475   0.00000  Uiso   1.00
C1349  C     0.01393   0.82397   0.81811   0.00000  Uiso   1.00
C1350  C     0.31941   0.84270   0.84855   0.00000  Uiso   1.00
C1351  C     0.13836   0.68920   0.79812   0.00000  Uiso   1.00
C1352  C     0.19497   0.97747   0.86855   0.00000  Uiso   1.00
C1353  C     0.13463   0.97967   0.79728   0.00000  Uiso   1.00
C1354  C     0.19870   0.68700   0.86938   0.00000  Uiso   1.00
C1355  C     0.16400   0.95712   0.83277   0.00000  Uiso   1.00
C1356  C     0.16933   0.70955   0.83390   0.00000  Uiso   1.00
C1357  C     0.12871   0.81363   0.68834   0.00000  Uiso   1.00
C1358  C     0.20463   0.85304   0.97832   0.00000  Uiso   1.00
C1359  C     0.12843   0.81325   0.97241   0.00000  Uiso   1.00
C1360  C     0.20491   0.85342   0.69426   0.00000  Uiso   1.00
Cu1361 Cu    0.16667   0.83334   0.88022   0.00000  Uiso   1.00
Cu1362 Cu    0.16667   0.83333   0.78645   0.00000  Uiso   1.00
H1363  H     0.11524   0.70706   0.77173   0.00000  Uiso   1.00
H1364  H     0.21810   0.95961   0.89493   0.00000  Uiso   1.00
H1365  H     0.09872   0.79751   0.70458   0.00000  Uiso   1.00
H1366  H     0.23462   0.86916   0.96209   0.00000  Uiso   1.00
N1367  N     0.16668   0.83334   0.95069   0.00000  Uiso   1.00
N1368  N     0.16665   0.83332   0.71597   0.00000  Uiso   1.00
O1369  O     0.16666   0.77322   0.87291   0.00000  Uiso   1.00
O1370  O     0.16667   0.89345   0.79375   0.00000  Uiso   1.00
O1371  O     0.16666   0.77321   0.79372   0.00000  Uiso   1.00
O1372  O     0.16667   0.89346   0.87294   0.00000  Uiso   1.00
O1373  O     0.09161   0.83334   0.86379   0.00000  Uiso   1.00
O1374  O     0.24172   0.83333   0.80288   0.00000  Uiso   1.00
O1375  O     0.09161   0.83333   0.78460   0.00000  Uiso   1.00
O1376  O     0.24172   0.83334   0.88207   0.00000  Uiso   1.00
C1377  C     0.32744   0.78868   0.78761   0.00000  Uiso   1.00
O1378  O     0.00984   0.78404   0.74962   0.00000  Uiso   1.00
O1379  O     0.29261   0.75984   0.80319   0.00000  Uiso   1.00
H1380  H     0.28247   0.73733   0.77953   0.00000  Uiso   1.00
C1381  C     0.00589   0.87799   0.87905   0.00000  Uiso   1.00
O1382  O     0.32349   0.88262   0.91704   0.00000  Uiso   1.00
O1383  O     0.04072   0.90683   0.86348   0.00000  Uiso   1.00
H1384  H     0.05086   0.92933   0.88714   0.00000  Uiso   1.00
C1385  C     0.09785   0.96020   0.76044   0.00000  Uiso   1.00
O1386  O     0.07467   0.92832   0.76868   0.00000  Uiso   1.00
O1387  O     0.08822   0.97939   0.71659   0.00000  Uiso   1.00
H1388  H     0.06210   0.96355   0.69462   0.00000  Uiso   1.00
C1389  C     0.23548   0.70647   0.90622   0.00000  Uiso   1.00
O1390  O     0.25866   0.73835   0.89799   0.00000  Uiso   1.00
O1391  O     0.24511   0.68728   0.95008   0.00000  Uiso   1.00
H1392  H     0.27124   0.70312   0.97205   0.00000  Uiso   1.00
C1393  C     0.08504   0.79078   0.94649   0.00000  Uiso   1.00
O1394  O     0.09242   0.76128   0.92229   0.00000  Uiso   1.00
O1395  O     0.03501   0.80133   0.95314   0.00000  Uiso   1.00
H1396  H     0.00824   0.78331   0.93453   0.00000  Uiso   1.00
C1397  C     0.24829   0.87589   0.72018   0.00000  Uiso   1.00
O1398  O     0.24092   0.90539   0.74438   0.00000  Uiso   1.00
O1399  O     0.29832   0.86534   0.71353   0.00000  Uiso   1.00
H1400  H     0.32510   0.88336   0.73214   0.00000  Uiso   1.00
C1401  C     0.50156   0.75421   0.83369   0.00000  Uiso   1.00
C1402  C     0.49844   0.91245   0.83298   0.00000  Uiso   1.00
C1403  C     0.40164   0.83173   0.82192   0.00000  Uiso   1.00
C1404  C     0.59836   0.83494   0.84475   0.00000  Uiso   1.00
C1405  C     0.34726   0.82397   0.81811   0.00000  Uiso   1.00
C1406  C     0.65274   0.84270   0.84855   0.00000  Uiso   1.00
C1407  C     0.47169   0.68920   0.79812   0.00000  Uiso   1.00
C1408  C     0.52831   0.97747   0.86855   0.00000  Uiso   1.00
C1409  C     0.46796   0.97967   0.79728   0.00000  Uiso   1.00
C1410  C     0.53204   0.68700   0.86938   0.00000  Uiso   1.00
C1411  C     0.49733   0.95712   0.83277   0.00000  Uiso   1.00
C1412  C     0.50267   0.70955   0.83390   0.00000  Uiso   1.00
C1413  C     0.46204   0.81363   0.68834   0.00000  Uiso   1.00
C1414  C     0.53796   0.85304   0.97832   0.00000  Uiso   1.00
C1415  C     0.46176   0.81325   0.97241   0.00000  Uiso   1.00
C1416  C     0.53824   0.85342   0.69426   0.00000  Uiso   1.00
Cu1417 Cu    0.50000   0.83334   0.88022   0.00000  Uiso   1.00
Cu1418 Cu    0.50000   0.83333   0.78645   0.00000  Uiso   1.00
H1419  H     0.44857   0.70706   0.77173   0.00000  Uiso   1.00
H1420  H     0.55143   0.95961   0.89493   0.00000  Uiso   1.00
H1421  H     0.43205   0.79751   0.70458   0.00000  Uiso   1.00
H1422  H     0.56795   0.86916   0.96209   0.00000  Uiso   1.00
N1423  N     0.50001   0.83334   0.95069   0.00000  Uiso   1.00
N1424  N     0.49999   0.83332   0.71597   0.00000  Uiso   1.00
O1425  O     0.50000   0.77322   0.87291   0.00000  Uiso   1.00
O1426  O     0.50000   0.89345   0.79375   0.00000  Uiso   1.00
O1427  O     0.50000   0.77321   0.79372   0.00000  Uiso   1.00
O1428  O     0.50000   0.89346   0.87294   0.00000  Uiso   1.00
O1429  O     0.42495   0.83334   0.86379   0.00000  Uiso   1.00
O1430  O     0.57505   0.83333   0.80288   0.00000  Uiso   1.00
O1431  O     0.42494   0.83333   0.78460   0.00000  Uiso   1.00
O1432  O     0.57506   0.83334   0.88207   0.00000  Uiso   1.00
C1433  C     0.66078   0.78868   0.78761   0.00000  Uiso   1.00
O1434  O     0.34317   0.78404   0.74962   0.00000  Uiso   1.00
O1435  O     0.62594   0.75984   0.80319   0.00000  Uiso   1.00
H1436  H     0.61581   0.73733   0.77953   0.00000  Uiso   1.00
C1437  C     0.33922   0.87799   0.87905   0.00000  Uiso   1.00
O1438  O     0.65683   0.88262   0.91704   0.00000  Uiso   1.00
O1439  O     0.37406   0.90683   0.86348   0.00000  Uiso   1.00
H1440  H     0.38419   0.92933   0.88714   0.00000  Uiso   1.00
C1441  C     0.43118   0.96020   0.76044   0.00000  Uiso   1.00
O1442  O     0.40800   0.92832   0.76868   0.00000  Uiso   1.00
O1443  O     0.42155   0.97939   0.71659   0.00000  Uiso   1.00
H1444  H     0.39543   0.96355   0.69462   0.00000  Uiso   1.00
C1445  C     0.56882   0.70647   0.90622   0.00000  Uiso   1.00
O1446  O     0.59200   0.73835   0.89799   0.00000  Uiso   1.00
O1447  O     0.57845   0.68728   0.95008   0.00000  Uiso   1.00
H1448  H     0.60457   0.70312   0.97205   0.00000  Uiso   1.00
C1449  C     0.41838   0.79078   0.94649   0.00000  Uiso   1.00
O1450  O     0.42575   0.76128   0.92229   0.00000  Uiso   1.00
O1451  O     0.36834   0.80133   0.95314   0.00000  Uiso   1.00
H1452  H     0.34157   0.78331   0.93453   0.00000  Uiso   1.00
C1453  C     0.58162   0.87589   0.72018   0.00000  Uiso   1.00
O1454  O     0.57425   0.90539   0.74438   0.00000  Uiso   1.00
O1455  O     0.63166   0.86534   0.71353   0.00000  Uiso   1.00
H1456  H     0.65843   0.88336   0.73214   0.00000  Uiso   1.00
C1457  C     0.83489   0.75421   0.83369   0.00000  Uiso   1.00
C1458  C     0.83177   0.91245   0.83298   0.00000  Uiso   1.00
C1459  C     0.73498   0.83173   0.82192   0.00000  Uiso   1.00
C1460  C     0.93169   0.83494   0.84475   0.00000  Uiso   1.00
C1461  C     0.68059   0.82397   0.81811   0.00000  Uiso   1.00
C1462  C     0.98607   0.84270   0.84855   0.00000  Uiso   1.00
C1463  C     0.80503   0.68920   0.79812   0.00000  Uiso   1.00
C1464  C     0.86164   0.97747   0.86855   0.00000  Uiso   1.00
C1465  C     0.80130   0.97967   0.79728   0.00000  Uiso   1.00
C1466  C     0.86537   0.68700   0.86938   0.00000  Uiso   1.00
C1467  C     0.83067   0.95712   0.83277   0.00000  Uiso   1.00
C1468  C     0.83600   0.70955   0.83390   0.00000  Uiso   1.00
C1469  C     0.79537   0.81363   0.68834   0.00000  Uiso   1.00
C1470  C     0.87129   0.85304   0.97832   0.00000  Uiso   1.00
C1471  C     0.79509   0.81325   0.97241   0.00000  Uiso   1.00
C1472  C     0.87158   0.85342   0.69426   0.00000  Uiso   1.00
Cu1473 Cu    0.83333   0.83334   0.88022   0.00000  Uiso   1.00
Cu1474 Cu    0.83333   0.83333   0.78645   0.00000  Uiso   1.00
H1475  H     0.78190   0.70706   0.77173   0.00000  Uiso   1.00
H1476  H     0.88476   0.95961   0.89493   0.00000  Uiso   1.00
H1477  H     0.76538   0.79751   0.70458   0.00000  Uiso   1.00
H1478  H     0.90128   0.86916   0.96209   0.00000  Uiso   1.00
N1479  N     0.83335   0.83334   0.95069   0.00000  Uiso   1.00
N1480  N     0.83332   0.83332   0.71597   0.00000  Uiso   1.00
O1481  O     0.83333   0.77322   0.87291   0.00000  Uiso   1.00
O1482  O     0.83334   0.89345   0.79375   0.00000  Uiso   1.00
O1483  O     0.83333   0.77321   0.79372   0.00000  Uiso   1.00
O1484  O     0.83334   0.89346   0.87294   0.00000  Uiso   1.00
O1485  O     0.75828   0.83334   0.86379   0.00000  Uiso   1.00
O1486  O     0.90839   0.83333   0.80288   0.00000  Uiso   1.00
O1487  O     0.75828   0.83333   0.78460   0.00000  Uiso   1.00
O1488  O     0.90839   0.83334   0.88207   0.00000  Uiso   1.00
C1489  C     0.99411   0.78868   0.78761   0.00000  Uiso   1.00
O1490  O     0.67651   0.78404   0.74962   0.00000  Uiso   1.00
O1491  O     0.95928   0.75984   0.80319   0.00000  Uiso   1.00
H1492  H     0.94914   0.73733   0.77953   0.00000  Uiso   1.00
C1493  C     0.67256   0.87799   0.87905   0.00000  Uiso   1.00
O1494  O     0.99016   0.88262   0.91704   0.00000  Uiso   1.00
O1495  O     0.70739   0.90683   0.86348   0.00000  Uiso   1.00
H1496  H     0.71753   0.92933   0.88714   0.00000  Uiso   1.00
C1497  C     0.76452   0.96020   0.76044   0.00000  Uiso   1.00
O1498  O     0.74134   0.92832   0.76868   0.00000  Uiso   1.00
O1499  O     0.75489   0.97939   0.71659   0.00000  Uiso   1.00
H1500  H     0.72876   0.96355   0.69462   0.00000  Uiso   1.00
C1501  C     0.90215   0.70647   0.90622   0.00000  Uiso   1.00
O1502  O     0.92533   0.73835   0.89799   0.00000  Uiso   1.00
O1503  O     0.91178   0.68728   0.95008   0.00000  Uiso   1.00
H1504  H     0.93790   0.70312   0.97205   0.00000  Uiso   1.00
C1505  C     0.75171   0.79078   0.94649   0.00000  Uiso   1.00
O1506  O     0.75908   0.76128   0.92229   0.00000  Uiso   1.00
O1507  O     0.70168   0.80133   0.95314   0.00000  Uiso   1.00
H1508  H     0.67490   0.78331   0.93453   0.00000  Uiso   1.00
C1509  C     0.91496   0.87589   0.72018   0.00000  Uiso   1.00
O1510  O     0.90759   0.90539   0.74438   0.00000  Uiso   1.00
O1511  O     0.96499   0.86534   0.71353   0.00000  Uiso   1.00
H1512  H     0.99177   0.88336   0.73214   0.00000  Uiso   1.00
loop_
_geom_bond_atom_site_label_1
_geom_bond_atom_site_label_2
_geom_bond_distance
_geom_bond_site_symmetry_2
_ccdc_geom_bond_type
C1     O25     1.297   .     A
C1     C12     1.447   .     S
C1     O27     1.294   .     A
C2     C11     1.447   .     S
C2     O26     1.297   .     A
C2     O28     1.294   .     A
C3     O31     1.294   .     A
C3     O29     1.289   .     A
C3     C5      1.436   .     S
C4     O32     1.294   .     A
C4     C6      1.436   .     S
C4     O30     1.289   .     A
C5     C118    1.358   1_455 S
C5     C145    1.498   1_455 S
C6     C61     1.358   .     S
C6     C93     1.498   .     S
C7     H19     1.085   .     S
C7     C12     1.400   .     A
C7     C345    1.390   1_545 S
C8     H20     1.085   .     S
C8     C11     1.400   .     A
C8     C178    1.390   .     S
C9     C41     1.487   .     S
C9     C11     1.412   .     A
C9     C175    1.390   .     S
C10    C45     1.487   .     S
C10    C12     1.412   .     A
C10    C344    1.390   1_545 S
C13    H21     1.082   .     S
C13    N24     1.356   .     A
C13    C1023   1.417   1_554 S
C14    N23     1.356   .     A
C14    H22     1.082   .     S
C14    C520    1.417   .     S
C15    N23     1.389   .     A
C15    C49     1.473   .     S
C15    C517    1.417   .     S
C16    N24     1.389   .     A
C16    C53     1.473   .     S
C16    C1022   1.417   1_554 S
Cu17   O29     1.973   .     S
Cu17   O25     1.960   .     S
Cu17   N23     2.027   .     S
Cu17   Cu18    2.697   .     S
Cu17   O32     1.964   .     S
Cu17   O28     1.955   .     S
Cu18   O30     1.973   .     S
Cu18   O26     1.960   .     S
Cu18   N24     2.027   .     S
Cu18   O31     1.964   .     S
Cu18   O27     1.955   .     S
C33    O35     1.399   .     S
C33    C61     1.498   .     S
C33    O90     1.223   .     S
O34    C145    1.223   1_455 S
O35    H36     1.014   .     S
C37    O39     1.399   .     S
C37    C118    1.498   1_455 S
C37    O150    1.223   1_455 S
O38    C93     1.223   .     S
O39    H40     1.014   .     S
C41    O42     1.222   .     D
C41    O43     1.399   .     S
O43    H44     1.014   .     S
C45    O46     1.222   .     D
C45    O47     1.399   .     S
O47    H48     1.014   .     S
C49    O50     1.220   .     D
C49    O51     1.397   .     S
O51    H52     1.013   .     S
C53    O55     1.397   .     S
C53    O54     1.220   .     D
O55    H56     1.013   .     S
C57    O81     1.297   .     A
C57    C68     1.447   .     S
C57    O83     1.294   .     A
C58    C67     1.447   .     S
C58    O82     1.297   .     A
C58    O84     1.294   .     A
C59    O87     1.294   .     A
C59    O85     1.289   .     A
C59    C61     1.436   .     S
C60    O88     1.294   .     A
C60    C62     1.436   .     S
C60    O86     1.289   .     A
C62    C117    1.358   .     S
C62    C149    1.498   .     S
C63    H75     1.085   .     S
C63    C68     1.400   .     A
C63    C401    1.390   1_545 S
C64    H76     1.085   .     S
C64    C67     1.400   .     A
C64    C234    1.390   .     S
C65    C97     1.487   .     S
C65    C67     1.412   .     A
C65    C231    1.390   .     S
C66    C101    1.487   .     S
C66    C68     1.412   .     A
C66    C400    1.390   1_545 S
C69    H77     1.082   .     S
C69    N80     1.356   .     A
C69    C1079   1.417   1_554 S
C70    N79     1.356   .     A
C70    H78     1.082   .     S
C70    C576    1.417   .     S
C71    N79     1.389   .     A
C71    C105    1.473   .     S
C71    C573    1.417   .     S
C72    N80     1.389   .     A
C72    C109    1.473   .     S
C72    C1078   1.417   1_554 S
Cu73   O85     1.973   .     S
Cu73   O81     1.960   .     S
Cu73   N79     2.027   .     S
Cu73   Cu74    2.697   .     S
Cu73   O88     1.964   .     S
Cu73   O84     1.955   .     S
Cu74   O86     1.973   .     S
Cu74   O82     1.960   .     S
Cu74   N80     2.027   .     S
Cu74   O87     1.964   .     S
Cu74   O83     1.955   .     S
C89    O91     1.399   .     S
C89    C117    1.498   .     S
C89    O146    1.223   .     S
O91    H92     1.014   .     S
C93    O95     1.399   .     S
O94    C149    1.223   .     S
O95    H96     1.014   .     S
C97    O98     1.222   .     D
C97    O99     1.399   .     S
O99    H100    1.014   .     S
C101   O102    1.222   .     D
C101   O103    1.399   .     S
O103   H104    1.014   .     S
C105   O106    1.220   .     D
C105   O107    1.397   .     S
O107   H108    1.013   .     S
C109   O111    1.397   .     S
C109   O110    1.220   .     D
O111   H112    1.013   .     S
C113   O137    1.297   .     A
C113   C124    1.447   .     S
C113   O139    1.294   .     A
C114   C123    1.447   .     S
C114   O138    1.297   .     A
C114   O140    1.294   .     A
C115   O143    1.294   .     A
C115   O141    1.289   .     A
C115   C117    1.436   .     S
C116   O144    1.294   .     A
C116   C118    1.436   .     S
C116   O142    1.289   .     A
C118   C5      1.358   1_655 S
C118   C37     1.498   1_655 S
C119   H131    1.085   .     S
C119   C124    1.400   .     A
C119   C457    1.390   1_545 S
C120   H132    1.085   .     S
C120   C123    1.400   .     A
C120   C290    1.390   .     S
C121   C153    1.487   .     S
C121   C123    1.412   .     A
C121   C287    1.390   .     S
C122   C157    1.487   .     S
C122   C124    1.412   .     A
C122   C456    1.390   1_545 S
C125   H133    1.082   .     S
C125   N136    1.356   .     A
C125   C1135   1.417   1_554 S
C126   N135    1.356   .     A
C126   H134    1.082   .     S
C126   C632    1.417   .     S
C127   N135    1.389   .     A
C127   C161    1.473   .     S
C127   C629    1.417   .     S
C128   N136    1.389   .     A
C128   C165    1.473   .     S
C128   C1134   1.417   1_554 S
Cu129  O141    1.973   .     S
Cu129  O137    1.960   .     S
Cu129  N135    2.027   .     S
Cu129  Cu130   2.697   .     S
Cu129  O144    1.964   .     S
Cu129  O140    1.955   .     S
Cu130  O142    1.973   .     S
Cu130  O138    1.960   .     S
Cu130  N136    2.027   .     S
Cu130  O143    1.964   .     S
Cu130  O139    1.955   .     S
C145   O147    1.399   .     S
C145   C5      1.498   1_655 S
C145   O34     1.223   1_655 S
O147   H148    1.014   .     S
C149   O151    1.399   .     S
O150   C37     1.223   1_655 S
O151   H152    1.014   .     S
C153   O154    1.222   .     D
C153   O155    1.399   .     S
O155   H156    1.014   .     S
C157   O158    1.222   .     D
C157   O159    1.399   .     S
O159   H160    1.014   .     S
C161   O162    1.220   .     D
C161   O163    1.397   .     S
O163   H164    1.013   .     S
C165   O167    1.397   .     S
C165   O166    1.220   .     D
O167   H168    1.013   .     S
C169   O193    1.297   .     A
C169   C180    1.447   .     S
C169   O195    1.294   .     A
C170   C179    1.447   .     S
C170   O194    1.297   .     A
C170   O196    1.294   .     A
C171   O199    1.294   .     A
C171   O197    1.289   .     A
C171   C173    1.436   .     S
C172   O200    1.294   .     A
C172   C174    1.436   .     S
C172   O198    1.289   .     A
C173   C286    1.358   1_455 S
C173   C313    1.498   1_455 S
C174   C229    1.358   .     S
C174   C261    1.498   .     S
C175   H187    1.085   .     S
C175   C180    1.400   .     A
C176   H188    1.085   .     S
C176   C179    1.400   .     A
C176   C346    1.390   .     S
C177   C209    1.487   .     S
C177   C179    1.412   .     A
C177   C343    1.390   .     S
C178   C213    1.487   .     S
C178   C180    1.412   .     A
C181   H189    1.082   .     S
C181   N192    1.356   .     A
C181   C1191   1.417   1_554 S
C182   N191    1.356   .     A
C182   H190    1.082   .     S
C182   C688    1.417   .     S
C183   N191    1.389   .     A
C183   C217    1.473   .     S
C183   C685    1.417   .     S
C184   N192    1.389   .     A
C184   C221    1.473   .     S
C184   C1190   1.417   1_554 S
Cu185  O197    1.973   .     S
Cu185  O193    1.960   .     S
Cu185  N191    2.027   .     S
Cu185  Cu186   2.697   .     S
Cu185  O200    1.964   .     S
Cu185  O196    1.955   .     S
Cu186  O198    1.973   .     S
Cu186  O194    1.960   .     S
Cu186  N192    2.027   .     S
Cu186  O199    1.964   .     S
Cu186  O195    1.955   .     S
C201   O203    1.399   .     S
C201   C229    1.498   .     S
C201   O258    1.223   .     S
O202   C313    1.223   1_455 S
O203   H204    1.014   .     S
C205   O207    1.399   .     S
C205   C286    1.498   1_455 S
C205   O318    1.223   1_455 S
O206   C261    1.223   .     S
O207   H208    1.014   .     S
C209   O210    1.222   .     D
C209   O211    1.399   .     S
O211   H212    1.014   .     S
C213   O214    1.222   .     D
C213   O215    1.399   .     S
O215   H216    1.014   .     S
C217   O218    1.220   .     D
C217   O219    1.397   .     S
O219   H220    1.013   .     S
C221   O223    1.397   .     S
C221   O222    1.220   .     D
O223   H224    1.013   .     S
C225   O249    1.297   .     A
C225   C236    1.447   .     S
C225   O251    1.294   .     A
C226   C235    1.447   .     S
C226   O250    1.297   .     A
C226   O252    1.294   .     A
C227   O255    1.294   .     A
C227   O253    1.289   .     A
C227   C229    1.436   .     S
C228   O256    1.294   .     A
C228   C230    1.436   .     S
C228   O254    1.289   .     A
C230   C285    1.358   .     S
C230   C317    1.498   .     S
C231   H243    1.085   .     S
C231   C236    1.400   .     A
C232   H244    1.085   .     S
C232   C235    1.400   .     A
C232   C402    1.390   .     S
C233   C265    1.487   .     S
C233   C235    1.412   .     A
C233   C399    1.390   .     S
C234   C269    1.487   .     S
C234   C236    1.412   .     A
C237   H245    1.082   .     S
C237   N248    1.356   .     A
C237   C1247   1.417   1_554 S
C238   N247    1.356   .     A
C238   H246    1.082   .     S
C238   C744    1.417   .     S
C239   N247    1.389   .     A
C239   C273    1.473   .     S
C239   C741    1.417   .     S
C240   N248    1.389   .     A
C240   C277    1.473   .     S
C240   C1246   1.417   1_554 S
Cu241  O253    1.973   .     S
Cu241  O249    1.960   .     S
Cu241  N247    2.027   .     S
Cu241  Cu242   2.697   .     S
Cu241  O256    1.964   .     S
Cu241  O252    1.955   .     S
Cu242  O254    1.973   .     S
Cu242  O250    1.960   .     S
Cu242  N248    2.027   .     S
Cu242  O255    1.964   .     S
Cu242  O251    1.955   .     S
C257   O259    1.399   .     S
C257   C285    1.498   .     S
C257   O314    1.223   .     S
O259   H260    1.014   .     S
C261   O263    1.399   .     S
O262   C317    1.223   .     S
O263   H264    1.014   .     S
C265   O266    1.222   .     D
C265   O267    1.399   .     S
O267   H268    1.014   .     S
C269   O270    1.222   .     D
C269   O271    1.399   .     S
O271   H272    1.014   .     S
C273   O274    1.220   .     D
C273   O275    1.397   .     S
O275   H276    1.013   .     S
C277   O279    1.397   .     S
C277   O278    1.220   .     D
O279   H280    1.013   .     S
C281   O305    1.297   .     A
C281   C292    1.447   .     S
C281   O307    1.294   .     A
C282   C291    1.447   .     S
C282   O306    1.297   .     A
C282   O308    1.294   .     A
C283   O311    1.294   .     A
C283   O309    1.289   .     A
C283   C285    1.436   .     S
C284   O312    1.294   .     A
C284   C286    1.436   .     S
C284   O310    1.289   .     A
C286   C173    1.358   1_655 S
C286   C205    1.498   1_655 S
C287   H299    1.085   .     S
C287   C292    1.400   .     A
C288   H300    1.085   .     S
C288   C291    1.400   .     A
C288   C458    1.390   .     S
C289   C321    1.487   .     S
C289   C291    1.412   .     A
C289   C455    1.390   .     S
C290   C325    1.487   .     S
C290   C292    1.412   .     A
C293   H301    1.082   .     S
C293   N304    1.356   .     A
C293   C1303   1.417   1_554 S
C294   N303    1.356   .     A
C294   H302    1.082   .     S
C294   C800    1.417   .     S
C295   N303    1.389   .     A
C295   C329    1.473   .     S
C295   C797    1.417   .     S
C296   N304    1.389   .     A
C296   C333    1.473   .     S
C296   C1302   1.417   1_554 S
Cu297  O309    1.973   .     S
Cu297  O305    1.960   .     S
Cu297  N303    2.027   .     S
Cu297  Cu298   2.697   .     S
Cu297  O312    1.964   .     S
Cu297  O308    1.955   .     S
Cu298  O310    1.973   .     S
Cu298  O306    1.960   .     S
Cu298  N304    2.027   .     S
Cu298  O311    1.964   .     S
Cu298  O307    1.955   .     S
C313   O315    1.399   .     S
C313   C173    1.498   1_655 S
C313   O202    1.223   1_655 S
O315   H316    1.014   .     S
C317   O319    1.399   .     S
O318   C205    1.223   1_655 S
O319   H320    1.014   .     S
C321   O322    1.222   .     D
C321   O323    1.399   .     S
O323   H324    1.014   .     S
C325   O326    1.222   .     D
C325   O327    1.399   .     S
O327   H328    1.014   .     S
C329   O330    1.220   .     D
C329   O331    1.397   .     S
O331   H332    1.013   .     S
C333   O335    1.397   .     S
C333   O334    1.220   .     D
O335   H336    1.013   .     S
C337   O361    1.297   .     A
C337   C348    1.447   .     S
C337   O363    1.294   .     A
C338   C347    1.447   .     S
C338   O362    1.297   .     A
C338   O364    1.294   .     A
C339   O367    1.294   .     A
C339   O365    1.289   .     A
C339   C341    1.436   .     S
C340   O368    1.294   .     A
C340   C342    1.436   .     S
C340   O366    1.289   .     A
C341   C454    1.358   1_455 S
C341   C481    1.498   1_455 S
C342   C397    1.358   .     S
C342   C429    1.498   .     S
C343   H355    1.085   .     S
C343   C348    1.400   .     A
C344   H356    1.085   .     S
C344   C347    1.400   .     A
C344   C10     1.390   1_565 S
C345   C377    1.487   .     S
C345   C347    1.412   .     A
C345   C7      1.390   1_565 S
C346   C381    1.487   .     S
C346   C348    1.412   .     A
C349   H357    1.082   .     S
C349   N360    1.356   .     A
C349   C1359   1.417   1_554 S
C350   N359    1.356   .     A
C350   H358    1.082   .     S
C350   C856    1.417   .     S
C351   N359    1.389   .     A
C351   C385    1.473   .     S
C351   C853    1.417   .     S
C352   N360    1.389   .     A
C352   C389    1.473   .     S
C352   C1358   1.417   1_554 S
Cu353  O365    1.973   .     S
Cu353  O361    1.960   .     S
Cu353  N359    2.027   .     S
Cu353  Cu354   2.697   .     S
Cu353  O368    1.964   .     S
Cu353  O364    1.955   .     S
Cu354  O366    1.973   .     S
Cu354  O362    1.960   .     S
Cu354  N360    2.027   .     S
Cu354  O367    1.964   .     S
Cu354  O363    1.955   .     S
C369   O371    1.399   .     S
C369   C397    1.498   .     S
C369   O426    1.223   .     S
O370   C481    1.223   1_455 S
O371   H372    1.014   .     S
C373   O375    1.399   .     S
C373   C454    1.498   1_455 S
C373   O486    1.223   1_455 S
O374   C429    1.223   .     S
O375   H376    1.014   .     S
C377   O378    1.222   .     D
C377   O379    1.399   .     S
O379   H380    1.014   .     S
C381   O382    1.222   .     D
C381   O383    1.399   .     S
O383   H384    1.014   .     S
C385   O386    1.220   .     D
C385   O387    1.397   .     S
O387   H388    1.013   .     S
C389   O391    1.397   .     S
C389   O390    1.220   .     D
O391   H392    1.013   .     S
C393   O417    1.297   .     A
C393   C404    1.447   .     S
C393   O419    1.294   .     A
C394   C403    1.447   .     S
C394   O418    1.297   .     A
C394   O420    1.294   .     A
C395   O423    1.294   .     A
C395   O421    1.289   .     A
C395   C397    1.436   .     S
C396   O424    1.294   .     A
C396   C398    1.436   .     S
C396   O422    1.289   .     A
C398   C453    1.358   .     S
C398   C485    1.498   .     S
C399   H411    1.085   .     S
C399   C404    1.400   .     A
C400   H412    1.085   .     S
C400   C403    1.400   .     A
C400   C66     1.390   1_565 S
C401   C433    1.487   .     S
C401   C403    1.412   .     A
C401   C63     1.390   1_565 S
C402   C437    1.487   .     S
C402   C404    1.412   .     A
C405   H413    1.082   .     S
C405   N416    1.356   .     A
C405   C1415   1.417   1_554 S
C406   N415    1.356   .     A
C406   H414    1.082   .     S
C406   C912    1.417   .     S
C407   N415    1.389   .     A
C407   C441    1.473   .     S
C407   C909    1.417   .     S
C408   N416    1.389   .     A
C408   C445    1.473   .     S
C408   C1414   1.417   1_554 S
Cu409  O421    1.973   .     S
Cu409  O417    1.960   .     S
Cu409  N415    2.027   .     S
Cu409  Cu410   2.697   .     S
Cu409  O424    1.964   .     S
Cu409  O420    1.955   .     S
Cu410  O422    1.973   .     S
Cu410  O418    1.960   .     S
Cu410  N416    2.027   .     S
Cu410  O423    1.964   .     S
Cu410  O419    1.955   .     S
C425   O427    1.399   .     S
C425   C453    1.498   .     S
C425   O482    1.223   .     S
O427   H428    1.014   .     S
C429   O431    1.399   .     S
O430   C485    1.223   .     S
O431   H432    1.014   .     S
C433   O434    1.222   .     D
C433   O435    1.399   .     S
O435   H436    1.014   .     S
C437   O438    1.222   .     D
C437   O439    1.399   .     S
O439   H440    1.014   .     S
C441   O442    1.220   .     D
C441   O443    1.397   .     S
O443   H444    1.013   .     S
C445   O447    1.397   .     S
C445   O446    1.220   .     D
O447   H448    1.013   .     S
C449   O473    1.297   .     A
C449   C460    1.447   .     S
C449   O475    1.294   .     A
C450   C459    1.447   .     S
C450   O474    1.297   .     A
C450   O476    1.294   .     A
C451   O479    1.294   .     A
C451   O477    1.289   .     A
C451   C453    1.436   .     S
C452   O480    1.294   .     A
C452   C454    1.436   .     S
C452   O478    1.289   .     A
C454   C341    1.358   1_655 S
C454   C373    1.498   1_655 S
C455   H467    1.085   .     S
C455   C460    1.400   .     A
C456   H468    1.085   .     S
C456   C459    1.400   .     A
C456   C122    1.390   1_565 S
C457   C489    1.487   .     S
C457   C459    1.412   .     A
C457   C119    1.390   1_565 S
C458   C493    1.487   .     S
C458   C460    1.412   .     A
C461   H469    1.082   .     S
C461   N472    1.356   .     A
C461   C1471   1.417   1_554 S
C462   N471    1.356   .     A
C462   H470    1.082   .     S
C462   C968    1.417   .     S
C463   N471    1.389   .     A
C463   C497    1.473   .     S
C463   C965    1.417   .     S
C464   N472    1.389   .     A
C464   C501    1.473   .     S
C464   C1470   1.417   1_554 S
Cu465  O477    1.973   .     S
Cu465  O473    1.960   .     S
Cu465  N471    2.027   .     S
Cu465  Cu466   2.697   .     S
Cu465  O480    1.964   .     S
Cu465  O476    1.955   .     S
Cu466  O478    1.973   .     S
Cu466  O474    1.960   .     S
Cu466  N472    2.027   .     S
Cu466  O479    1.964   .     S
Cu466  O475    1.955   .     S
C481   O483    1.399   .     S
C481   C341    1.498   1_655 S
C481   O370    1.223   1_655 S
O483   H484    1.014   .     S
C485   O487    1.399   .     S
O486   C373    1.223   1_655 S
O487   H488    1.014   .     S
C489   O490    1.222   .     D
C489   O491    1.399   .     S
O491   H492    1.014   .     S
C493   O494    1.222   .     D
C493   O495    1.399   .     S
O495   H496    1.014   .     S
C497   O498    1.220   .     D
C497   O499    1.397   .     S
O499   H500    1.013   .     S
C501   O503    1.397   .     S
C501   O502    1.220   .     D
O503   H504    1.013   .     S
C505   O529    1.297   .     A
C505   C516    1.447   .     S
C505   O531    1.294   .     A
C506   C515    1.447   .     S
C506   O530    1.297   .     A
C506   O532    1.294   .     A
C507   O535    1.294   .     A
C507   O533    1.289   .     A
C507   C509    1.436   .     S
C508   O536    1.294   .     A
C508   C510    1.436   .     S
C508   O534    1.289   .     A
C509   C622    1.358   1_455 S
C509   C649    1.498   1_455 S
C510   C565    1.358   .     S
C510   C597    1.498   .     S
C511   H523    1.085   .     S
C511   C516    1.400   .     A
C511   C849    1.390   1_545 S
C512   H524    1.085   .     S
C512   C515    1.400   .     A
C512   C682    1.390   .     S
C513   C545    1.487   .     S
C513   C515    1.412   .     A
C513   C679    1.390   .     S
C514   C549    1.487   .     S
C514   C516    1.412   .     A
C514   C848    1.390   1_545 S
C517   H525    1.082   .     S
C517   N528    1.356   .     A
C518   N527    1.356   .     A
C518   H526    1.082   .     S
C518   C1024   1.417   .     S
C519   N527    1.389   .     A
C519   C553    1.473   .     S
C519   C1021   1.417   .     S
C520   N528    1.389   .     A
C520   C557    1.473   .     S
Cu521  O533    1.973   .     S
Cu521  O529    1.960   .     S
Cu521  N527    2.027   .     S
Cu521  Cu522   2.697   .     S
Cu521  O536    1.964   .     S
Cu521  O532    1.955   .     S
Cu522  O534    1.973   .     S
Cu522  O530    1.960   .     S
Cu522  N528    2.027   .     S
Cu522  O535    1.964   .     S
Cu522  O531    1.955   .     S
C537   O539    1.399   .     S
C537   C565    1.498   .     S
C537   O594    1.223   .     S
O538   C649    1.223   1_455 S
O539   H540    1.014   .     S
C541   O543    1.399   .     S
C541   C622    1.498   1_455 S
C541   O654    1.223   1_455 S
O542   C597    1.223   .     S
O543   H544    1.014   .     S
C545   O546    1.222   .     D
C545   O547    1.399   .     S
O547   H548    1.014   .     S
C549   O550    1.222   .     D
C549   O551    1.399   .     S
O551   H552    1.014   .     S
C553   O554    1.220   .     D
C553   O555    1.397   .     S
O555   H556    1.013   .     S
C557   O559    1.397   .     S
C557   O558    1.220   .     D
O559   H560    1.013   .     S
C561   O585    1.297   .     A
C561   C572    1.447   .     S
C561   O587    1.294   .     A
C562   C571    1.447   .     S
C562   O586    1.297   .     A
C562   O588    1.294   .     A
C563   O591    1.294   .     A
C563   O589    1.289   .     A
C563   C565    1.436   .     S
C564   O592    1.294   .     A
C564   C566    1.436   .     S
C564   O590    1.289   .     A
C566   C621    1.358   .     S
C566   C653    1.498   .     S
C567   H579    1.085   .     S
C567   C572    1.400   .     A
C567   C905    1.390   1_545 S
C568   H580    1.085   .     S
C568   C571    1.400   .     A
C568   C738    1.390   .     S
C569   C601    1.487   .     S
C569   C571    1.412   .     A
C569   C735    1.390   .     S
C570   C605    1.487   .     S
C570   C572    1.412   .     A
C570   C904    1.390   1_545 S
C573   H581    1.082   .     S
C573   N584    1.356   .     A
C574   N583    1.356   .     A
C574   H582    1.082   .     S
C574   C1080   1.417   .     S
C575   N583    1.389   .     A
C575   C609    1.473   .     S
C575   C1077   1.417   .     S
C576   N584    1.389   .     A
C576   C613    1.473   .     S
Cu577  O589    1.973   .     S
Cu577  O585    1.960   .     S
Cu577  N583    2.027   .     S
Cu577  Cu578   2.697   .     S
Cu577  O592    1.964   .     S
Cu577  O588    1.955   .     S
Cu578  O590    1.973   .     S
Cu578  O586    1.960   .     S
Cu578  N584    2.027   .     S
Cu578  O591    1.964   .     S
Cu578  O587    1.955   .     S
C593   O595    1.399   .     S
C593   C621    1.498   .     S
C593   O650    1.223   .     S
O595   H596    1.014   .     S
C597   O599    1.399   .     S
O598   C653    1.223   .     S
O599   H600    1.014   .     S
C601   O602    1.222   .     D
C601   O603    1.399   .     S
O603   H604    1.014   .     S
C605   O606    1.222   .     D
C605   O607    1.399   .     S
O607   H608    1.014   .     S
C609   O610    1.220   .     D
C609   O611    1.397   .     S
O611   H612    1.013   .     S
C613   O615    1.397   .     S
C613   O614    1.220   .     D
O615   H616    1.013   .     S
C617   O641    1.297   .     A
C617   C628    1.447   .     S
C617   O643    1.294   .     A
C618   C627    1.447   .     S
C618   O642    1.297   .     A
C618   O644    1.294   .     A
C619   O647    1.294   .     A
C619   O645    1.289   .     A
C619   C621    1.436   .     S
C620   O648    1.294   .     A
C620   C622    1.436   .     S
C620   O646    1.289   .     A
C622   C509    1.358   1_655 S
C622   C541    1.498   1_655 S
C623   H635    1.085   .     S
C623   C628    1.400   .     A
C623   C961    1.390   1_545 S
C624   H636    1.085   .     S
C624   C627    1.400   .     A
C624   C794    1.390   .     S
C625   C657    1.487   .     S
C625   C627    1.412   .     A
C625   C791    1.390   .     S
C626   C661    1.487   .     S
C626   C628    1.412   .     A
C626   C960    1.390   1_545 S
C629   H637    1.082   .     S
C629   N640    1.356   .     A
C630   N639    1.356   .     A
C630   H638    1.082   .     S
C630   C1136   1.417   .     S
C631   N639    1.389   .     A
C631   C665    1.473   .     S
C631   C1133   1.417   .     S
C632   N640    1.389   .     A
C632   C669    1.473   .     S
Cu633  O645    1.973   .     S
Cu633  O641    1.960   .     S
Cu633  N639    2.027   .     S
Cu633  Cu634   2.697   .     S
Cu633  O648    1.964   .     S
Cu633  O644    1.955   .     S
Cu634  O646    1.973   .     S
Cu634  O642    1.960   .     S
Cu634  N640    2.027   .     S
Cu634  O647    1.964   .     S
Cu634  O643    1.955   .     S
C649   O651    1.399   .     S
C649   C509    1.498   1_655 S
C649   O538    1.223   1_655 S
O651   H652    1.014   .     S
C653   O655    1.399   .     S
O654   C541    1.223   1_655 S
O655   H656    1.014   .     S
C657   O658    1.222   .     D
C657   O659    1.399   .     S
O659   H660    1.014   .     S
C661   O662    1.222   .     D
C661   O663    1.399   .     S
O663   H664    1.014   .     S
C665   O666    1.220   .     D
C665   O667    1.397   .     S
O667   H668    1.013   .     S
C669   O671    1.397   .     S
C669   O670    1.220   .     D
O671   H672    1.013   .     S
C673   O697    1.297   .     A
C673   C684    1.447   .     S
C673   O699    1.294   .     A
C674   C683    1.447   .     S
C674   O698    1.297   .     A
C674   O700    1.294   .     A
C675   O703    1.294   .     A
C675   O701    1.289   .     A
C675   C677    1.436   .     S
C676   O704    1.294   .     A
C676   C678    1.436   .     S
C676   O702    1.289   .     A
C677   C790    1.358   1_455 S
C677   C817    1.498   1_455 S
C678   C733    1.358   .     S
C678   C765    1.498   .     S
C679   H691    1.085   .     S
C679   C684    1.400   .     A
C680   H692    1.085   .     S
C680   C683    1.400   .     A
C680   C850    1.390   .     S
C681   C713    1.487   .     S
C681   C683    1.412   .     A
C681   C847    1.390   .     S
C682   C717    1.487   .     S
C682   C684    1.412   .     A
C685   H693    1.082   .     S
C685   N696    1.356   .     A
C686   N695    1.356   .     A
C686   H694    1.082   .     S
C686   C1192   1.417   .     S
C687   N695    1.389   .     A
C687   C721    1.473   .     S
C687   C1189   1.417   .     S
C688   N696    1.389   .     A
C688   C725    1.473   .     S
Cu689  O701    1.973   .     S
Cu689  O697    1.960   .     S
Cu689  N695    2.027   .     S
Cu689  Cu690   2.697   .     S
Cu689  O704    1.964   .     S
Cu689  O700    1.955   .     S
Cu690  O702    1.973   .     S
Cu690  O698    1.960   .     S
Cu690  N696    2.027   .     S
Cu690  O703    1.964   .     S
Cu690  O699    1.955   .     S
C705   O707    1.399   .     S
C705   C733    1.498   .     S
C705   O762    1.223   .     S
O706   C817    1.223   1_455 S
O707   H708    1.014   .     S
C709   O711    1.399   .     S
C709   C790    1.498   1_455 S
C709   O822    1.223   1_455 S
O710   C765    1.223   .     S
O711   H712    1.014   .     S
C713   O714    1.222   .     D
C713   O715    1.399   .     S
O715   H716    1.014   .     S
C717   O718    1.222   .     D
C717   O719    1.399   .     S
O719   H720    1.014   .     S
C721   O722    1.220   .     D
C721   O723    1.397   .     S
O723   H724    1.013   .     S
C725   O727    1.397   .     S
C725   O726    1.220   .     D
O727   H728    1.013   .     S
C729   O753    1.297   .     A
C729   C740    1.447   .     S
C729   O755    1.294   .     A
C730   C739    1.447   .     S
C730   O754    1.297   .     A
C730   O756    1.294   .     A
C731   O759    1.294   .     A
C731   O757    1.289   .     A
C731   C733    1.436   .     S
C732   O760    1.294   .     A
C732   C734    1.436   .     S
C732   O758    1.289   .     A
C734   C789    1.358   .     S
C734   C821    1.498   .     S
C735   H747    1.085   .     S
C735   C740    1.400   .     A
C736   H748    1.085   .     S
C736   C739    1.400   .     A
C736   C906    1.390   .     S
C737   C769    1.487   .     S
C737   C739    1.412   .     A
C737   C903    1.390   .     S
C738   C773    1.487   .     S
C738   C740    1.412   .     A
C741   H749    1.082   .     S
C741   N752    1.356   .     A
C742   N751    1.356   .     A
C742   H750    1.082   .     S
C742   C1248   1.417   .     S
C743   N751    1.389   .     A
C743   C777    1.473   .     S
C743   C1245   1.417   .     S
C744   N752    1.389   .     A
C744   C781    1.473   .     S
Cu745  O757    1.973   .     S
Cu745  O753    1.960   .     S
Cu745  N751    2.027   .     S
Cu745  Cu746   2.697   .     S
Cu745  O760    1.964   .     S
Cu745  O756    1.955   .     S
Cu746  O758    1.973   .     S
Cu746  O754    1.960   .     S
Cu746  N752    2.027   .     S
Cu746  O759    1.964   .     S
Cu746  O755    1.955   .     S
C761   O763    1.399   .     S
C761   C789    1.498   .     S
C761   O818    1.223   .     S
O763   H764    1.014   .     S
C765   O767    1.399   .     S
O766   C821    1.223   .     S
O767   H768    1.014   .     S
C769   O770    1.222   .     D
C769   O771    1.399   .     S
O771   H772    1.014   .     S
C773   O774    1.222   .     D
C773   O775    1.399   .     S
O775   H776    1.014   .     S
C777   O778    1.220   .     D
C777   O779    1.397   .     S
O779   H780    1.013   .     S
C781   O783    1.397   .     S
C781   O782    1.220   .     D
O783   H784    1.013   .     S
C785   O809    1.297   .     A
C785   C796    1.447   .     S
C785   O811    1.294   .     A
C786   C795    1.447   .     S
C786   O810    1.297   .     A
C786   O812    1.294   .     A
C787   O815    1.294   .     A
C787   O813    1.289   .     A
C787   C789    1.436   .     S
C788   O816    1.294   .     A
C788   C790    1.436   .     S
C788   O814    1.289   .     A
C790   C677    1.358   1_655 S
C790   C709    1.498   1_655 S
C791   H803    1.085   .     S
C791   C796    1.400   .     A
C792   H804    1.085   .     S
C792   C795    1.400   .     A
C792   C962    1.390   .     S
C793   C825    1.487   .     S
C793   C795    1.412   .     A
C793   C959    1.390   .     S
C794   C829    1.487   .     S
C794   C796    1.412   .     A
C797   H805    1.082   .     S
C797   N808    1.356   .     A
C798   N807    1.356   .     A
C798   H806    1.082   .     S
C798   C1304   1.417   .     S
C799   N807    1.389   .     A
C799   C833    1.473   .     S
C799   C1301   1.417   .     S
C800   N808    1.389   .     A
C800   C837    1.473   .     S
Cu801  O813    1.973   .     S
Cu801  O809    1.960   .     S
Cu801  N807    2.027   .     S
Cu801  Cu802   2.697   .     S
Cu801  O816    1.964   .     S
Cu801  O812    1.955   .     S
Cu802  O814    1.973   .     S
Cu802  O810    1.960   .     S
Cu802  N808    2.027   .     S
Cu802  O815    1.964   .     S
Cu802  O811    1.955   .     S
C817   O819    1.399   .     S
C817   C677    1.498   1_655 S
C817   O706    1.223   1_655 S
O819   H820    1.014   .     S
C821   O823    1.399   .     S
O822   C709    1.223   1_655 S
O823   H824    1.014   .     S
C825   O826    1.222   .     D
C825   O827    1.399   .     S
O827   H828    1.014   .     S
C829   O830    1.222   .     D
C829   O831    1.399   .     S
O831   H832    1.014   .     S
C833   O834    1.220   .     D
C833   O835    1.397   .     S
O835   H836    1.013   .     S
C837   O839    1.397   .     S
C837   O838    1.220   .     D
O839   H840    1.013   .     S
C841   O865    1.297   .     A
C841   C852    1.447   .     S
C841   O867    1.294   .     A
C842   C851    1.447   .     S
C842   O866    1.297   .     A
C842   O868    1.294   .     A
C843   O871    1.294   .     A
C843   O869    1.289   .     A
C843   C845    1.436   .     S
C844   O872    1.294   .     A
C844   C846    1.436   .     S
C844   O870    1.289   .     A
C845   C958    1.358   1_455 S
C845   C985    1.498   1_455 S
C846   C901    1.358   .     S
C846   C933    1.498   .     S
C847   H859    1.085   .     S
C847   C852    1.400   .     A
C848   H860    1.085   .     S
C848   C851    1.400   .     A
C848   C514    1.390   1_565 S
C849   C881    1.487   .     S
C849   C851    1.412   .     A
C849   C511    1.390   1_565 S
C850   C885    1.487   .     S
C850   C852    1.412   .     A
C853   H861    1.082   .     S
C853   N864    1.356   .     A
C854   N863    1.356   .     A
C854   H862    1.082   .     S
C854   C1360   1.417   .     S
C855   N863    1.389   .     A
C855   C889    1.473   .     S
C855   C1357   1.417   .     S
C856   N864    1.389   .     A
C856   C893    1.473   .     S
Cu857  O869    1.973   .     S
Cu857  O865    1.960   .     S
Cu857  N863    2.027   .     S
Cu857  Cu858   2.697   .     S
Cu857  O872    1.964   .     S
Cu857  O868    1.955   .     S
Cu858  O870    1.973   .     S
Cu858  O866    1.960   .     S
Cu858  N864    2.027   .     S
Cu858  O871    1.964   .     S
Cu858  O867    1.955   .     S
C873   O875    1.399   .     S
C873   C901    1.498   .     S
C873   O930    1.223   .     S
O874   C985    1.223   1_455 S
O875   H876    1.014   .     S
C877   O879    1.399   .     S
C877   C958    1.498   1_455 S
C877   O990    1.223   1_455 S
O878   C933    1.223   .     S
O879   H880    1.014   .     S
C881   O882    1.222   .     D
C881   O883    1.399   .     S
O883   H884    1.014   .     S
C885   O886    1.222   .     D
C885   O887    1.399   .     S
O887   H888    1.014   .     S
C889   O890    1.220   .     D
C889   O891    1.397   .     S
O891   H892    1.013   .     S
C893   O895    1.397   .     S
C893   O894    1.220   .     D
O895   H896    1.013   .     S
C897   O921    1.297   .     A
C897   C908    1.447   .     S
C897   O923    1.294   .     A
C898   C907    1.447   .     S
C898   O922    1.297   .     A
C898   O924    1.294   .     A
C899   O927    1.294   .     A
C899   O925    1.289   .     A
C899   C901    1.436   .     S
C900   O928    1.294   .     A
C900   C902    1.436   .     S
C900   O926    1.289   .     A
C902   C957    1.358   .     S
C902   C989    1.498   .     S
C903   H915    1.085   .     S
C903   C908    1.400   .     A
C904   H916    1.085   .     S
C904   C907    1.400   .     A
C904   C570    1.390   1_565 S
C905   C937    1.487   .     S
C905   C907    1.412   .     A
C905   C567    1.390   1_565 S
C906   C941    1.487   .     S
C906   C908    1.412   .     A
C909   H917    1.082   .     S
C909   N920    1.356   .     A
C910   N919    1.356   .     A
C910   H918    1.082   .     S
C910   C1416   1.417   .     S
C911   N919    1.389   .     A
C911   C945    1.473   .     S
C911   C1413   1.417   .     S
C912   N920    1.389   .     A
C912   C949    1.473   .     S
Cu913  O925    1.973   .     S
Cu913  O921    1.960   .     S
Cu913  N919    2.027   .     S
Cu913  Cu914   2.697   .     S
Cu913  O928    1.964   .     S
Cu913  O924    1.955   .     S
Cu914  O926    1.973   .     S
Cu914  O922    1.960   .     S
Cu914  N920    2.027   .     S
Cu914  O927    1.964   .     S
Cu914  O923    1.955   .     S
C929   O931    1.399   .     S
C929   C957    1.498   .     S
C929   O986    1.223   .     S
O931   H932    1.014   .     S
C933   O935    1.399   .     S
O934   C989    1.223   .     S
O935   H936    1.014   .     S
C937   O938    1.222   .     D
C937   O939    1.399   .     S
O939   H940    1.014   .     S
C941   O942    1.222   .     D
C941   O943    1.399   .     S
O943   H944    1.014   .     S
C945   O946    1.220   .     D
C945   O947    1.397   .     S
O947   H948    1.013   .     S
C949   O951    1.397   .     S
C949   O950    1.220   .     D
O951   H952    1.013   .     S
C953   O977    1.297   .     A
C953   C964    1.447   .     S
C953   O979    1.294   .     A
C954   C963    1.447   .     S
C954   O978    1.297   .     A
C954   O980    1.294   .     A
C955   O983    1.294   .     A
C955   O981    1.289   .     A
C955   C957    1.436   .     S
C956   O984    1.294   .     A
C956   C958    1.436   .     S
C956   O982    1.289   .     A
C958   C845    1.358   1_655 S
C958   C877    1.498   1_655 S
C959   H971    1.085   .     S
C959   C964    1.400   .     A
C960   H972    1.085   .     S
C960   C963    1.400   .     A
C960   C626    1.390   1_565 S
C961   C993    1.487   .     S
C961   C963    1.412   .     A
C961   C623    1.390   1_565 S
C962   C997    1.487   .     S
C962   C964    1.412   .     A
C965   H973    1.082   .     S
C965   N976    1.356   .     A
C966   N975    1.356   .     A
C966   H974    1.082   .     S
C966   C1472   1.417   .     S
C967   N975    1.389   .     A
C967   C1001   1.473   .     S
C967   C1469   1.417   .     S
C968   N976    1.389   .     A
C968   C1005   1.473   .     S
Cu969  O981    1.973   .     S
Cu969  O977    1.960   .     S
Cu969  N975    2.027   .     S
Cu969  Cu970   2.697   .     S
Cu969  O984    1.964   .     S
Cu969  O980    1.955   .     S
Cu970  O982    1.973   .     S
Cu970  O978    1.960   .     S
Cu970  N976    2.027   .     S
Cu970  O983    1.964   .     S
Cu970  O979    1.955   .     S
C985   O987    1.399   .     S
C985   C845    1.498   1_655 S
C985   O874    1.223   1_655 S
O987   H988    1.014   .     S
C989   O991    1.399   .     S
O990   C877    1.223   1_655 S
O991   H992    1.014   .     S
C993   O994    1.222   .     D
C993   O995    1.399   .     S
O995   H996    1.014   .     S
C997   O998    1.222   .     D
C997   O999    1.399   .     S
O999   H1000   1.014   .     S
C1001  O1002   1.220   .     D
C1001  O1003   1.397   .     S
O1003  H1004   1.013   .     S
C1005  O1007   1.397   .     S
C1005  O1006   1.220   .     D
O1007  H1008   1.013   .     S
C1009  O1033   1.297   .     A
C1009  C1020   1.447   .     S
C1009  O1035   1.294   .     A
C1010  C1019   1.447   .     S
C1010  O1034   1.297   .     A
C1010  O1036   1.294   .     A
C1011  O1039   1.294   .     A
C1011  O1037   1.289   .     A
C1011  C1013   1.436   .     S
C1012  O1040   1.294   .     A
C1012  C1014   1.436   .     S
C1012  O1038   1.289   .     A
C1013  C1126   1.358   1_455 S
C1013  C1153   1.498   1_455 S
C1014  C1069   1.358   .     S
C1014  C1101   1.498   .     S
C1015  H1027   1.085   .     S
C1015  C1020   1.400   .     A
C1015  C1353   1.390   1_545 S
C1016  H1028   1.085   .     S
C1016  C1019   1.400   .     A
C1016  C1186   1.390   .     S
C1017  C1049   1.487   .     S
C1017  C1019   1.412   .     A
C1017  C1183   1.390   .     S
C1018  C1053   1.487   .     S
C1018  C1020   1.412   .     A
C1018  C1352   1.390   1_545 S
C1021  H1029   1.082   .     S
C1021  N1032   1.356   .     A
C1022  N1031   1.356   .     A
C1022  H1030   1.082   .     S
C1022  C16     1.417   1_556 S
C1023  N1031   1.389   .     A
C1023  C1057   1.473   .     S
C1023  C13     1.417   1_556 S
C1024  N1032   1.389   .     A
C1024  C1061   1.473   .     S
Cu1025 O1037   1.973   .     S
Cu1025 O1033   1.960   .     S
Cu1025 N1031   2.027   .     S
Cu1025 Cu1026  2.697   .     S
Cu1025 O1040   1.964   .     S
Cu1025 O1036   1.955   .     S
Cu1026 O1038   1.973   .     S
Cu1026 O1034   1.960   .     S
Cu1026 N1032   2.027   .     S
Cu1026 O1039   1.964   .     S
Cu1026 O1035   1.955   .     S
C1041  O1043   1.399   .     S
C1041  C1069   1.498   .     S
C1041  O1098   1.223   .     S
O1042  C1153   1.223   1_455 S
O1043  H1044   1.014   .     S
C1045  O1047   1.399   .     S
C1045  C1126   1.498   1_455 S
C1045  O1158   1.223   1_455 S
O1046  C1101   1.223   .     S
O1047  H1048   1.014   .     S
C1049  O1050   1.222   .     D
C1049  O1051   1.399   .     S
O1051  H1052   1.014   .     S
C1053  O1054   1.222   .     D
C1053  O1055   1.399   .     S
O1055  H1056   1.014   .     S
C1057  O1058   1.220   .     D
C1057  O1059   1.397   .     S
O1059  H1060   1.013   .     S
C1061  O1063   1.397   .     S
C1061  O1062   1.220   .     D
O1063  H1064   1.013   .     S
C1065  O1089   1.297   .     A
C1065  C1076   1.447   .     S
C1065  O1091   1.294   .     A
C1066  C1075   1.447   .     S
C1066  O1090   1.297   .     A
C1066  O1092   1.294   .     A
C1067  O1095   1.294   .     A
C1067  O1093   1.289   .     A
C1067  C1069   1.436   .     S
C1068  O1096   1.294   .     A
C1068  C1070   1.436   .     S
C1068  O1094   1.289   .     A
C1070  C1125   1.358   .     S
C1070  C1157   1.498   .     S
C1071  H1083   1.085   .     S
C1071  C1076   1.400   .     A
C1071  C1409   1.390   1_545 S
C1072  H1084   1.085   .     S
C1072  C1075   1.400   .     A
C1072  C1242   1.390   .     S
C1073  C1105   1.487   .     S
C1073  C1075   1.412   .     A
C1073  C1239   1.390   .     S
C1074  C1109   1.487   .     S
C1074  C1076   1.412   .     A
C1074  C1408   1.390   1_545 S
C1077  H1085   1.082   .     S
C1077  N1088   1.356   .     A
C1078  N1087   1.356   .     A
C1078  H1086   1.082   .     S
C1078  C72     1.417   1_556 S
C1079  N1087   1.389   .     A
C1079  C1113   1.473   .     S
C1079  C69     1.417   1_556 S
C1080  N1088   1.389   .     A
C1080  C1117   1.473   .     S
Cu1081 O1093   1.973   .     S
Cu1081 O1089   1.960   .     S
Cu1081 N1087   2.027   .     S
Cu1081 Cu1082  2.697   .     S
Cu1081 O1096   1.964   .     S
Cu1081 O1092   1.955   .     S
Cu1082 O1094   1.973   .     S
Cu1082 O1090   1.960   .     S
Cu1082 N1088   2.027   .     S
Cu1082 O1095   1.964   .     S
Cu1082 O1091   1.955   .     S
C1097  O1099   1.399   .     S
C1097  C1125   1.498   .     S
C1097  O1154   1.223   .     S
O1099  H1100   1.014   .     S
C1101  O1103   1.399   .     S
O1102  C1157   1.223   .     S
O1103  H1104   1.014   .     S
C1105  O1106   1.222   .     D
C1105  O1107   1.399   .     S
O1107  H1108   1.014   .     S
C1109  O1110   1.222   .     D
C1109  O1111   1.399   .     S
O1111  H1112   1.014   .     S
C1113  O1114   1.220   .     D
C1113  O1115   1.397   .     S
O1115  H1116   1.013   .     S
C1117  O1119   1.397   .     S
C1117  O1118   1.220   .     D
O1119  H1120   1.013   .     S
C1121  O1145   1.297   .     A
C1121  C1132   1.447   .     S
C1121  O1147   1.294   .     A
C1122  C1131   1.447   .     S
C1122  O1146   1.297   .     A
C1122  O1148   1.294   .     A
C1123  O1151   1.294   .     A
C1123  O1149   1.289   .     A
C1123  C1125   1.436   .     S
C1124  O1152   1.294   .     A
C1124  C1126   1.436   .     S
C1124  O1150   1.289   .     A
C1126  C1013   1.358   1_655 S
C1126  C1045   1.498   1_655 S
C1127  H1139   1.085   .     S
C1127  C1132   1.400   .     A
C1127  C1465   1.390   1_545 S
C1128  H1140   1.085   .     S
C1128  C1131   1.400   .     A
C1128  C1298   1.390   .     S
C1129  C1161   1.487   .     S
C1129  C1131   1.412   .     A
C1129  C1295   1.390   .     S
C1130  C1165   1.487   .     S
C1130  C1132   1.412   .     A
C1130  C1464   1.390   1_545 S
C1133  H1141   1.082   .     S
C1133  N1144   1.356   .     A
C1134  N1143   1.356   .     A
C1134  H1142   1.082   .     S
C1134  C128    1.417   1_556 S
C1135  N1143   1.389   .     A
C1135  C1169   1.473   .     S
C1135  C125    1.417   1_556 S
C1136  N1144   1.389   .     A
C1136  C1173   1.473   .     S
Cu1137 O1149   1.973   .     S
Cu1137 O1145   1.960   .     S
Cu1137 N1143   2.027   .     S
Cu1137 Cu1138  2.697   .     S
Cu1137 O1152   1.964   .     S
Cu1137 O1148   1.955   .     S
Cu1138 O1150   1.973   .     S
Cu1138 O1146   1.960   .     S
Cu1138 N1144   2.027   .     S
Cu1138 O1151   1.964   .     S
Cu1138 O1147   1.955   .     S
C1153  O1155   1.399   .     S
C1153  C1013   1.498   1_655 S
C1153  O1042   1.223   1_655 S
O1155  H1156   1.014   .     S
C1157  O1159   1.399   .     S
O1158  C1045   1.223   1_655 S
O1159  H1160   1.014   .     S
C1161  O1162   1.222   .     D
C1161  O1163   1.399   .     S
O1163  H1164   1.014   .     S
C1165  O1166   1.222   .     D
C1165  O1167   1.399   .     S
O1167  H1168   1.014   .     S
C1169  O1170   1.220   .     D
C1169  O1171   1.397   .     S
O1171  H1172   1.013   .     S
C1173  O1175   1.397   .     S
C1173  O1174   1.220   .     D
O1175  H1176   1.013   .     S
C1177  O1201   1.297   .     A
C1177  C1188   1.447   .     S
C1177  O1203   1.294   .     A
C1178  C1187   1.447   .     S
C1178  O1202   1.297   .     A
C1178  O1204   1.294   .     A
C1179  O1207   1.294   .     A
C1179  O1205   1.289   .     A
C1179  C1181   1.436   .     S
C1180  O1208   1.294   .     A
C1180  C1182   1.436   .     S
C1180  O1206   1.289   .     A
C1181  C1294   1.358   1_455 S
C1181  C1321   1.498   1_455 S
C1182  C1237   1.358   .     S
C1182  C1269   1.498   .     S
C1183  H1195   1.085   .     S
C1183  C1188   1.400   .     A
C1184  H1196   1.085   .     S
C1184  C1187   1.400   .     A
C1184  C1354   1.390   .     S
C1185  C1217   1.487   .     S
C1185  C1187   1.412   .     A
C1185  C1351   1.390   .     S
C1186  C1221   1.487   .     S
C1186  C1188   1.412   .     A
C1189  H1197   1.082   .     S
C1189  N1200   1.356   .     A
C1190  N1199   1.356   .     A
C1190  H1198   1.082   .     S
C1190  C184    1.417   1_556 S
C1191  N1199   1.389   .     A
C1191  C1225   1.473   .     S
C1191  C181    1.417   1_556 S
C1192  N1200   1.389   .     A
C1192  C1229   1.473   .     S
Cu1193 O1205   1.973   .     S
Cu1193 O1201   1.960   .     S
Cu1193 N1199   2.027   .     S
Cu1193 Cu1194  2.697   .     S
Cu1193 O1208   1.964   .     S
Cu1193 O1204   1.955   .     S
Cu1194 O1206   1.973   .     S
Cu1194 O1202   1.960   .     S
Cu1194 N1200   2.027   .     S
Cu1194 O1207   1.964   .     S
Cu1194 O1203   1.955   .     S
C1209  O1211   1.399   .     S
C1209  C1237   1.498   .     S
C1209  O1266   1.223   .     S
O1210  C1321   1.223   1_455 S
O1211  H1212   1.014   .     S
C1213  O1215   1.399   .     S
C1213  C1294   1.498   1_455 S
C1213  O1326   1.223   1_455 S
O1214  C1269   1.223   .     S
O1215  H1216   1.014   .     S
C1217  O1218   1.222   .     D
C1217  O1219   1.399   .     S
O1219  H1220   1.014   .     S
C1221  O1222   1.222   .     D
C1221  O1223   1.399   .     S
O1223  H1224   1.014   .     S
C1225  O1226   1.220   .     D
C1225  O1227   1.397   .     S
O1227  H1228   1.013   .     S
C1229  O1231   1.397   .     S
C1229  O1230   1.220   .     D
O1231  H1232   1.013   .     S
C1233  O1257   1.297   .     A
C1233  C1244   1.447   .     S
C1233  O1259   1.294   .     A
C1234  C1243   1.447   .     S
C1234  O1258   1.297   .     A
C1234  O1260   1.294   .     A
C1235  O1263   1.294   .     A
C1235  O1261   1.289   .     A
C1235  C1237   1.436   .     S
C1236  O1264   1.294   .     A
C1236  C1238   1.436   .     S
C1236  O1262   1.289   .     A
C1238  C1293   1.358   .     S
C1238  C1325   1.498   .     S
C1239  H1251   1.085   .     S
C1239  C1244   1.400   .     A
C1240  H1252   1.085   .     S
C1240  C1243   1.400   .     A
C1240  C1410   1.390   .     S
C1241  C1273   1.487   .     S
C1241  C1243   1.412   .     A
C1241  C1407   1.390   .     S
C1242  C1277   1.487   .     S
C1242  C1244   1.412   .     A
C1245  H1253   1.082   .     S
C1245  N1256   1.356   .     A
C1246  N1255   1.356   .     A
C1246  H1254   1.082   .     S
C1246  C240    1.417   1_556 S
C1247  N1255   1.389   .     A
C1247  C1281   1.473   .     S
C1247  C237    1.417   1_556 S
C1248  N1256   1.389   .     A
C1248  C1285   1.473   .     S
Cu1249 O1261   1.973   .     S
Cu1249 O1257   1.960   .     S
Cu1249 N1255   2.027   .     S
Cu1249 Cu1250  2.697   .     S
Cu1249 O1264   1.964   .     S
Cu1249 O1260   1.955   .     S
Cu1250 O1262   1.973   .     S
Cu1250 O1258   1.960   .     S
Cu1250 N1256   2.027   .     S
Cu1250 O1263   1.964   .     S
Cu1250 O1259   1.955   .     S
C1265  O1267   1.399   .     S
C1265  C1293   1.498   .     S
C1265  O1322   1.223   .     S
O1267  H1268   1.014   .     S
C1269  O1271   1.399   .     S
O1270  C1325   1.223   .     S
O1271  H1272   1.014   .     S
C1273  O1274   1.222   .     D
C1273  O1275   1.399   .     S
O1275  H1276   1.014   .     S
C1277  O1278   1.222   .     D
C1277  O1279   1.399   .     S
O1279  H1280   1.014   .     S
C1281  O1282   1.220   .     D
C1281  O1283   1.397   .     S
O1283  H1284   1.013   .     S
C1285  O1287   1.397   .     S
C1285  O1286   1.220   .     D
O1287  H1288   1.013   .     S
C1289  O1313   1.297   .     A
C1289  C1300   1.447   .     S
C1289  O1315   1.294   .     A
C1290  C1299   1.447   .     S
C1290  O1314   1.297   .     A
C1290  O1316   1.294   .     A
C1291  O1319   1.294   .     A
C1291  O1317   1.289   .     A
C1291  C1293   1.436   .     S
C1292  O1320   1.294   .     A
C1292  C1294   1.436   .     S
C1292  O1318   1.289   .     A
C1294  C1181   1.358   1_655 S
C1294  C1213   1.498   1_655 S
C1295  H1307   1.085   .     S
C1295  C1300   1.400   .     A
C1296  H1308   1.085   .     S
C1296  C1299   1.400   .     A
C1296  C1466   1.390   .     S
C1297  C1329   1.487   .     S
C1297  C1299   1.412   .     A
C1297  C1463   1.390   .     S
C1298  C1333   1.487   .     S
C1298  C1300   1.412   .     A
C1301  H1309   1.082   .     S
C1301  N1312   1.356   .     A
C1302  N1311   1.356   .     A
C1302  H1310   1.082   .     S
C1302  C296    1.417   1_556 S
C1303  N1311   1.389   .     A
C1303  C1337   1.473   .     S
C1303  C293    1.417   1_556 S
C1304  N1312   1.389   .     A
C1304  C1341   1.473   .     S
Cu1305 O1317   1.973   .     S
Cu1305 O1313   1.960   .     S
Cu1305 N1311   2.027   .     S
Cu1305 Cu1306  2.697   .     S
Cu1305 O1320   1.964   .     S
Cu1305 O1316   1.955   .     S
Cu1306 O1318   1.973   .     S
Cu1306 O1314   1.960   .     S
Cu1306 N1312   2.027   .     S
Cu1306 O1319   1.964   .     S
Cu1306 O1315   1.955   .     S
C1321  O1323   1.399   .     S
C1321  C1181   1.498   1_655 S
C1321  O1210   1.223   1_655 S
O1323  H1324   1.014   .     S
C1325  O1327   1.399   .     S
O1326  C1213   1.223   1_655 S
O1327  H1328   1.014   .     S
C1329  O1330   1.222   .     D
C1329  O1331   1.399   .     S
O1331  H1332   1.014   .     S
C1333  O1334   1.222   .     D
C1333  O1335   1.399   .     S
O1335  H1336   1.014   .     S
C1337  O1338   1.220   .     D
C1337  O1339   1.397   .     S
O1339  H1340   1.013   .     S
C1341  O1343   1.397   .     S
C1341  O1342   1.220   .     D
O1343  H1344   1.013   .     S
C1345  O1369   1.297   .     A
C1345  C1356   1.447   .     S
C1345  O1371   1.294   .     A
C1346  C1355   1.447   .     S
C1346  O1370   1.297   .     A
C1346  O1372   1.294   .     A
C1347  O1375   1.294   .     A
C1347  O1373   1.289   .     A
C1347  C1349   1.436   .     S
C1348  O1376   1.294   .     A
C1348  C1350   1.436   .     S
C1348  O1374   1.289   .     A
C1349  C1462   1.358   1_455 S
C1349  C1489   1.498   1_455 S
C1350  C1405   1.358   .     S
C1350  C1437   1.498   .     S
C1351  H1363   1.085   .     S
C1351  C1356   1.400   .     A
C1352  H1364   1.085   .     S
C1352  C1355   1.400   .     A
C1352  C1018   1.390   1_565 S
C1353  C1385   1.487   .     S
C1353  C1355   1.412   .     A
C1353  C1015   1.390   1_565 S
C1354  C1389   1.487   .     S
C1354  C1356   1.412   .     A
C1357  H1365   1.082   .     S
C1357  N1368   1.356   .     A
C1358  N1367   1.356   .     A
C1358  H1366   1.082   .     S
C1358  C352    1.417   1_556 S
C1359  N1367   1.389   .     A
C1359  C1393   1.473   .     S
C1359  C349    1.417   1_556 S
C1360  N1368   1.389   .     A
C1360  C1397   1.473   .     S
Cu1361 O1373   1.973   .     S
Cu1361 O1369   1.960   .     S
Cu1361 N1367   2.027   .     S
Cu1361 Cu1362  2.697   .     S
Cu1361 O1376   1.964   .     S
Cu1361 O1372   1.955   .     S
Cu1362 O1374   1.973   .     S
Cu1362 O1370   1.960   .     S
Cu1362 N1368   2.027   .     S
Cu1362 O1375   1.964   .     S
Cu1362 O1371   1.955   .     S
C1377  O1379   1.399   .     S
C1377  C1405   1.498   .     S
C1377  O1434   1.223   .     S
O1378  C1489   1.223   1_455 S
O1379  H1380   1.014   .     S
C1381  O1383   1.399   .     S
C1381  C1462   1.498   1_455 S
C1381  O1494   1.223   1_455 S
O1382  C1437   1.223   .     S
O1383  H1384   1.014   .     S
C1385  O1386   1.222   .     D
C1385  O1387   1.399   .     S
O1387  H1388   1.014   .     S
C1389  O1390   1.222   .     D
C1389  O1391   1.399   .     S
O1391  H1392   1.014   .     S
C1393  O1394   1.220   .     D
C1393  O1395   1.397   .     S
O1395  H1396   1.013   .     S
C1397  O1399   1.397   .     S
C1397  O1398   1.220   .     D
O1399  H1400   1.013   .     S
C1401  O1425   1.297   .     A
C1401  C1412   1.447   .     S
C1401  O1427   1.294   .     A
C1402  C1411   1.447   .     S
C1402  O1426   1.297   .     A
C1402  O1428   1.294   .     A
C1403  O1431   1.294   .     A
C1403  O1429   1.289   .     A
C1403  C1405   1.436   .     S
C1404  O1432   1.294   .     A
C1404  C1406   1.436   .     S
C1404  O1430   1.289   .     A
C1406  C1461   1.358   .     S
C1406  C1493   1.498   .     S
C1407  H1419   1.085   .     S
C1407  C1412   1.400   .     A
C1408  H1420   1.085   .     S
C1408  C1411   1.400   .     A
C1408  C1074   1.390   1_565 S
C1409  C1441   1.487   .     S
C1409  C1411   1.412   .     A
C1409  C1071   1.390   1_565 S
C1410  C1445   1.487   .     S
C1410  C1412   1.412   .     A
C1413  H1421   1.082   .     S
C1413  N1424   1.356   .     A
C1414  N1423   1.356   .     A
C1414  H1422   1.082   .     S
C1414  C408    1.417   1_556 S
C1415  N1423   1.389   .     A
C1415  C1449   1.473   .     S
C1415  C405    1.417   1_556 S
C1416  N1424   1.389   .     A
C1416  C1453   1.473   .     S
Cu1417 O1429   1.973   .     S
Cu1417 O1425   1.960   .     S
Cu1417 N1423   2.027   .     S
Cu1417 Cu1418  2.697   .     S
Cu1417 O1432   1.964   .     S
Cu1417 O1428   1.955   .     S
Cu1418 O1430   1.973   .     S
Cu1418 O1426   1.960   .     S
Cu1418 N1424   2.027   .     S
Cu1418 O1431   1.964   .     S
Cu1418 O1427   1.955   .     S
C1433  O1435   1.399   .     S
C1433  C1461   1.498   .     S
C1433  O1490   1.223   .     S
O1435  H1436   1.014   .     S
C1437  O1439   1.399   .     S
O1438  C1493   1.223   .     S
O1439  H1440   1.014   .     S
C1441  O1442   1.222   .     D
C1441  O1443   1.399   .     S
O1443  H1444   1.014   .     S
C1445  O1446   1.222   .     D
C1445  O1447   1.399   .     S
O1447  H1448   1.014   .     S
C1449  O1450   1.220   .     D
C1449  O1451   1.397   .     S
O1451  H1452   1.013   .     S
C1453  O1455   1.397   .     S
C1453  O1454   1.220   .     D
O1455  H1456   1.013   .     S
C1457  O1481   1.297   .     A
C1457  C1468   1.447   .     S
C1457  O1483   1.294   .     A
C1458  C1467   1.447   .     S
C1458  O1482   1.297   .     A
C1458  O1484   1.294   .     A
C1459  O1487   1.294   .     A
C1459  O1485   1.289   .     A
C1459  C1461   1.436   .     S
C1460  O1488   1.294   .     A
C1460  C1462   1.436   .     S
C1460  O1486   1.289   .     A
C1462  C1349   1.358   1_655 S
C1462  C1381   1.498   1_655 S
C1463  H1475   1.085   .     S
C1463  C1468   1.400   .     A
C1464  H1476   1.085   .     S
C1464  C1467   1.400   .     A
C1464  C1130   1.390   1_565 S
C1465  C1497   1.487   .     S
C1465  C1467   1.412   .     A
C1465  C1127   1.390   1_565 S
C1466  C1501   1.487   .     S
C1466  C1468   1.412   .     A
C1469  H1477   1.082   .     S
C1469  N1480   1.356   .     A
C1470  N1479   1.356   .     A
C1470  H1478   1.082   .     S
C1470  C464    1.417   1_556 S
C1471  N1479   1.389   .     A
C1471  C1505   1.473   .     S
C1471  C461    1.417   1_556 S
C1472  N1480   1.389   .     A
C1472  C1509   1.473   .     S
Cu1473 O1485   1.973   .     S
Cu1473 O1481   1.960   .     S
Cu1473 N1479   2.027   .     S
Cu1473 Cu1474  2.697   .     S
Cu1473 O1488   1.964   .     S
Cu1473 O1484   1.955   .     S
Cu1474 O1486   1.973   .     S
Cu1474 O1482   1.960   .     S
Cu1474 N1480   2.027   .     S
Cu1474 O1487   1.964   .     S
Cu1474 O1483   1.955   .     S
C1489  O1491   1.399   .     S
C1489  C1349   1.498   1_655 S
C1489  O1378   1.223   1_655 S
O1491  H1492   1.014   .     S
C1493  O1495   1.399   .     S
O1494  C1381   1.223   1_655 S
O1495  H1496   1.014   .     S
C1497  O1498   1.222   .     D
C1497  O1499   1.399   .     S
O1499  H1500   1.014   .     S
C1501  O1502   1.222   .     D
C1501  O1503   1.399   .     S
O1503  H1504   1.014   .     S
C1505  O1506   1.220   .     D
C1505  O1507   1.397   .     S
O1507  H1508   1.013   .     S
C1509  O1511   1.397   .     S
C1509  O1510   1.220   .     D
O1511  H1512   1.013   .     S
