data_str_m2_o10_o18_pcu_sym.82
_audit_creation_date              2020-01-03
_audit_creation_method            'Materials Studio'
_symmetry_space_group_name_H-M    'P1'
_symmetry_Int_Tables_number       1
_symmetry_cell_setting            triclinic
loop_
_symmetry_equiv_pos_as_xyz
  x,y,z
_cell_length_a                    22.5203
_cell_length_b                    26.1722
_cell_length_c                    31.7259
_cell_angle_alpha                 93.1851
_cell_angle_beta                  75.0293
_cell_angle_gamma                 101.8591
loop_
_atom_site_label
_atom_site_type_symbol
_atom_site_fract_x
_atom_site_fract_y
_atom_site_fract_z
_atom_site_U_iso_or_equiv
_atom_site_adp_type
_atom_site_occupancy
C1     C     0.17972   0.26608   0.25308   0.00000  Uiso   1.00
C2     C     0.20497   0.16746   0.16663   0.00000  Uiso   1.00
C3     C     0.10329   0.16164   0.38171   0.00000  Uiso   1.00
C4     C     0.22732   0.16688   0.11786   0.00000  Uiso   1.00
C5     C     0.02166   0.12639   0.44513   0.00000  Uiso   1.00
C6     C     0.30298   0.20455   0.05255   0.00000  Uiso   1.00
C7     C     0.03891   0.14733   0.40271   0.00000  Uiso   1.00
C8     C     0.29047   0.18590   0.09507   0.00000  Uiso   1.00
C9     C     0.14519   0.17434   0.40812   0.00000  Uiso   1.00
C10    C     0.18222   0.15197   0.09314   0.00000  Uiso   1.00
C11    C     0.12621   0.16306   0.45309   0.00000  Uiso   1.00
C12    C     0.15299   0.06729   0.24819   0.00000  Uiso   1.00
C13    C     0.19703   0.16442   0.04828   0.00000  Uiso   1.00
C14    C     0.06690   0.13104   0.46912   0.00000  Uiso   1.00
C15    C     0.25524   0.19798   0.03102   0.00000  Uiso   1.00
C16    C     0.16639   0.17803   0.48140   0.00000  Uiso   1.00
C17    C     0.15424   0.15022   0.02114   0.00000  Uiso   1.00
C18    C     0.01222   0.18707   0.11389   0.00000  Uiso   1.00
C19    C     0.03509   0.24118   0.13002   0.00000  Uiso   1.00
C20    C     0.32377   0.16417   0.38456   0.00000  Uiso   1.00
C21    C     0.00737   0.22387   0.37786   0.00000  Uiso   1.00
C22    C     0.19136   0.00598   0.30694   0.00000  Uiso   1.00
C23    C     0.10073   0.10910   0.03111   0.00000  Uiso   1.00
C24    C     0.26114   0.02079   0.30494   0.00000  Uiso   1.00
C25    C     0.12944   0.32594   0.19965   0.00000  Uiso   1.00
C26    C     0.05763   0.31357   0.21140   0.00000  Uiso   1.00
C27    C     0.21718   0.22093   0.47194   0.00000  Uiso   1.00
C28    C     0.05495   0.10357   0.00787   0.00000  Uiso   1.00
C29    C     0.26362   0.22752   0.49409   0.00000  Uiso   1.00
C30    C     0.17891   0.32010   0.26299   0.00000  Uiso   1.00
C31    C     0.15273   0.01321   0.23949   0.00000  Uiso   1.00
C32    C     0.12795   0.16426   0.33329   0.00000  Uiso   1.00
Cu33   Cu    0.10737   0.16108   0.24517   0.00000  Uiso   1.00
Cu34   Cu    0.22596   0.17225   0.25484   0.00000  Uiso   1.00
F35    F     0.12238   0.13124   0.11434   0.00000  Uiso   1.00
F36    F     0.20519   0.19478   0.38890   0.00000  Uiso   1.00
F37    F     0.29442   0.10369   0.46350   0.00000  Uiso   1.00
F38    F     0.02849   0.22970   0.03218   0.00000  Uiso   1.00
F39    F     0.09355   0.07189   0.06109   0.00000  Uiso   1.00
F40    F     0.22017   0.25895   0.44360   0.00000  Uiso   1.00
F41    F     0.00873   0.21861   0.28483   0.00000  Uiso   1.00
F42    F     0.32527   0.11587   0.21379   0.00000  Uiso   1.00
H43    H     0.01205   0.07481   0.01847   0.00000  Uiso   1.00
H44    H     0.30657   0.23813   0.36438   0.00000  Uiso   1.00
H45    H     0.31896   0.14322   0.35394   0.00000  Uiso   1.00
H46    H     0.27730   0.15398   0.40796   0.00000  Uiso   1.00
H47    H     0.28169   0.31858   0.30140   0.00000  Uiso   1.00
H48    H     0.28618   0.04769   0.27739   0.00000  Uiso   1.00
H49    H     0.26767   0.04062   0.33576   0.00000  Uiso   1.00
H50    H     0.16884   0.03950   0.32002   0.00000  Uiso   1.00
H51    H     0.16936   0.30789   0.33160   0.00000  Uiso   1.00
H52    H     0.04056   0.32805   0.18539   0.00000  Uiso   1.00
H53    H     0.03684   0.33233   0.24225   0.00000  Uiso   1.00
H54    H     0.30428   0.25865   0.48427   0.00000  Uiso   1.00
H55    H     0.04016   0.27101   0.21564   0.00000  Uiso   1.00
H56    H     0.14657   0.02321   0.17392   0.00000  Uiso   1.00
H57    H     0.14884   0.29186   0.18408   0.00000  Uiso   1.00
H58    H     0.32931   0.25383   0.15456   0.00000  Uiso   1.00
H59    H     0.07462   0.23987   0.14448   0.00000  Uiso   1.00
H60    H     0.05222   0.26969   0.10281   0.00000  Uiso   1.00
H61    H     0.00174   0.15756   0.13980   0.00000  Uiso   1.00
H62    H     0.05113   0.17629   0.08815   0.00000  Uiso   1.00
H63    H     0.05374   0.23630   0.35469   0.00000  Uiso   1.00
H64    H     0.00934   0.24416   0.40918   0.00000  Uiso   1.00
N65    N     0.31506   0.18068   0.26212   0.00000  Uiso   1.00
N66    N     0.01827   0.15265   0.23788   0.00000  Uiso   1.00
O67    O     0.12815   0.23809   0.24686   0.00000  Uiso   1.00
O68    O     0.20518   0.09524   0.25314   0.00000  Uiso   1.00
O69    O     0.22829   0.24753   0.25503   0.00000  Uiso   1.00
O70    O     0.10504   0.08580   0.24498   0.00000  Uiso   1.00
O71    O     0.08851   0.15930   0.30855   0.00000  Uiso   1.00
O72    O     0.24482   0.17403   0.19146   0.00000  Uiso   1.00
O73    O     0.18866   0.16874   0.31671   0.00000  Uiso   1.00
O74    O     0.14468   0.16460   0.18329   0.00000  Uiso   1.00
C75    C     0.51305   0.26608   0.25308   0.00000  Uiso   1.00
C76    C     0.53830   0.16746   0.16663   0.00000  Uiso   1.00
C77    C     0.43663   0.16164   0.38171   0.00000  Uiso   1.00
C78    C     0.56065   0.16688   0.11786   0.00000  Uiso   1.00
C79    C     0.35500   0.12639   0.44513   0.00000  Uiso   1.00
C80    C     0.63631   0.20455   0.05255   0.00000  Uiso   1.00
C81    C     0.37225   0.14733   0.40271   0.00000  Uiso   1.00
C82    C     0.62381   0.18590   0.09507   0.00000  Uiso   1.00
C83    C     0.47852   0.17434   0.40812   0.00000  Uiso   1.00
C84    C     0.51556   0.15197   0.09314   0.00000  Uiso   1.00
C85    C     0.45954   0.16306   0.45309   0.00000  Uiso   1.00
C86    C     0.48632   0.06729   0.24819   0.00000  Uiso   1.00
C87    C     0.53036   0.16442   0.04828   0.00000  Uiso   1.00
C88    C     0.40023   0.13104   0.46912   0.00000  Uiso   1.00
C89    C     0.58857   0.19798   0.03102   0.00000  Uiso   1.00
C90    C     0.49972   0.17803   0.48140   0.00000  Uiso   1.00
C91    C     0.48758   0.15022   0.02114   0.00000  Uiso   1.00
C92    C     0.34555   0.18707   0.11389   0.00000  Uiso   1.00
C93    C     0.36843   0.24118   0.13002   0.00000  Uiso   1.00
C94    C     0.65710   0.16417   0.38456   0.00000  Uiso   1.00
C95    C     0.34070   0.22387   0.37786   0.00000  Uiso   1.00
C96    C     0.52469   0.00598   0.30694   0.00000  Uiso   1.00
C97    C     0.43407   0.10910   0.03111   0.00000  Uiso   1.00
C98    C     0.59447   0.02079   0.30494   0.00000  Uiso   1.00
C99    C     0.46277   0.32594   0.19965   0.00000  Uiso   1.00
C100   C     0.39096   0.31357   0.21140   0.00000  Uiso   1.00
C101   C     0.55052   0.22093   0.47194   0.00000  Uiso   1.00
C102   C     0.38828   0.10357   0.00787   0.00000  Uiso   1.00
C103   C     0.59696   0.22752   0.49409   0.00000  Uiso   1.00
C104   C     0.51225   0.32010   0.26299   0.00000  Uiso   1.00
C105   C     0.48606   0.01321   0.23949   0.00000  Uiso   1.00
C106   C     0.46128   0.16426   0.33329   0.00000  Uiso   1.00
Cu107  Cu    0.44071   0.16108   0.24517   0.00000  Uiso   1.00
Cu108  Cu    0.55929   0.17225   0.25484   0.00000  Uiso   1.00
F109   F     0.45572   0.13124   0.11434   0.00000  Uiso   1.00
F110   F     0.53852   0.19478   0.38890   0.00000  Uiso   1.00
F111   F     0.62775   0.10369   0.46350   0.00000  Uiso   1.00
F112   F     0.36182   0.22970   0.03218   0.00000  Uiso   1.00
F113   F     0.42688   0.07189   0.06109   0.00000  Uiso   1.00
F114   F     0.55350   0.25895   0.44360   0.00000  Uiso   1.00
F115   F     0.34206   0.21861   0.28483   0.00000  Uiso   1.00
F116   F     0.65860   0.11587   0.21379   0.00000  Uiso   1.00
H117   H     0.34538   0.07481   0.01847   0.00000  Uiso   1.00
H118   H     0.63990   0.23813   0.36438   0.00000  Uiso   1.00
H119   H     0.65229   0.14322   0.35394   0.00000  Uiso   1.00
H120   H     0.61064   0.15398   0.40796   0.00000  Uiso   1.00
H121   H     0.61502   0.31858   0.30140   0.00000  Uiso   1.00
H122   H     0.61951   0.04769   0.27739   0.00000  Uiso   1.00
H123   H     0.60100   0.04062   0.33576   0.00000  Uiso   1.00
H124   H     0.50218   0.03950   0.32002   0.00000  Uiso   1.00
H125   H     0.50269   0.30789   0.33160   0.00000  Uiso   1.00
H126   H     0.37390   0.32805   0.18539   0.00000  Uiso   1.00
H127   H     0.37018   0.33233   0.24225   0.00000  Uiso   1.00
H128   H     0.63762   0.25865   0.48427   0.00000  Uiso   1.00
H129   H     0.37350   0.27101   0.21564   0.00000  Uiso   1.00
H130   H     0.47990   0.02321   0.17392   0.00000  Uiso   1.00
H131   H     0.48217   0.29186   0.18408   0.00000  Uiso   1.00
H132   H     0.66265   0.25383   0.15456   0.00000  Uiso   1.00
H133   H     0.40795   0.23987   0.14448   0.00000  Uiso   1.00
H134   H     0.38555   0.26969   0.10281   0.00000  Uiso   1.00
H135   H     0.33507   0.15756   0.13980   0.00000  Uiso   1.00
H136   H     0.38446   0.17629   0.08815   0.00000  Uiso   1.00
H137   H     0.38707   0.23630   0.35469   0.00000  Uiso   1.00
H138   H     0.34267   0.24416   0.40918   0.00000  Uiso   1.00
N139   N     0.64839   0.18068   0.26212   0.00000  Uiso   1.00
N140   N     0.35161   0.15265   0.23788   0.00000  Uiso   1.00
O141   O     0.46148   0.23809   0.24686   0.00000  Uiso   1.00
O142   O     0.53852   0.09524   0.25314   0.00000  Uiso   1.00
O143   O     0.56163   0.24753   0.25503   0.00000  Uiso   1.00
O144   O     0.43837   0.08580   0.24498   0.00000  Uiso   1.00
O145   O     0.42185   0.15930   0.30855   0.00000  Uiso   1.00
O146   O     0.57815   0.17403   0.19146   0.00000  Uiso   1.00
O147   O     0.52199   0.16874   0.31671   0.00000  Uiso   1.00
O148   O     0.47801   0.16460   0.18329   0.00000  Uiso   1.00
C149   C     0.84639   0.26608   0.25308   0.00000  Uiso   1.00
C150   C     0.87163   0.16746   0.16663   0.00000  Uiso   1.00
C151   C     0.76996   0.16164   0.38171   0.00000  Uiso   1.00
C152   C     0.89398   0.16688   0.11786   0.00000  Uiso   1.00
C153   C     0.68833   0.12639   0.44513   0.00000  Uiso   1.00
C154   C     0.96965   0.20455   0.05255   0.00000  Uiso   1.00
C155   C     0.70558   0.14733   0.40271   0.00000  Uiso   1.00
C156   C     0.95714   0.18590   0.09507   0.00000  Uiso   1.00
C157   C     0.81186   0.17434   0.40812   0.00000  Uiso   1.00
C158   C     0.84889   0.15197   0.09314   0.00000  Uiso   1.00
C159   C     0.79288   0.16306   0.45309   0.00000  Uiso   1.00
C160   C     0.81966   0.06729   0.24819   0.00000  Uiso   1.00
C161   C     0.86370   0.16442   0.04828   0.00000  Uiso   1.00
C162   C     0.73356   0.13104   0.46912   0.00000  Uiso   1.00
C163   C     0.92190   0.19798   0.03102   0.00000  Uiso   1.00
C164   C     0.83306   0.17803   0.48140   0.00000  Uiso   1.00
C165   C     0.82091   0.15022   0.02114   0.00000  Uiso   1.00
C166   C     0.67889   0.18707   0.11389   0.00000  Uiso   1.00
C167   C     0.70176   0.24118   0.13002   0.00000  Uiso   1.00
C168   C     0.99044   0.16417   0.38456   0.00000  Uiso   1.00
C169   C     0.67404   0.22387   0.37786   0.00000  Uiso   1.00
C170   C     0.85803   0.00598   0.30694   0.00000  Uiso   1.00
C171   C     0.76740   0.10910   0.03111   0.00000  Uiso   1.00
C172   C     0.92781   0.02079   0.30494   0.00000  Uiso   1.00
C173   C     0.79611   0.32594   0.19965   0.00000  Uiso   1.00
C174   C     0.72430   0.31357   0.21140   0.00000  Uiso   1.00
C175   C     0.88385   0.22093   0.47194   0.00000  Uiso   1.00
C176   C     0.72161   0.10357   0.00787   0.00000  Uiso   1.00
C177   C     0.93029   0.22752   0.49409   0.00000  Uiso   1.00
C178   C     0.84558   0.32010   0.26299   0.00000  Uiso   1.00
C179   C     0.81940   0.01321   0.23949   0.00000  Uiso   1.00
C180   C     0.79461   0.16426   0.33329   0.00000  Uiso   1.00
Cu181  Cu    0.77404   0.16108   0.24517   0.00000  Uiso   1.00
Cu182  Cu    0.89263   0.17225   0.25484   0.00000  Uiso   1.00
F183   F     0.78905   0.13124   0.11434   0.00000  Uiso   1.00
F184   F     0.87185   0.19478   0.38890   0.00000  Uiso   1.00
F185   F     0.96109   0.10369   0.46350   0.00000  Uiso   1.00
F186   F     0.69516   0.22970   0.03218   0.00000  Uiso   1.00
F187   F     0.76022   0.07189   0.06109   0.00000  Uiso   1.00
F188   F     0.88684   0.25895   0.44360   0.00000  Uiso   1.00
F189   F     0.67539   0.21861   0.28483   0.00000  Uiso   1.00
F190   F     0.99193   0.11587   0.21379   0.00000  Uiso   1.00
H191   H     0.67872   0.07481   0.01847   0.00000  Uiso   1.00
H192   H     0.97323   0.23813   0.36438   0.00000  Uiso   1.00
H193   H     0.98562   0.14322   0.35394   0.00000  Uiso   1.00
H194   H     0.94397   0.15398   0.40796   0.00000  Uiso   1.00
H195   H     0.94835   0.31858   0.30140   0.00000  Uiso   1.00
H196   H     0.95285   0.04769   0.27739   0.00000  Uiso   1.00
H197   H     0.93433   0.04062   0.33576   0.00000  Uiso   1.00
H198   H     0.83551   0.03950   0.32002   0.00000  Uiso   1.00
H199   H     0.83602   0.30789   0.33160   0.00000  Uiso   1.00
H200   H     0.70723   0.32805   0.18539   0.00000  Uiso   1.00
H201   H     0.70351   0.33233   0.24225   0.00000  Uiso   1.00
H202   H     0.97095   0.25865   0.48427   0.00000  Uiso   1.00
H203   H     0.70683   0.27101   0.21564   0.00000  Uiso   1.00
H204   H     0.81324   0.02321   0.17392   0.00000  Uiso   1.00
H205   H     0.81551   0.29186   0.18408   0.00000  Uiso   1.00
H206   H     0.99598   0.25383   0.15456   0.00000  Uiso   1.00
H207   H     0.74129   0.23987   0.14448   0.00000  Uiso   1.00
H208   H     0.71889   0.26969   0.10281   0.00000  Uiso   1.00
H209   H     0.66840   0.15756   0.13980   0.00000  Uiso   1.00
H210   H     0.71779   0.17629   0.08815   0.00000  Uiso   1.00
H211   H     0.72041   0.23630   0.35469   0.00000  Uiso   1.00
H212   H     0.67600   0.24416   0.40918   0.00000  Uiso   1.00
N213   N     0.98173   0.18068   0.26212   0.00000  Uiso   1.00
N214   N     0.68494   0.15265   0.23788   0.00000  Uiso   1.00
O215   O     0.79482   0.23809   0.24686   0.00000  Uiso   1.00
O216   O     0.87185   0.09524   0.25314   0.00000  Uiso   1.00
O217   O     0.89496   0.24753   0.25503   0.00000  Uiso   1.00
O218   O     0.77171   0.08580   0.24498   0.00000  Uiso   1.00
O219   O     0.75518   0.15930   0.30855   0.00000  Uiso   1.00
O220   O     0.91149   0.17403   0.19146   0.00000  Uiso   1.00
O221   O     0.85532   0.16874   0.31671   0.00000  Uiso   1.00
O222   O     0.81134   0.16460   0.18329   0.00000  Uiso   1.00
C223   C     0.17972   0.59942   0.25308   0.00000  Uiso   1.00
C224   C     0.20497   0.50079   0.16663   0.00000  Uiso   1.00
C225   C     0.10329   0.49497   0.38171   0.00000  Uiso   1.00
C226   C     0.22732   0.50021   0.11786   0.00000  Uiso   1.00
C227   C     0.02166   0.45972   0.44513   0.00000  Uiso   1.00
C228   C     0.30298   0.53789   0.05255   0.00000  Uiso   1.00
C229   C     0.03891   0.48066   0.40271   0.00000  Uiso   1.00
C230   C     0.29047   0.51923   0.09507   0.00000  Uiso   1.00
C231   C     0.14519   0.50767   0.40812   0.00000  Uiso   1.00
C232   C     0.18222   0.48530   0.09314   0.00000  Uiso   1.00
C233   C     0.12621   0.49639   0.45309   0.00000  Uiso   1.00
C234   C     0.15299   0.40063   0.24819   0.00000  Uiso   1.00
C235   C     0.19703   0.49775   0.04828   0.00000  Uiso   1.00
C236   C     0.06690   0.46438   0.46912   0.00000  Uiso   1.00
C237   C     0.25524   0.53131   0.03102   0.00000  Uiso   1.00
C238   C     0.16639   0.51136   0.48140   0.00000  Uiso   1.00
C239   C     0.15424   0.48355   0.02114   0.00000  Uiso   1.00
C240   C     0.01222   0.52040   0.11389   0.00000  Uiso   1.00
C241   C     0.03509   0.57451   0.13002   0.00000  Uiso   1.00
C242   C     0.32377   0.49750   0.38456   0.00000  Uiso   1.00
C243   C     0.00737   0.55721   0.37786   0.00000  Uiso   1.00
C244   C     0.19136   0.33931   0.30694   0.00000  Uiso   1.00
C245   C     0.10073   0.44243   0.03111   0.00000  Uiso   1.00
C246   C     0.26114   0.35412   0.30494   0.00000  Uiso   1.00
C247   C     0.12944   0.65927   0.19965   0.00000  Uiso   1.00
C248   C     0.05763   0.64690   0.21140   0.00000  Uiso   1.00
C249   C     0.21718   0.55427   0.47194   0.00000  Uiso   1.00
C250   C     0.05495   0.43690   0.00787   0.00000  Uiso   1.00
C251   C     0.26362   0.56085   0.49409   0.00000  Uiso   1.00
C252   C     0.17891   0.65343   0.26299   0.00000  Uiso   1.00
C253   C     0.15273   0.34655   0.23949   0.00000  Uiso   1.00
C254   C     0.12795   0.49760   0.33329   0.00000  Uiso   1.00
Cu255  Cu    0.10737   0.49441   0.24517   0.00000  Uiso   1.00
Cu256  Cu    0.22596   0.50559   0.25484   0.00000  Uiso   1.00
F257   F     0.12238   0.46458   0.11434   0.00000  Uiso   1.00
F258   F     0.20519   0.52811   0.38890   0.00000  Uiso   1.00
F259   F     0.29442   0.43702   0.46350   0.00000  Uiso   1.00
F260   F     0.02849   0.56303   0.03218   0.00000  Uiso   1.00
F261   F     0.09355   0.40522   0.06109   0.00000  Uiso   1.00
F262   F     0.22017   0.59228   0.44360   0.00000  Uiso   1.00
F263   F     0.00873   0.55194   0.28483   0.00000  Uiso   1.00
F264   F     0.32527   0.44920   0.21379   0.00000  Uiso   1.00
H265   H     0.01205   0.40815   0.01847   0.00000  Uiso   1.00
H266   H     0.30657   0.57146   0.36438   0.00000  Uiso   1.00
H267   H     0.31896   0.47655   0.35394   0.00000  Uiso   1.00
H268   H     0.27730   0.48731   0.40796   0.00000  Uiso   1.00
H269   H     0.28169   0.65191   0.30140   0.00000  Uiso   1.00
H270   H     0.28618   0.38103   0.27739   0.00000  Uiso   1.00
H271   H     0.26767   0.37395   0.33576   0.00000  Uiso   1.00
H272   H     0.16884   0.37283   0.32002   0.00000  Uiso   1.00
H273   H     0.16936   0.64122   0.33160   0.00000  Uiso   1.00
H274   H     0.04056   0.66139   0.18539   0.00000  Uiso   1.00
H275   H     0.03684   0.66567   0.24225   0.00000  Uiso   1.00
H276   H     0.30428   0.59198   0.48427   0.00000  Uiso   1.00
H277   H     0.04016   0.60435   0.21564   0.00000  Uiso   1.00
H278   H     0.14657   0.35654   0.17392   0.00000  Uiso   1.00
H279   H     0.14884   0.62520   0.18408   0.00000  Uiso   1.00
H280   H     0.32931   0.58716   0.15456   0.00000  Uiso   1.00
H281   H     0.07462   0.57320   0.14448   0.00000  Uiso   1.00
H282   H     0.05222   0.60303   0.10281   0.00000  Uiso   1.00
H283   H     0.00174   0.49089   0.13980   0.00000  Uiso   1.00
H284   H     0.05113   0.50962   0.08815   0.00000  Uiso   1.00
H285   H     0.05374   0.56963   0.35469   0.00000  Uiso   1.00
H286   H     0.00934   0.57749   0.40918   0.00000  Uiso   1.00
N287   N     0.31506   0.51401   0.26212   0.00000  Uiso   1.00
N288   N     0.01827   0.48599   0.23788   0.00000  Uiso   1.00
O289   O     0.12815   0.57142   0.24686   0.00000  Uiso   1.00
O290   O     0.20518   0.42858   0.25314   0.00000  Uiso   1.00
O291   O     0.22829   0.58086   0.25503   0.00000  Uiso   1.00
O292   O     0.10504   0.41914   0.24498   0.00000  Uiso   1.00
O293   O     0.08851   0.49263   0.30855   0.00000  Uiso   1.00
O294   O     0.24482   0.50737   0.19146   0.00000  Uiso   1.00
O295   O     0.18866   0.50207   0.31671   0.00000  Uiso   1.00
O296   O     0.14468   0.49793   0.18329   0.00000  Uiso   1.00
C297   C     0.51305   0.59942   0.25308   0.00000  Uiso   1.00
C298   C     0.53830   0.50079   0.16663   0.00000  Uiso   1.00
C299   C     0.43663   0.49497   0.38171   0.00000  Uiso   1.00
C300   C     0.56065   0.50021   0.11786   0.00000  Uiso   1.00
C301   C     0.35500   0.45972   0.44513   0.00000  Uiso   1.00
C302   C     0.63631   0.53789   0.05255   0.00000  Uiso   1.00
C303   C     0.37225   0.48066   0.40271   0.00000  Uiso   1.00
C304   C     0.62381   0.51923   0.09507   0.00000  Uiso   1.00
C305   C     0.47852   0.50767   0.40812   0.00000  Uiso   1.00
C306   C     0.51556   0.48530   0.09314   0.00000  Uiso   1.00
C307   C     0.45954   0.49639   0.45309   0.00000  Uiso   1.00
C308   C     0.48632   0.40063   0.24819   0.00000  Uiso   1.00
C309   C     0.53036   0.49775   0.04828   0.00000  Uiso   1.00
C310   C     0.40023   0.46438   0.46912   0.00000  Uiso   1.00
C311   C     0.58857   0.53131   0.03102   0.00000  Uiso   1.00
C312   C     0.49972   0.51136   0.48140   0.00000  Uiso   1.00
C313   C     0.48758   0.48355   0.02114   0.00000  Uiso   1.00
C314   C     0.34555   0.52040   0.11389   0.00000  Uiso   1.00
C315   C     0.36843   0.57451   0.13002   0.00000  Uiso   1.00
C316   C     0.65710   0.49750   0.38456   0.00000  Uiso   1.00
C317   C     0.34070   0.55721   0.37786   0.00000  Uiso   1.00
C318   C     0.52469   0.33931   0.30694   0.00000  Uiso   1.00
C319   C     0.43407   0.44243   0.03111   0.00000  Uiso   1.00
C320   C     0.59447   0.35412   0.30494   0.00000  Uiso   1.00
C321   C     0.46277   0.65927   0.19965   0.00000  Uiso   1.00
C322   C     0.39096   0.64690   0.21140   0.00000  Uiso   1.00
C323   C     0.55052   0.55427   0.47194   0.00000  Uiso   1.00
C324   C     0.38828   0.43690   0.00787   0.00000  Uiso   1.00
C325   C     0.59696   0.56085   0.49409   0.00000  Uiso   1.00
C326   C     0.51225   0.65343   0.26299   0.00000  Uiso   1.00
C327   C     0.48606   0.34655   0.23949   0.00000  Uiso   1.00
C328   C     0.46128   0.49760   0.33329   0.00000  Uiso   1.00
Cu329  Cu    0.44071   0.49441   0.24517   0.00000  Uiso   1.00
Cu330  Cu    0.55929   0.50559   0.25484   0.00000  Uiso   1.00
F331   F     0.45572   0.46458   0.11434   0.00000  Uiso   1.00
F332   F     0.53852   0.52811   0.38890   0.00000  Uiso   1.00
F333   F     0.62775   0.43702   0.46350   0.00000  Uiso   1.00
F334   F     0.36182   0.56303   0.03218   0.00000  Uiso   1.00
F335   F     0.42688   0.40522   0.06109   0.00000  Uiso   1.00
F336   F     0.55350   0.59228   0.44360   0.00000  Uiso   1.00
F337   F     0.34206   0.55194   0.28483   0.00000  Uiso   1.00
F338   F     0.65860   0.44920   0.21379   0.00000  Uiso   1.00
H339   H     0.34538   0.40815   0.01847   0.00000  Uiso   1.00
H340   H     0.63990   0.57146   0.36438   0.00000  Uiso   1.00
H341   H     0.65229   0.47655   0.35394   0.00000  Uiso   1.00
H342   H     0.61064   0.48731   0.40796   0.00000  Uiso   1.00
H343   H     0.61502   0.65191   0.30140   0.00000  Uiso   1.00
H344   H     0.61951   0.38103   0.27739   0.00000  Uiso   1.00
H345   H     0.60100   0.37395   0.33576   0.00000  Uiso   1.00
H346   H     0.50218   0.37283   0.32002   0.00000  Uiso   1.00
H347   H     0.50269   0.64122   0.33160   0.00000  Uiso   1.00
H348   H     0.37390   0.66139   0.18539   0.00000  Uiso   1.00
H349   H     0.37018   0.66567   0.24225   0.00000  Uiso   1.00
H350   H     0.63762   0.59198   0.48427   0.00000  Uiso   1.00
H351   H     0.37350   0.60435   0.21564   0.00000  Uiso   1.00
H352   H     0.47990   0.35654   0.17392   0.00000  Uiso   1.00
H353   H     0.48217   0.62520   0.18408   0.00000  Uiso   1.00
H354   H     0.66265   0.58716   0.15456   0.00000  Uiso   1.00
H355   H     0.40795   0.57320   0.14448   0.00000  Uiso   1.00
H356   H     0.38555   0.60303   0.10281   0.00000  Uiso   1.00
H357   H     0.33507   0.49089   0.13980   0.00000  Uiso   1.00
H358   H     0.38446   0.50962   0.08815   0.00000  Uiso   1.00
H359   H     0.38707   0.56963   0.35469   0.00000  Uiso   1.00
H360   H     0.34267   0.57749   0.40918   0.00000  Uiso   1.00
N361   N     0.64839   0.51401   0.26212   0.00000  Uiso   1.00
N362   N     0.35161   0.48599   0.23788   0.00000  Uiso   1.00
O363   O     0.46148   0.57142   0.24686   0.00000  Uiso   1.00
O364   O     0.53852   0.42858   0.25314   0.00000  Uiso   1.00
O365   O     0.56163   0.58086   0.25503   0.00000  Uiso   1.00
O366   O     0.43837   0.41914   0.24498   0.00000  Uiso   1.00
O367   O     0.42185   0.49263   0.30855   0.00000  Uiso   1.00
O368   O     0.57815   0.50737   0.19146   0.00000  Uiso   1.00
O369   O     0.52199   0.50207   0.31671   0.00000  Uiso   1.00
O370   O     0.47801   0.49793   0.18329   0.00000  Uiso   1.00
C371   C     0.84639   0.59942   0.25308   0.00000  Uiso   1.00
C372   C     0.87163   0.50079   0.16663   0.00000  Uiso   1.00
C373   C     0.76996   0.49497   0.38171   0.00000  Uiso   1.00
C374   C     0.89398   0.50021   0.11786   0.00000  Uiso   1.00
C375   C     0.68833   0.45972   0.44513   0.00000  Uiso   1.00
C376   C     0.96965   0.53789   0.05255   0.00000  Uiso   1.00
C377   C     0.70558   0.48066   0.40271   0.00000  Uiso   1.00
C378   C     0.95714   0.51923   0.09507   0.00000  Uiso   1.00
C379   C     0.81186   0.50767   0.40812   0.00000  Uiso   1.00
C380   C     0.84889   0.48530   0.09314   0.00000  Uiso   1.00
C381   C     0.79288   0.49639   0.45309   0.00000  Uiso   1.00
C382   C     0.81966   0.40063   0.24819   0.00000  Uiso   1.00
C383   C     0.86370   0.49775   0.04828   0.00000  Uiso   1.00
C384   C     0.73356   0.46438   0.46912   0.00000  Uiso   1.00
C385   C     0.92190   0.53131   0.03102   0.00000  Uiso   1.00
C386   C     0.83306   0.51136   0.48140   0.00000  Uiso   1.00
C387   C     0.82091   0.48355   0.02114   0.00000  Uiso   1.00
C388   C     0.67889   0.52040   0.11389   0.00000  Uiso   1.00
C389   C     0.70176   0.57451   0.13002   0.00000  Uiso   1.00
C390   C     0.99044   0.49750   0.38456   0.00000  Uiso   1.00
C391   C     0.67404   0.55721   0.37786   0.00000  Uiso   1.00
C392   C     0.85803   0.33931   0.30694   0.00000  Uiso   1.00
C393   C     0.76740   0.44243   0.03111   0.00000  Uiso   1.00
C394   C     0.92781   0.35412   0.30494   0.00000  Uiso   1.00
C395   C     0.79611   0.65927   0.19965   0.00000  Uiso   1.00
C396   C     0.72430   0.64690   0.21140   0.00000  Uiso   1.00
C397   C     0.88385   0.55427   0.47194   0.00000  Uiso   1.00
C398   C     0.72161   0.43690   0.00787   0.00000  Uiso   1.00
C399   C     0.93029   0.56085   0.49409   0.00000  Uiso   1.00
C400   C     0.84558   0.65343   0.26299   0.00000  Uiso   1.00
C401   C     0.81940   0.34655   0.23949   0.00000  Uiso   1.00
C402   C     0.79461   0.49760   0.33329   0.00000  Uiso   1.00
Cu403  Cu    0.77404   0.49441   0.24517   0.00000  Uiso   1.00
Cu404  Cu    0.89263   0.50559   0.25484   0.00000  Uiso   1.00
F405   F     0.78905   0.46458   0.11434   0.00000  Uiso   1.00
F406   F     0.87185   0.52811   0.38890   0.00000  Uiso   1.00
F407   F     0.96109   0.43702   0.46350   0.00000  Uiso   1.00
F408   F     0.69516   0.56303   0.03218   0.00000  Uiso   1.00
F409   F     0.76022   0.40522   0.06109   0.00000  Uiso   1.00
F410   F     0.88684   0.59228   0.44360   0.00000  Uiso   1.00
F411   F     0.67539   0.55194   0.28483   0.00000  Uiso   1.00
F412   F     0.99193   0.44920   0.21379   0.00000  Uiso   1.00
H413   H     0.67872   0.40815   0.01847   0.00000  Uiso   1.00
H414   H     0.97323   0.57146   0.36438   0.00000  Uiso   1.00
H415   H     0.98562   0.47655   0.35394   0.00000  Uiso   1.00
H416   H     0.94397   0.48731   0.40796   0.00000  Uiso   1.00
H417   H     0.94835   0.65191   0.30140   0.00000  Uiso   1.00
H418   H     0.95285   0.38103   0.27739   0.00000  Uiso   1.00
H419   H     0.93433   0.37395   0.33576   0.00000  Uiso   1.00
H420   H     0.83551   0.37283   0.32002   0.00000  Uiso   1.00
H421   H     0.83602   0.64122   0.33160   0.00000  Uiso   1.00
H422   H     0.70723   0.66139   0.18539   0.00000  Uiso   1.00
H423   H     0.70351   0.66567   0.24225   0.00000  Uiso   1.00
H424   H     0.97095   0.59198   0.48427   0.00000  Uiso   1.00
H425   H     0.70683   0.60435   0.21564   0.00000  Uiso   1.00
H426   H     0.81324   0.35654   0.17392   0.00000  Uiso   1.00
H427   H     0.81551   0.62520   0.18408   0.00000  Uiso   1.00
H428   H     0.99598   0.58716   0.15456   0.00000  Uiso   1.00
H429   H     0.74129   0.57320   0.14448   0.00000  Uiso   1.00
H430   H     0.71889   0.60303   0.10281   0.00000  Uiso   1.00
H431   H     0.66840   0.49089   0.13980   0.00000  Uiso   1.00
H432   H     0.71779   0.50962   0.08815   0.00000  Uiso   1.00
H433   H     0.72041   0.56963   0.35469   0.00000  Uiso   1.00
H434   H     0.67600   0.57749   0.40918   0.00000  Uiso   1.00
N435   N     0.98173   0.51401   0.26212   0.00000  Uiso   1.00
N436   N     0.68494   0.48599   0.23788   0.00000  Uiso   1.00
O437   O     0.79482   0.57142   0.24686   0.00000  Uiso   1.00
O438   O     0.87185   0.42858   0.25314   0.00000  Uiso   1.00
O439   O     0.89496   0.58086   0.25503   0.00000  Uiso   1.00
O440   O     0.77171   0.41914   0.24498   0.00000  Uiso   1.00
O441   O     0.75518   0.49263   0.30855   0.00000  Uiso   1.00
O442   O     0.91149   0.50737   0.19146   0.00000  Uiso   1.00
O443   O     0.85532   0.50207   0.31671   0.00000  Uiso   1.00
O444   O     0.81134   0.49793   0.18329   0.00000  Uiso   1.00
C445   C     0.17972   0.93275   0.25308   0.00000  Uiso   1.00
C446   C     0.20497   0.83413   0.16663   0.00000  Uiso   1.00
C447   C     0.10329   0.82831   0.38171   0.00000  Uiso   1.00
C448   C     0.22732   0.83355   0.11786   0.00000  Uiso   1.00
C449   C     0.02166   0.79305   0.44513   0.00000  Uiso   1.00
C450   C     0.30298   0.87122   0.05255   0.00000  Uiso   1.00
C451   C     0.03891   0.81399   0.40271   0.00000  Uiso   1.00
C452   C     0.29047   0.85257   0.09507   0.00000  Uiso   1.00
C453   C     0.14519   0.84100   0.40812   0.00000  Uiso   1.00
C454   C     0.18222   0.81864   0.09314   0.00000  Uiso   1.00
C455   C     0.12621   0.82972   0.45309   0.00000  Uiso   1.00
C456   C     0.15299   0.73396   0.24819   0.00000  Uiso   1.00
C457   C     0.19703   0.83108   0.04828   0.00000  Uiso   1.00
C458   C     0.06690   0.79771   0.46912   0.00000  Uiso   1.00
C459   C     0.25524   0.86465   0.03102   0.00000  Uiso   1.00
C460   C     0.16639   0.84470   0.48140   0.00000  Uiso   1.00
C461   C     0.15424   0.81688   0.02114   0.00000  Uiso   1.00
C462   C     0.01222   0.85373   0.11389   0.00000  Uiso   1.00
C463   C     0.03509   0.90785   0.13002   0.00000  Uiso   1.00
C464   C     0.32377   0.83084   0.38456   0.00000  Uiso   1.00
C465   C     0.00737   0.89054   0.37786   0.00000  Uiso   1.00
C466   C     0.19136   0.67265   0.30694   0.00000  Uiso   1.00
C467   C     0.10073   0.77576   0.03111   0.00000  Uiso   1.00
C468   C     0.26114   0.68745   0.30494   0.00000  Uiso   1.00
C469   C     0.12944   0.99261   0.19965   0.00000  Uiso   1.00
C470   C     0.05763   0.98023   0.21140   0.00000  Uiso   1.00
C471   C     0.21718   0.88760   0.47194   0.00000  Uiso   1.00
C472   C     0.05495   0.77023   0.00787   0.00000  Uiso   1.00
C473   C     0.26362   0.89418   0.49409   0.00000  Uiso   1.00
C474   C     0.17891   0.98676   0.26299   0.00000  Uiso   1.00
C475   C     0.15273   0.67988   0.23949   0.00000  Uiso   1.00
C476   C     0.12795   0.83093   0.33329   0.00000  Uiso   1.00
Cu477  Cu    0.10737   0.82775   0.24517   0.00000  Uiso   1.00
Cu478  Cu    0.22596   0.83892   0.25484   0.00000  Uiso   1.00
F479   F     0.12238   0.79791   0.11434   0.00000  Uiso   1.00
F480   F     0.20519   0.86145   0.38890   0.00000  Uiso   1.00
F481   F     0.29442   0.77035   0.46350   0.00000  Uiso   1.00
F482   F     0.02849   0.89637   0.03218   0.00000  Uiso   1.00
F483   F     0.09355   0.73855   0.06109   0.00000  Uiso   1.00
F484   F     0.22017   0.92561   0.44360   0.00000  Uiso   1.00
F485   F     0.00873   0.88527   0.28483   0.00000  Uiso   1.00
F486   F     0.32527   0.78254   0.21379   0.00000  Uiso   1.00
H487   H     0.01205   0.74148   0.01847   0.00000  Uiso   1.00
H488   H     0.30657   0.90480   0.36438   0.00000  Uiso   1.00
H489   H     0.31896   0.80989   0.35394   0.00000  Uiso   1.00
H490   H     0.27730   0.82065   0.40796   0.00000  Uiso   1.00
H491   H     0.28169   0.98525   0.30140   0.00000  Uiso   1.00
H492   H     0.28618   0.71436   0.27739   0.00000  Uiso   1.00
H493   H     0.26767   0.70728   0.33576   0.00000  Uiso   1.00
H494   H     0.16884   0.70616   0.32002   0.00000  Uiso   1.00
H495   H     0.16936   0.97455   0.33160   0.00000  Uiso   1.00
H496   H     0.04056   0.99472   0.18539   0.00000  Uiso   1.00
H497   H     0.03684   0.99900   0.24225   0.00000  Uiso   1.00
H498   H     0.30428   0.92532   0.48427   0.00000  Uiso   1.00
H499   H     0.04016   0.93768   0.21564   0.00000  Uiso   1.00
H500   H     0.14657   0.68987   0.17392   0.00000  Uiso   1.00
H501   H     0.14884   0.95853   0.18408   0.00000  Uiso   1.00
H502   H     0.32931   0.92049   0.15456   0.00000  Uiso   1.00
H503   H     0.07462   0.90654   0.14448   0.00000  Uiso   1.00
H504   H     0.05222   0.93636   0.10281   0.00000  Uiso   1.00
H505   H     0.00174   0.82422   0.13980   0.00000  Uiso   1.00
H506   H     0.05113   0.84296   0.08815   0.00000  Uiso   1.00
H507   H     0.05374   0.90296   0.35469   0.00000  Uiso   1.00
H508   H     0.00934   0.91082   0.40918   0.00000  Uiso   1.00
N509   N     0.31506   0.84735   0.26212   0.00000  Uiso   1.00
N510   N     0.01827   0.81932   0.23788   0.00000  Uiso   1.00
O511   O     0.12815   0.90476   0.24686   0.00000  Uiso   1.00
O512   O     0.20518   0.76191   0.25314   0.00000  Uiso   1.00
O513   O     0.22829   0.91420   0.25503   0.00000  Uiso   1.00
O514   O     0.10504   0.75247   0.24498   0.00000  Uiso   1.00
O515   O     0.08851   0.82597   0.30855   0.00000  Uiso   1.00
O516   O     0.24482   0.84070   0.19146   0.00000  Uiso   1.00
O517   O     0.18866   0.83540   0.31671   0.00000  Uiso   1.00
O518   O     0.14468   0.83126   0.18329   0.00000  Uiso   1.00
C519   C     0.51305   0.93275   0.25308   0.00000  Uiso   1.00
C520   C     0.53830   0.83413   0.16663   0.00000  Uiso   1.00
C521   C     0.43663   0.82831   0.38171   0.00000  Uiso   1.00
C522   C     0.56065   0.83355   0.11786   0.00000  Uiso   1.00
C523   C     0.35500   0.79305   0.44513   0.00000  Uiso   1.00
C524   C     0.63631   0.87122   0.05255   0.00000  Uiso   1.00
C525   C     0.37225   0.81399   0.40271   0.00000  Uiso   1.00
C526   C     0.62381   0.85257   0.09507   0.00000  Uiso   1.00
C527   C     0.47852   0.84100   0.40812   0.00000  Uiso   1.00
C528   C     0.51556   0.81864   0.09314   0.00000  Uiso   1.00
C529   C     0.45954   0.82972   0.45309   0.00000  Uiso   1.00
C530   C     0.48632   0.73396   0.24819   0.00000  Uiso   1.00
C531   C     0.53036   0.83108   0.04828   0.00000  Uiso   1.00
C532   C     0.40023   0.79771   0.46912   0.00000  Uiso   1.00
C533   C     0.58857   0.86465   0.03102   0.00000  Uiso   1.00
C534   C     0.49972   0.84470   0.48140   0.00000  Uiso   1.00
C535   C     0.48758   0.81688   0.02114   0.00000  Uiso   1.00
C536   C     0.34555   0.85373   0.11389   0.00000  Uiso   1.00
C537   C     0.36843   0.90785   0.13002   0.00000  Uiso   1.00
C538   C     0.65710   0.83084   0.38456   0.00000  Uiso   1.00
C539   C     0.34070   0.89054   0.37786   0.00000  Uiso   1.00
C540   C     0.52469   0.67265   0.30694   0.00000  Uiso   1.00
C541   C     0.43407   0.77576   0.03111   0.00000  Uiso   1.00
C542   C     0.59447   0.68745   0.30494   0.00000  Uiso   1.00
C543   C     0.46277   0.99261   0.19965   0.00000  Uiso   1.00
C544   C     0.39096   0.98023   0.21140   0.00000  Uiso   1.00
C545   C     0.55052   0.88760   0.47194   0.00000  Uiso   1.00
C546   C     0.38828   0.77023   0.00787   0.00000  Uiso   1.00
C547   C     0.59696   0.89418   0.49409   0.00000  Uiso   1.00
C548   C     0.51225   0.98676   0.26299   0.00000  Uiso   1.00
C549   C     0.48606   0.67988   0.23949   0.00000  Uiso   1.00
C550   C     0.46128   0.83093   0.33329   0.00000  Uiso   1.00
Cu551  Cu    0.44071   0.82775   0.24517   0.00000  Uiso   1.00
Cu552  Cu    0.55929   0.83892   0.25484   0.00000  Uiso   1.00
F553   F     0.45572   0.79791   0.11434   0.00000  Uiso   1.00
F554   F     0.53852   0.86145   0.38890   0.00000  Uiso   1.00
F555   F     0.62775   0.77035   0.46350   0.00000  Uiso   1.00
F556   F     0.36182   0.89637   0.03218   0.00000  Uiso   1.00
F557   F     0.42688   0.73855   0.06109   0.00000  Uiso   1.00
F558   F     0.55350   0.92561   0.44360   0.00000  Uiso   1.00
F559   F     0.34206   0.88527   0.28483   0.00000  Uiso   1.00
F560   F     0.65860   0.78254   0.21379   0.00000  Uiso   1.00
H561   H     0.34538   0.74148   0.01847   0.00000  Uiso   1.00
H562   H     0.63990   0.90480   0.36438   0.00000  Uiso   1.00
H563   H     0.65229   0.80989   0.35394   0.00000  Uiso   1.00
H564   H     0.61064   0.82065   0.40796   0.00000  Uiso   1.00
H565   H     0.61502   0.98525   0.30140   0.00000  Uiso   1.00
H566   H     0.61951   0.71436   0.27739   0.00000  Uiso   1.00
H567   H     0.60100   0.70728   0.33576   0.00000  Uiso   1.00
H568   H     0.50218   0.70616   0.32002   0.00000  Uiso   1.00
H569   H     0.50269   0.97455   0.33160   0.00000  Uiso   1.00
H570   H     0.37390   0.99472   0.18539   0.00000  Uiso   1.00
H571   H     0.37018   0.99900   0.24225   0.00000  Uiso   1.00
H572   H     0.63762   0.92532   0.48427   0.00000  Uiso   1.00
H573   H     0.37350   0.93768   0.21564   0.00000  Uiso   1.00
H574   H     0.47990   0.68987   0.17392   0.00000  Uiso   1.00
H575   H     0.48217   0.95853   0.18408   0.00000  Uiso   1.00
H576   H     0.66265   0.92049   0.15456   0.00000  Uiso   1.00
H577   H     0.40795   0.90654   0.14448   0.00000  Uiso   1.00
H578   H     0.38555   0.93636   0.10281   0.00000  Uiso   1.00
H579   H     0.33507   0.82422   0.13980   0.00000  Uiso   1.00
H580   H     0.38446   0.84296   0.08815   0.00000  Uiso   1.00
H581   H     0.38707   0.90296   0.35469   0.00000  Uiso   1.00
H582   H     0.34267   0.91082   0.40918   0.00000  Uiso   1.00
N583   N     0.64839   0.84735   0.26212   0.00000  Uiso   1.00
N584   N     0.35161   0.81932   0.23788   0.00000  Uiso   1.00
O585   O     0.46148   0.90476   0.24686   0.00000  Uiso   1.00
O586   O     0.53852   0.76191   0.25314   0.00000  Uiso   1.00
O587   O     0.56163   0.91420   0.25503   0.00000  Uiso   1.00
O588   O     0.43837   0.75247   0.24498   0.00000  Uiso   1.00
O589   O     0.42185   0.82597   0.30855   0.00000  Uiso   1.00
O590   O     0.57815   0.84070   0.19146   0.00000  Uiso   1.00
O591   O     0.52199   0.83540   0.31671   0.00000  Uiso   1.00
O592   O     0.47801   0.83126   0.18329   0.00000  Uiso   1.00
C593   C     0.84639   0.93275   0.25308   0.00000  Uiso   1.00
C594   C     0.87163   0.83413   0.16663   0.00000  Uiso   1.00
C595   C     0.76996   0.82831   0.38171   0.00000  Uiso   1.00
C596   C     0.89398   0.83355   0.11786   0.00000  Uiso   1.00
C597   C     0.68833   0.79305   0.44513   0.00000  Uiso   1.00
C598   C     0.96965   0.87122   0.05255   0.00000  Uiso   1.00
C599   C     0.70558   0.81399   0.40271   0.00000  Uiso   1.00
C600   C     0.95714   0.85257   0.09507   0.00000  Uiso   1.00
C601   C     0.81186   0.84100   0.40812   0.00000  Uiso   1.00
C602   C     0.84889   0.81864   0.09314   0.00000  Uiso   1.00
C603   C     0.79288   0.82972   0.45309   0.00000  Uiso   1.00
C604   C     0.81966   0.73396   0.24819   0.00000  Uiso   1.00
C605   C     0.86370   0.83108   0.04828   0.00000  Uiso   1.00
C606   C     0.73356   0.79771   0.46912   0.00000  Uiso   1.00
C607   C     0.92190   0.86465   0.03102   0.00000  Uiso   1.00
C608   C     0.83306   0.84470   0.48140   0.00000  Uiso   1.00
C609   C     0.82091   0.81688   0.02114   0.00000  Uiso   1.00
C610   C     0.67889   0.85373   0.11389   0.00000  Uiso   1.00
C611   C     0.70176   0.90785   0.13002   0.00000  Uiso   1.00
C612   C     0.99044   0.83084   0.38456   0.00000  Uiso   1.00
C613   C     0.67404   0.89054   0.37786   0.00000  Uiso   1.00
C614   C     0.85803   0.67265   0.30694   0.00000  Uiso   1.00
C615   C     0.76740   0.77576   0.03111   0.00000  Uiso   1.00
C616   C     0.92781   0.68745   0.30494   0.00000  Uiso   1.00
C617   C     0.79611   0.99261   0.19965   0.00000  Uiso   1.00
C618   C     0.72430   0.98023   0.21140   0.00000  Uiso   1.00
C619   C     0.88385   0.88760   0.47194   0.00000  Uiso   1.00
C620   C     0.72161   0.77023   0.00787   0.00000  Uiso   1.00
C621   C     0.93029   0.89418   0.49409   0.00000  Uiso   1.00
C622   C     0.84558   0.98676   0.26299   0.00000  Uiso   1.00
C623   C     0.81940   0.67988   0.23949   0.00000  Uiso   1.00
C624   C     0.79461   0.83093   0.33329   0.00000  Uiso   1.00
Cu625  Cu    0.77404   0.82775   0.24517   0.00000  Uiso   1.00
Cu626  Cu    0.89263   0.83892   0.25484   0.00000  Uiso   1.00
F627   F     0.78905   0.79791   0.11434   0.00000  Uiso   1.00
F628   F     0.87185   0.86145   0.38890   0.00000  Uiso   1.00
F629   F     0.96109   0.77035   0.46350   0.00000  Uiso   1.00
F630   F     0.69516   0.89637   0.03218   0.00000  Uiso   1.00
F631   F     0.76022   0.73855   0.06109   0.00000  Uiso   1.00
F632   F     0.88684   0.92561   0.44360   0.00000  Uiso   1.00
F633   F     0.67539   0.88527   0.28483   0.00000  Uiso   1.00
F634   F     0.99193   0.78254   0.21379   0.00000  Uiso   1.00
H635   H     0.67872   0.74148   0.01847   0.00000  Uiso   1.00
H636   H     0.97323   0.90480   0.36438   0.00000  Uiso   1.00
H637   H     0.98562   0.80989   0.35394   0.00000  Uiso   1.00
H638   H     0.94397   0.82065   0.40796   0.00000  Uiso   1.00
H639   H     0.94835   0.98525   0.30140   0.00000  Uiso   1.00
H640   H     0.95285   0.71436   0.27739   0.00000  Uiso   1.00
H641   H     0.93433   0.70728   0.33576   0.00000  Uiso   1.00
H642   H     0.83551   0.70616   0.32002   0.00000  Uiso   1.00
H643   H     0.83602   0.97455   0.33160   0.00000  Uiso   1.00
H644   H     0.70723   0.99472   0.18539   0.00000  Uiso   1.00
H645   H     0.70351   0.99900   0.24225   0.00000  Uiso   1.00
H646   H     0.97095   0.92532   0.48427   0.00000  Uiso   1.00
H647   H     0.70683   0.93768   0.21564   0.00000  Uiso   1.00
H648   H     0.81324   0.68987   0.17392   0.00000  Uiso   1.00
H649   H     0.81551   0.95853   0.18408   0.00000  Uiso   1.00
H650   H     0.99598   0.92049   0.15456   0.00000  Uiso   1.00
H651   H     0.74129   0.90654   0.14448   0.00000  Uiso   1.00
H652   H     0.71889   0.93636   0.10281   0.00000  Uiso   1.00
H653   H     0.66840   0.82422   0.13980   0.00000  Uiso   1.00
H654   H     0.71779   0.84296   0.08815   0.00000  Uiso   1.00
H655   H     0.72041   0.90296   0.35469   0.00000  Uiso   1.00
H656   H     0.67600   0.91082   0.40918   0.00000  Uiso   1.00
N657   N     0.98173   0.84735   0.26212   0.00000  Uiso   1.00
N658   N     0.68494   0.81932   0.23788   0.00000  Uiso   1.00
O659   O     0.79482   0.90476   0.24686   0.00000  Uiso   1.00
O660   O     0.87185   0.76191   0.25314   0.00000  Uiso   1.00
O661   O     0.89496   0.91420   0.25503   0.00000  Uiso   1.00
O662   O     0.77171   0.75247   0.24498   0.00000  Uiso   1.00
O663   O     0.75518   0.82597   0.30855   0.00000  Uiso   1.00
O664   O     0.91149   0.84070   0.19146   0.00000  Uiso   1.00
O665   O     0.85532   0.83540   0.31671   0.00000  Uiso   1.00
O666   O     0.81134   0.83126   0.18329   0.00000  Uiso   1.00
C667   C     0.17972   0.26608   0.75308   0.00000  Uiso   1.00
C668   C     0.20497   0.16746   0.66663   0.00000  Uiso   1.00
C669   C     0.10329   0.16164   0.88171   0.00000  Uiso   1.00
C670   C     0.22732   0.16688   0.61786   0.00000  Uiso   1.00
C671   C     0.02166   0.12639   0.94513   0.00000  Uiso   1.00
C672   C     0.30298   0.20455   0.55255   0.00000  Uiso   1.00
C673   C     0.03891   0.14733   0.90271   0.00000  Uiso   1.00
C674   C     0.29047   0.18590   0.59507   0.00000  Uiso   1.00
C675   C     0.14519   0.17434   0.90812   0.00000  Uiso   1.00
C676   C     0.18222   0.15197   0.59314   0.00000  Uiso   1.00
C677   C     0.12621   0.16306   0.95309   0.00000  Uiso   1.00
C678   C     0.15299   0.06729   0.74819   0.00000  Uiso   1.00
C679   C     0.19703   0.16442   0.54828   0.00000  Uiso   1.00
C680   C     0.06690   0.13104   0.96912   0.00000  Uiso   1.00
C681   C     0.25524   0.19798   0.53102   0.00000  Uiso   1.00
C682   C     0.16639   0.17803   0.98140   0.00000  Uiso   1.00
C683   C     0.15424   0.15022   0.52114   0.00000  Uiso   1.00
C684   C     0.01222   0.18707   0.61389   0.00000  Uiso   1.00
C685   C     0.03509   0.24118   0.63002   0.00000  Uiso   1.00
C686   C     0.32377   0.16417   0.88456   0.00000  Uiso   1.00
C687   C     0.00737   0.22387   0.87786   0.00000  Uiso   1.00
C688   C     0.19136   0.00598   0.80694   0.00000  Uiso   1.00
C689   C     0.10073   0.10910   0.53111   0.00000  Uiso   1.00
C690   C     0.26114   0.02079   0.80494   0.00000  Uiso   1.00
C691   C     0.12944   0.32594   0.69965   0.00000  Uiso   1.00
C692   C     0.05763   0.31357   0.71140   0.00000  Uiso   1.00
C693   C     0.21718   0.22093   0.97194   0.00000  Uiso   1.00
C694   C     0.05495   0.10357   0.50787   0.00000  Uiso   1.00
C695   C     0.26362   0.22752   0.99409   0.00000  Uiso   1.00
C696   C     0.17891   0.32010   0.76299   0.00000  Uiso   1.00
C697   C     0.15273   0.01321   0.73949   0.00000  Uiso   1.00
C698   C     0.12795   0.16426   0.83329   0.00000  Uiso   1.00
Cu699  Cu    0.10737   0.16108   0.74517   0.00000  Uiso   1.00
Cu700  Cu    0.22596   0.17225   0.75484   0.00000  Uiso   1.00
F701   F     0.12238   0.13124   0.61434   0.00000  Uiso   1.00
F702   F     0.20519   0.19478   0.88890   0.00000  Uiso   1.00
F703   F     0.29442   0.10369   0.96350   0.00000  Uiso   1.00
F704   F     0.02849   0.22970   0.53218   0.00000  Uiso   1.00
F705   F     0.09355   0.07189   0.56109   0.00000  Uiso   1.00
F706   F     0.22017   0.25895   0.94360   0.00000  Uiso   1.00
F707   F     0.00873   0.21861   0.78483   0.00000  Uiso   1.00
F708   F     0.32527   0.11587   0.71379   0.00000  Uiso   1.00
H709   H     0.01205   0.07481   0.51847   0.00000  Uiso   1.00
H710   H     0.30657   0.23813   0.86438   0.00000  Uiso   1.00
H711   H     0.31896   0.14322   0.85394   0.00000  Uiso   1.00
H712   H     0.27730   0.15398   0.90796   0.00000  Uiso   1.00
H713   H     0.28169   0.31858   0.80140   0.00000  Uiso   1.00
H714   H     0.28618   0.04769   0.77739   0.00000  Uiso   1.00
H715   H     0.26767   0.04062   0.83576   0.00000  Uiso   1.00
H716   H     0.16884   0.03950   0.82002   0.00000  Uiso   1.00
H717   H     0.16936   0.30789   0.83160   0.00000  Uiso   1.00
H718   H     0.04056   0.32805   0.68539   0.00000  Uiso   1.00
H719   H     0.03684   0.33233   0.74225   0.00000  Uiso   1.00
H720   H     0.30428   0.25865   0.98427   0.00000  Uiso   1.00
H721   H     0.04016   0.27101   0.71564   0.00000  Uiso   1.00
H722   H     0.14657   0.02321   0.67392   0.00000  Uiso   1.00
H723   H     0.14884   0.29186   0.68408   0.00000  Uiso   1.00
H724   H     0.32931   0.25383   0.65456   0.00000  Uiso   1.00
H725   H     0.07462   0.23987   0.64448   0.00000  Uiso   1.00
H726   H     0.05222   0.26969   0.60281   0.00000  Uiso   1.00
H727   H     0.00174   0.15756   0.63980   0.00000  Uiso   1.00
H728   H     0.05113   0.17629   0.58815   0.00000  Uiso   1.00
H729   H     0.05374   0.23630   0.85469   0.00000  Uiso   1.00
H730   H     0.00934   0.24416   0.90918   0.00000  Uiso   1.00
N731   N     0.31506   0.18068   0.76212   0.00000  Uiso   1.00
N732   N     0.01827   0.15265   0.73788   0.00000  Uiso   1.00
O733   O     0.12815   0.23809   0.74686   0.00000  Uiso   1.00
O734   O     0.20518   0.09524   0.75314   0.00000  Uiso   1.00
O735   O     0.22829   0.24753   0.75503   0.00000  Uiso   1.00
O736   O     0.10504   0.08580   0.74498   0.00000  Uiso   1.00
O737   O     0.08851   0.15930   0.80855   0.00000  Uiso   1.00
O738   O     0.24482   0.17403   0.69146   0.00000  Uiso   1.00
O739   O     0.18866   0.16874   0.81671   0.00000  Uiso   1.00
O740   O     0.14468   0.16460   0.68329   0.00000  Uiso   1.00
C741   C     0.51305   0.26608   0.75308   0.00000  Uiso   1.00
C742   C     0.53830   0.16746   0.66663   0.00000  Uiso   1.00
C743   C     0.43663   0.16164   0.88171   0.00000  Uiso   1.00
C744   C     0.56065   0.16688   0.61786   0.00000  Uiso   1.00
C745   C     0.35500   0.12639   0.94513   0.00000  Uiso   1.00
C746   C     0.63631   0.20455   0.55255   0.00000  Uiso   1.00
C747   C     0.37225   0.14733   0.90271   0.00000  Uiso   1.00
C748   C     0.62381   0.18590   0.59507   0.00000  Uiso   1.00
C749   C     0.47852   0.17434   0.90812   0.00000  Uiso   1.00
C750   C     0.51556   0.15197   0.59314   0.00000  Uiso   1.00
C751   C     0.45954   0.16306   0.95309   0.00000  Uiso   1.00
C752   C     0.48632   0.06729   0.74819   0.00000  Uiso   1.00
C753   C     0.53036   0.16442   0.54828   0.00000  Uiso   1.00
C754   C     0.40023   0.13104   0.96912   0.00000  Uiso   1.00
C755   C     0.58857   0.19798   0.53102   0.00000  Uiso   1.00
C756   C     0.49972   0.17803   0.98140   0.00000  Uiso   1.00
C757   C     0.48758   0.15022   0.52114   0.00000  Uiso   1.00
C758   C     0.34555   0.18707   0.61389   0.00000  Uiso   1.00
C759   C     0.36843   0.24118   0.63002   0.00000  Uiso   1.00
C760   C     0.65710   0.16417   0.88456   0.00000  Uiso   1.00
C761   C     0.34070   0.22387   0.87786   0.00000  Uiso   1.00
C762   C     0.52469   0.00598   0.80694   0.00000  Uiso   1.00
C763   C     0.43407   0.10910   0.53111   0.00000  Uiso   1.00
C764   C     0.59447   0.02079   0.80494   0.00000  Uiso   1.00
C765   C     0.46277   0.32594   0.69965   0.00000  Uiso   1.00
C766   C     0.39096   0.31357   0.71140   0.00000  Uiso   1.00
C767   C     0.55052   0.22093   0.97194   0.00000  Uiso   1.00
C768   C     0.38828   0.10357   0.50787   0.00000  Uiso   1.00
C769   C     0.59696   0.22752   0.99409   0.00000  Uiso   1.00
C770   C     0.51225   0.32010   0.76299   0.00000  Uiso   1.00
C771   C     0.48606   0.01321   0.73949   0.00000  Uiso   1.00
C772   C     0.46128   0.16426   0.83329   0.00000  Uiso   1.00
Cu773  Cu    0.44071   0.16108   0.74517   0.00000  Uiso   1.00
Cu774  Cu    0.55929   0.17225   0.75484   0.00000  Uiso   1.00
F775   F     0.45572   0.13124   0.61434   0.00000  Uiso   1.00
F776   F     0.53852   0.19478   0.88890   0.00000  Uiso   1.00
F777   F     0.62775   0.10369   0.96350   0.00000  Uiso   1.00
F778   F     0.36182   0.22970   0.53218   0.00000  Uiso   1.00
F779   F     0.42688   0.07189   0.56109   0.00000  Uiso   1.00
F780   F     0.55350   0.25895   0.94360   0.00000  Uiso   1.00
F781   F     0.34206   0.21861   0.78483   0.00000  Uiso   1.00
F782   F     0.65860   0.11587   0.71379   0.00000  Uiso   1.00
H783   H     0.34538   0.07481   0.51847   0.00000  Uiso   1.00
H784   H     0.63990   0.23813   0.86438   0.00000  Uiso   1.00
H785   H     0.65229   0.14322   0.85394   0.00000  Uiso   1.00
H786   H     0.61064   0.15398   0.90796   0.00000  Uiso   1.00
H787   H     0.61502   0.31858   0.80140   0.00000  Uiso   1.00
H788   H     0.61951   0.04769   0.77739   0.00000  Uiso   1.00
H789   H     0.60100   0.04062   0.83576   0.00000  Uiso   1.00
H790   H     0.50218   0.03950   0.82002   0.00000  Uiso   1.00
H791   H     0.50269   0.30789   0.83160   0.00000  Uiso   1.00
H792   H     0.37390   0.32805   0.68539   0.00000  Uiso   1.00
H793   H     0.37018   0.33233   0.74225   0.00000  Uiso   1.00
H794   H     0.63762   0.25865   0.98427   0.00000  Uiso   1.00
H795   H     0.37350   0.27101   0.71564   0.00000  Uiso   1.00
H796   H     0.47990   0.02321   0.67392   0.00000  Uiso   1.00
H797   H     0.48217   0.29186   0.68408   0.00000  Uiso   1.00
H798   H     0.66265   0.25383   0.65456   0.00000  Uiso   1.00
H799   H     0.40795   0.23987   0.64448   0.00000  Uiso   1.00
H800   H     0.38555   0.26969   0.60281   0.00000  Uiso   1.00
H801   H     0.33507   0.15756   0.63980   0.00000  Uiso   1.00
H802   H     0.38446   0.17629   0.58815   0.00000  Uiso   1.00
H803   H     0.38707   0.23630   0.85469   0.00000  Uiso   1.00
H804   H     0.34267   0.24416   0.90918   0.00000  Uiso   1.00
N805   N     0.64839   0.18068   0.76212   0.00000  Uiso   1.00
N806   N     0.35161   0.15265   0.73788   0.00000  Uiso   1.00
O807   O     0.46148   0.23809   0.74686   0.00000  Uiso   1.00
O808   O     0.53852   0.09524   0.75314   0.00000  Uiso   1.00
O809   O     0.56163   0.24753   0.75503   0.00000  Uiso   1.00
O810   O     0.43837   0.08580   0.74498   0.00000  Uiso   1.00
O811   O     0.42185   0.15930   0.80855   0.00000  Uiso   1.00
O812   O     0.57815   0.17403   0.69146   0.00000  Uiso   1.00
O813   O     0.52199   0.16874   0.81671   0.00000  Uiso   1.00
O814   O     0.47801   0.16460   0.68329   0.00000  Uiso   1.00
C815   C     0.84639   0.26608   0.75308   0.00000  Uiso   1.00
C816   C     0.87163   0.16746   0.66663   0.00000  Uiso   1.00
C817   C     0.76996   0.16164   0.88171   0.00000  Uiso   1.00
C818   C     0.89398   0.16688   0.61786   0.00000  Uiso   1.00
C819   C     0.68833   0.12639   0.94513   0.00000  Uiso   1.00
C820   C     0.96965   0.20455   0.55255   0.00000  Uiso   1.00
C821   C     0.70558   0.14733   0.90271   0.00000  Uiso   1.00
C822   C     0.95714   0.18590   0.59507   0.00000  Uiso   1.00
C823   C     0.81186   0.17434   0.90812   0.00000  Uiso   1.00
C824   C     0.84889   0.15197   0.59314   0.00000  Uiso   1.00
C825   C     0.79288   0.16306   0.95309   0.00000  Uiso   1.00
C826   C     0.81966   0.06729   0.74819   0.00000  Uiso   1.00
C827   C     0.86370   0.16442   0.54828   0.00000  Uiso   1.00
C828   C     0.73356   0.13104   0.96912   0.00000  Uiso   1.00
C829   C     0.92190   0.19798   0.53102   0.00000  Uiso   1.00
C830   C     0.83306   0.17803   0.98140   0.00000  Uiso   1.00
C831   C     0.82091   0.15022   0.52114   0.00000  Uiso   1.00
C832   C     0.67889   0.18707   0.61389   0.00000  Uiso   1.00
C833   C     0.70176   0.24118   0.63002   0.00000  Uiso   1.00
C834   C     0.99044   0.16417   0.88456   0.00000  Uiso   1.00
C835   C     0.67404   0.22387   0.87786   0.00000  Uiso   1.00
C836   C     0.85803   0.00598   0.80694   0.00000  Uiso   1.00
C837   C     0.76740   0.10910   0.53111   0.00000  Uiso   1.00
C838   C     0.92781   0.02079   0.80494   0.00000  Uiso   1.00
C839   C     0.79611   0.32594   0.69965   0.00000  Uiso   1.00
C840   C     0.72430   0.31357   0.71140   0.00000  Uiso   1.00
C841   C     0.88385   0.22093   0.97194   0.00000  Uiso   1.00
C842   C     0.72161   0.10357   0.50787   0.00000  Uiso   1.00
C843   C     0.93029   0.22752   0.99409   0.00000  Uiso   1.00
C844   C     0.84558   0.32010   0.76299   0.00000  Uiso   1.00
C845   C     0.81940   0.01321   0.73949   0.00000  Uiso   1.00
C846   C     0.79461   0.16426   0.83329   0.00000  Uiso   1.00
Cu847  Cu    0.77404   0.16108   0.74517   0.00000  Uiso   1.00
Cu848  Cu    0.89263   0.17225   0.75484   0.00000  Uiso   1.00
F849   F     0.78905   0.13124   0.61434   0.00000  Uiso   1.00
F850   F     0.87185   0.19478   0.88890   0.00000  Uiso   1.00
F851   F     0.96109   0.10369   0.96350   0.00000  Uiso   1.00
F852   F     0.69516   0.22970   0.53218   0.00000  Uiso   1.00
F853   F     0.76022   0.07189   0.56109   0.00000  Uiso   1.00
F854   F     0.88684   0.25895   0.94360   0.00000  Uiso   1.00
F855   F     0.67539   0.21861   0.78483   0.00000  Uiso   1.00
F856   F     0.99193   0.11587   0.71379   0.00000  Uiso   1.00
H857   H     0.67872   0.07481   0.51847   0.00000  Uiso   1.00
H858   H     0.97323   0.23813   0.86438   0.00000  Uiso   1.00
H859   H     0.98562   0.14322   0.85394   0.00000  Uiso   1.00
H860   H     0.94397   0.15398   0.90796   0.00000  Uiso   1.00
H861   H     0.94835   0.31858   0.80140   0.00000  Uiso   1.00
H862   H     0.95285   0.04769   0.77739   0.00000  Uiso   1.00
H863   H     0.93433   0.04062   0.83576   0.00000  Uiso   1.00
H864   H     0.83551   0.03950   0.82002   0.00000  Uiso   1.00
H865   H     0.83602   0.30789   0.83160   0.00000  Uiso   1.00
H866   H     0.70723   0.32805   0.68539   0.00000  Uiso   1.00
H867   H     0.70351   0.33233   0.74225   0.00000  Uiso   1.00
H868   H     0.97095   0.25865   0.98427   0.00000  Uiso   1.00
H869   H     0.70683   0.27101   0.71564   0.00000  Uiso   1.00
H870   H     0.81324   0.02321   0.67392   0.00000  Uiso   1.00
H871   H     0.81551   0.29186   0.68408   0.00000  Uiso   1.00
H872   H     0.99598   0.25383   0.65456   0.00000  Uiso   1.00
H873   H     0.74129   0.23987   0.64448   0.00000  Uiso   1.00
H874   H     0.71889   0.26969   0.60281   0.00000  Uiso   1.00
H875   H     0.66840   0.15756   0.63980   0.00000  Uiso   1.00
H876   H     0.71779   0.17629   0.58815   0.00000  Uiso   1.00
H877   H     0.72041   0.23630   0.85469   0.00000  Uiso   1.00
H878   H     0.67600   0.24416   0.90918   0.00000  Uiso   1.00
N879   N     0.98173   0.18068   0.76212   0.00000  Uiso   1.00
N880   N     0.68494   0.15265   0.73788   0.00000  Uiso   1.00
O881   O     0.79482   0.23809   0.74686   0.00000  Uiso   1.00
O882   O     0.87185   0.09524   0.75314   0.00000  Uiso   1.00
O883   O     0.89496   0.24753   0.75503   0.00000  Uiso   1.00
O884   O     0.77171   0.08580   0.74498   0.00000  Uiso   1.00
O885   O     0.75518   0.15930   0.80855   0.00000  Uiso   1.00
O886   O     0.91149   0.17403   0.69146   0.00000  Uiso   1.00
O887   O     0.85532   0.16874   0.81671   0.00000  Uiso   1.00
O888   O     0.81134   0.16460   0.68329   0.00000  Uiso   1.00
C889   C     0.17972   0.59942   0.75308   0.00000  Uiso   1.00
C890   C     0.20497   0.50079   0.66663   0.00000  Uiso   1.00
C891   C     0.10329   0.49497   0.88171   0.00000  Uiso   1.00
C892   C     0.22732   0.50021   0.61786   0.00000  Uiso   1.00
C893   C     0.02166   0.45972   0.94513   0.00000  Uiso   1.00
C894   C     0.30298   0.53789   0.55255   0.00000  Uiso   1.00
C895   C     0.03891   0.48066   0.90271   0.00000  Uiso   1.00
C896   C     0.29047   0.51923   0.59507   0.00000  Uiso   1.00
C897   C     0.14519   0.50767   0.90812   0.00000  Uiso   1.00
C898   C     0.18222   0.48530   0.59314   0.00000  Uiso   1.00
C899   C     0.12621   0.49639   0.95309   0.00000  Uiso   1.00
C900   C     0.15299   0.40063   0.74819   0.00000  Uiso   1.00
C901   C     0.19703   0.49775   0.54828   0.00000  Uiso   1.00
C902   C     0.06690   0.46438   0.96912   0.00000  Uiso   1.00
C903   C     0.25524   0.53131   0.53102   0.00000  Uiso   1.00
C904   C     0.16639   0.51136   0.98140   0.00000  Uiso   1.00
C905   C     0.15424   0.48355   0.52114   0.00000  Uiso   1.00
C906   C     0.01222   0.52040   0.61389   0.00000  Uiso   1.00
C907   C     0.03509   0.57451   0.63002   0.00000  Uiso   1.00
C908   C     0.32377   0.49750   0.88456   0.00000  Uiso   1.00
C909   C     0.00737   0.55721   0.87786   0.00000  Uiso   1.00
C910   C     0.19136   0.33931   0.80694   0.00000  Uiso   1.00
C911   C     0.10073   0.44243   0.53111   0.00000  Uiso   1.00
C912   C     0.26114   0.35412   0.80494   0.00000  Uiso   1.00
C913   C     0.12944   0.65927   0.69965   0.00000  Uiso   1.00
C914   C     0.05763   0.64690   0.71140   0.00000  Uiso   1.00
C915   C     0.21718   0.55427   0.97194   0.00000  Uiso   1.00
C916   C     0.05495   0.43690   0.50787   0.00000  Uiso   1.00
C917   C     0.26362   0.56085   0.99409   0.00000  Uiso   1.00
C918   C     0.17891   0.65343   0.76299   0.00000  Uiso   1.00
C919   C     0.15273   0.34655   0.73949   0.00000  Uiso   1.00
C920   C     0.12795   0.49760   0.83329   0.00000  Uiso   1.00
Cu921  Cu    0.10737   0.49441   0.74517   0.00000  Uiso   1.00
Cu922  Cu    0.22596   0.50559   0.75484   0.00000  Uiso   1.00
F923   F     0.12238   0.46458   0.61434   0.00000  Uiso   1.00
F924   F     0.20519   0.52811   0.88890   0.00000  Uiso   1.00
F925   F     0.29442   0.43702   0.96350   0.00000  Uiso   1.00
F926   F     0.02849   0.56303   0.53218   0.00000  Uiso   1.00
F927   F     0.09355   0.40522   0.56109   0.00000  Uiso   1.00
F928   F     0.22017   0.59228   0.94360   0.00000  Uiso   1.00
F929   F     0.00873   0.55194   0.78483   0.00000  Uiso   1.00
F930   F     0.32527   0.44920   0.71379   0.00000  Uiso   1.00
H931   H     0.01205   0.40815   0.51847   0.00000  Uiso   1.00
H932   H     0.30657   0.57146   0.86438   0.00000  Uiso   1.00
H933   H     0.31896   0.47655   0.85394   0.00000  Uiso   1.00
H934   H     0.27730   0.48731   0.90796   0.00000  Uiso   1.00
H935   H     0.28169   0.65191   0.80140   0.00000  Uiso   1.00
H936   H     0.28618   0.38103   0.77739   0.00000  Uiso   1.00
H937   H     0.26767   0.37395   0.83576   0.00000  Uiso   1.00
H938   H     0.16884   0.37283   0.82002   0.00000  Uiso   1.00
H939   H     0.16936   0.64122   0.83160   0.00000  Uiso   1.00
H940   H     0.04056   0.66139   0.68539   0.00000  Uiso   1.00
H941   H     0.03684   0.66567   0.74225   0.00000  Uiso   1.00
H942   H     0.30428   0.59198   0.98427   0.00000  Uiso   1.00
H943   H     0.04016   0.60435   0.71564   0.00000  Uiso   1.00
H944   H     0.14657   0.35654   0.67392   0.00000  Uiso   1.00
H945   H     0.14884   0.62520   0.68408   0.00000  Uiso   1.00
H946   H     0.32931   0.58716   0.65456   0.00000  Uiso   1.00
H947   H     0.07462   0.57320   0.64448   0.00000  Uiso   1.00
H948   H     0.05222   0.60303   0.60281   0.00000  Uiso   1.00
H949   H     0.00174   0.49089   0.63980   0.00000  Uiso   1.00
H950   H     0.05113   0.50962   0.58815   0.00000  Uiso   1.00
H951   H     0.05374   0.56963   0.85469   0.00000  Uiso   1.00
H952   H     0.00934   0.57749   0.90918   0.00000  Uiso   1.00
N953   N     0.31506   0.51401   0.76212   0.00000  Uiso   1.00
N954   N     0.01827   0.48599   0.73788   0.00000  Uiso   1.00
O955   O     0.12815   0.57142   0.74686   0.00000  Uiso   1.00
O956   O     0.20518   0.42858   0.75314   0.00000  Uiso   1.00
O957   O     0.22829   0.58086   0.75503   0.00000  Uiso   1.00
O958   O     0.10504   0.41914   0.74498   0.00000  Uiso   1.00
O959   O     0.08851   0.49263   0.80855   0.00000  Uiso   1.00
O960   O     0.24482   0.50737   0.69146   0.00000  Uiso   1.00
O961   O     0.18866   0.50207   0.81671   0.00000  Uiso   1.00
O962   O     0.14468   0.49793   0.68329   0.00000  Uiso   1.00
C963   C     0.51305   0.59942   0.75308   0.00000  Uiso   1.00
C964   C     0.53830   0.50079   0.66663   0.00000  Uiso   1.00
C965   C     0.43663   0.49497   0.88171   0.00000  Uiso   1.00
C966   C     0.56065   0.50021   0.61786   0.00000  Uiso   1.00
C967   C     0.35500   0.45972   0.94513   0.00000  Uiso   1.00
C968   C     0.63631   0.53789   0.55255   0.00000  Uiso   1.00
C969   C     0.37225   0.48066   0.90271   0.00000  Uiso   1.00
C970   C     0.62381   0.51923   0.59507   0.00000  Uiso   1.00
C971   C     0.47852   0.50767   0.90812   0.00000  Uiso   1.00
C972   C     0.51556   0.48530   0.59314   0.00000  Uiso   1.00
C973   C     0.45954   0.49639   0.95309   0.00000  Uiso   1.00
C974   C     0.48632   0.40063   0.74819   0.00000  Uiso   1.00
C975   C     0.53036   0.49775   0.54828   0.00000  Uiso   1.00
C976   C     0.40023   0.46438   0.96912   0.00000  Uiso   1.00
C977   C     0.58857   0.53131   0.53102   0.00000  Uiso   1.00
C978   C     0.49972   0.51136   0.98140   0.00000  Uiso   1.00
C979   C     0.48758   0.48355   0.52114   0.00000  Uiso   1.00
C980   C     0.34555   0.52040   0.61389   0.00000  Uiso   1.00
C981   C     0.36843   0.57451   0.63002   0.00000  Uiso   1.00
C982   C     0.65710   0.49750   0.88456   0.00000  Uiso   1.00
C983   C     0.34070   0.55721   0.87786   0.00000  Uiso   1.00
C984   C     0.52469   0.33931   0.80694   0.00000  Uiso   1.00
C985   C     0.43407   0.44243   0.53111   0.00000  Uiso   1.00
C986   C     0.59447   0.35412   0.80494   0.00000  Uiso   1.00
C987   C     0.46277   0.65927   0.69965   0.00000  Uiso   1.00
C988   C     0.39096   0.64690   0.71140   0.00000  Uiso   1.00
C989   C     0.55052   0.55427   0.97194   0.00000  Uiso   1.00
C990   C     0.38828   0.43690   0.50787   0.00000  Uiso   1.00
C991   C     0.59696   0.56085   0.99409   0.00000  Uiso   1.00
C992   C     0.51225   0.65343   0.76299   0.00000  Uiso   1.00
C993   C     0.48606   0.34655   0.73949   0.00000  Uiso   1.00
C994   C     0.46128   0.49760   0.83329   0.00000  Uiso   1.00
Cu995  Cu    0.44071   0.49441   0.74517   0.00000  Uiso   1.00
Cu996  Cu    0.55929   0.50559   0.75484   0.00000  Uiso   1.00
F997   F     0.45572   0.46458   0.61434   0.00000  Uiso   1.00
F998   F     0.53852   0.52811   0.88890   0.00000  Uiso   1.00
F999   F     0.62775   0.43702   0.96350   0.00000  Uiso   1.00
F1000  F     0.36182   0.56303   0.53218   0.00000  Uiso   1.00
F1001  F     0.42688   0.40522   0.56109   0.00000  Uiso   1.00
F1002  F     0.55350   0.59228   0.94360   0.00000  Uiso   1.00
F1003  F     0.34206   0.55194   0.78483   0.00000  Uiso   1.00
F1004  F     0.65860   0.44920   0.71379   0.00000  Uiso   1.00
H1005  H     0.34538   0.40815   0.51847   0.00000  Uiso   1.00
H1006  H     0.63990   0.57146   0.86438   0.00000  Uiso   1.00
H1007  H     0.65229   0.47655   0.85394   0.00000  Uiso   1.00
H1008  H     0.61064   0.48731   0.90796   0.00000  Uiso   1.00
H1009  H     0.61502   0.65191   0.80140   0.00000  Uiso   1.00
H1010  H     0.61951   0.38103   0.77739   0.00000  Uiso   1.00
H1011  H     0.60100   0.37395   0.83576   0.00000  Uiso   1.00
H1012  H     0.50218   0.37283   0.82002   0.00000  Uiso   1.00
H1013  H     0.50269   0.64122   0.83160   0.00000  Uiso   1.00
H1014  H     0.37390   0.66139   0.68539   0.00000  Uiso   1.00
H1015  H     0.37018   0.66567   0.74225   0.00000  Uiso   1.00
H1016  H     0.63762   0.59198   0.98427   0.00000  Uiso   1.00
H1017  H     0.37350   0.60435   0.71564   0.00000  Uiso   1.00
H1018  H     0.47990   0.35654   0.67392   0.00000  Uiso   1.00
H1019  H     0.48217   0.62520   0.68408   0.00000  Uiso   1.00
H1020  H     0.66265   0.58716   0.65456   0.00000  Uiso   1.00
H1021  H     0.40795   0.57320   0.64448   0.00000  Uiso   1.00
H1022  H     0.38555   0.60303   0.60281   0.00000  Uiso   1.00
H1023  H     0.33507   0.49089   0.63980   0.00000  Uiso   1.00
H1024  H     0.38446   0.50962   0.58815   0.00000  Uiso   1.00
H1025  H     0.38707   0.56963   0.85469   0.00000  Uiso   1.00
H1026  H     0.34267   0.57749   0.90918   0.00000  Uiso   1.00
N1027  N     0.64839   0.51401   0.76212   0.00000  Uiso   1.00
N1028  N     0.35161   0.48599   0.73788   0.00000  Uiso   1.00
O1029  O     0.46148   0.57142   0.74686   0.00000  Uiso   1.00
O1030  O     0.53852   0.42858   0.75314   0.00000  Uiso   1.00
O1031  O     0.56163   0.58086   0.75503   0.00000  Uiso   1.00
O1032  O     0.43837   0.41914   0.74498   0.00000  Uiso   1.00
O1033  O     0.42185   0.49263   0.80855   0.00000  Uiso   1.00
O1034  O     0.57815   0.50737   0.69146   0.00000  Uiso   1.00
O1035  O     0.52199   0.50207   0.81671   0.00000  Uiso   1.00
O1036  O     0.47801   0.49793   0.68329   0.00000  Uiso   1.00
C1037  C     0.84639   0.59942   0.75308   0.00000  Uiso   1.00
C1038  C     0.87163   0.50079   0.66663   0.00000  Uiso   1.00
C1039  C     0.76996   0.49497   0.88171   0.00000  Uiso   1.00
C1040  C     0.89398   0.50021   0.61786   0.00000  Uiso   1.00
C1041  C     0.68833   0.45972   0.94513   0.00000  Uiso   1.00
C1042  C     0.96965   0.53789   0.55255   0.00000  Uiso   1.00
C1043  C     0.70558   0.48066   0.90271   0.00000  Uiso   1.00
C1044  C     0.95714   0.51923   0.59507   0.00000  Uiso   1.00
C1045  C     0.81186   0.50767   0.90812   0.00000  Uiso   1.00
C1046  C     0.84889   0.48530   0.59314   0.00000  Uiso   1.00
C1047  C     0.79288   0.49639   0.95309   0.00000  Uiso   1.00
C1048  C     0.81966   0.40063   0.74819   0.00000  Uiso   1.00
C1049  C     0.86370   0.49775   0.54828   0.00000  Uiso   1.00
C1050  C     0.73356   0.46438   0.96912   0.00000  Uiso   1.00
C1051  C     0.92190   0.53131   0.53102   0.00000  Uiso   1.00
C1052  C     0.83306   0.51136   0.98140   0.00000  Uiso   1.00
C1053  C     0.82091   0.48355   0.52114   0.00000  Uiso   1.00
C1054  C     0.67889   0.52040   0.61389   0.00000  Uiso   1.00
C1055  C     0.70176   0.57451   0.63002   0.00000  Uiso   1.00
C1056  C     0.99044   0.49750   0.88456   0.00000  Uiso   1.00
C1057  C     0.67404   0.55721   0.87786   0.00000  Uiso   1.00
C1058  C     0.85803   0.33931   0.80694   0.00000  Uiso   1.00
C1059  C     0.76740   0.44243   0.53111   0.00000  Uiso   1.00
C1060  C     0.92781   0.35412   0.80494   0.00000  Uiso   1.00
C1061  C     0.79611   0.65927   0.69965   0.00000  Uiso   1.00
C1062  C     0.72430   0.64690   0.71140   0.00000  Uiso   1.00
C1063  C     0.88385   0.55427   0.97194   0.00000  Uiso   1.00
C1064  C     0.72161   0.43690   0.50787   0.00000  Uiso   1.00
C1065  C     0.93029   0.56085   0.99409   0.00000  Uiso   1.00
C1066  C     0.84558   0.65343   0.76299   0.00000  Uiso   1.00
C1067  C     0.81940   0.34655   0.73949   0.00000  Uiso   1.00
C1068  C     0.79461   0.49760   0.83329   0.00000  Uiso   1.00
Cu1069 Cu    0.77404   0.49441   0.74517   0.00000  Uiso   1.00
Cu1070 Cu    0.89263   0.50559   0.75484   0.00000  Uiso   1.00
F1071  F     0.78905   0.46458   0.61434   0.00000  Uiso   1.00
F1072  F     0.87185   0.52811   0.88890   0.00000  Uiso   1.00
F1073  F     0.96109   0.43702   0.96350   0.00000  Uiso   1.00
F1074  F     0.69516   0.56303   0.53218   0.00000  Uiso   1.00
F1075  F     0.76022   0.40522   0.56109   0.00000  Uiso   1.00
F1076  F     0.88684   0.59228   0.94360   0.00000  Uiso   1.00
F1077  F     0.67539   0.55194   0.78483   0.00000  Uiso   1.00
F1078  F     0.99193   0.44920   0.71379   0.00000  Uiso   1.00
H1079  H     0.67872   0.40815   0.51847   0.00000  Uiso   1.00
H1080  H     0.97323   0.57146   0.86438   0.00000  Uiso   1.00
H1081  H     0.98562   0.47655   0.85394   0.00000  Uiso   1.00
H1082  H     0.94397   0.48731   0.90796   0.00000  Uiso   1.00
H1083  H     0.94835   0.65191   0.80140   0.00000  Uiso   1.00
H1084  H     0.95285   0.38103   0.77739   0.00000  Uiso   1.00
H1085  H     0.93433   0.37395   0.83576   0.00000  Uiso   1.00
H1086  H     0.83551   0.37283   0.82002   0.00000  Uiso   1.00
H1087  H     0.83602   0.64122   0.83160   0.00000  Uiso   1.00
H1088  H     0.70723   0.66139   0.68539   0.00000  Uiso   1.00
H1089  H     0.70351   0.66567   0.74225   0.00000  Uiso   1.00
H1090  H     0.97095   0.59198   0.98427   0.00000  Uiso   1.00
H1091  H     0.70683   0.60435   0.71564   0.00000  Uiso   1.00
H1092  H     0.81324   0.35654   0.67392   0.00000  Uiso   1.00
H1093  H     0.81551   0.62520   0.68408   0.00000  Uiso   1.00
H1094  H     0.99598   0.58716   0.65456   0.00000  Uiso   1.00
H1095  H     0.74129   0.57320   0.64448   0.00000  Uiso   1.00
H1096  H     0.71889   0.60303   0.60281   0.00000  Uiso   1.00
H1097  H     0.66840   0.49089   0.63980   0.00000  Uiso   1.00
H1098  H     0.71779   0.50962   0.58815   0.00000  Uiso   1.00
H1099  H     0.72041   0.56963   0.85469   0.00000  Uiso   1.00
H1100  H     0.67600   0.57749   0.90918   0.00000  Uiso   1.00
N1101  N     0.98173   0.51401   0.76212   0.00000  Uiso   1.00
N1102  N     0.68494   0.48599   0.73788   0.00000  Uiso   1.00
O1103  O     0.79482   0.57142   0.74686   0.00000  Uiso   1.00
O1104  O     0.87185   0.42858   0.75314   0.00000  Uiso   1.00
O1105  O     0.89496   0.58086   0.75503   0.00000  Uiso   1.00
O1106  O     0.77171   0.41914   0.74498   0.00000  Uiso   1.00
O1107  O     0.75518   0.49263   0.80855   0.00000  Uiso   1.00
O1108  O     0.91149   0.50737   0.69146   0.00000  Uiso   1.00
O1109  O     0.85532   0.50207   0.81671   0.00000  Uiso   1.00
O1110  O     0.81134   0.49793   0.68329   0.00000  Uiso   1.00
C1111  C     0.17972   0.93275   0.75308   0.00000  Uiso   1.00
C1112  C     0.20497   0.83413   0.66663   0.00000  Uiso   1.00
C1113  C     0.10329   0.82831   0.88171   0.00000  Uiso   1.00
C1114  C     0.22732   0.83355   0.61786   0.00000  Uiso   1.00
C1115  C     0.02166   0.79305   0.94513   0.00000  Uiso   1.00
C1116  C     0.30298   0.87122   0.55255   0.00000  Uiso   1.00
C1117  C     0.03891   0.81399   0.90271   0.00000  Uiso   1.00
C1118  C     0.29047   0.85257   0.59507   0.00000  Uiso   1.00
C1119  C     0.14519   0.84100   0.90812   0.00000  Uiso   1.00
C1120  C     0.18222   0.81864   0.59314   0.00000  Uiso   1.00
C1121  C     0.12621   0.82972   0.95309   0.00000  Uiso   1.00
C1122  C     0.15299   0.73396   0.74819   0.00000  Uiso   1.00
C1123  C     0.19703   0.83108   0.54828   0.00000  Uiso   1.00
C1124  C     0.06690   0.79771   0.96912   0.00000  Uiso   1.00
C1125  C     0.25524   0.86465   0.53102   0.00000  Uiso   1.00
C1126  C     0.16639   0.84470   0.98140   0.00000  Uiso   1.00
C1127  C     0.15424   0.81688   0.52114   0.00000  Uiso   1.00
C1128  C     0.01222   0.85373   0.61389   0.00000  Uiso   1.00
C1129  C     0.03509   0.90785   0.63002   0.00000  Uiso   1.00
C1130  C     0.32377   0.83084   0.88456   0.00000  Uiso   1.00
C1131  C     0.00737   0.89054   0.87786   0.00000  Uiso   1.00
C1132  C     0.19136   0.67265   0.80694   0.00000  Uiso   1.00
C1133  C     0.10073   0.77576   0.53111   0.00000  Uiso   1.00
C1134  C     0.26114   0.68745   0.80494   0.00000  Uiso   1.00
C1135  C     0.12944   0.99261   0.69965   0.00000  Uiso   1.00
C1136  C     0.05763   0.98023   0.71140   0.00000  Uiso   1.00
C1137  C     0.21718   0.88760   0.97194   0.00000  Uiso   1.00
C1138  C     0.05495   0.77023   0.50787   0.00000  Uiso   1.00
C1139  C     0.26362   0.89418   0.99409   0.00000  Uiso   1.00
C1140  C     0.17891   0.98676   0.76299   0.00000  Uiso   1.00
C1141  C     0.15273   0.67988   0.73949   0.00000  Uiso   1.00
C1142  C     0.12795   0.83093   0.83329   0.00000  Uiso   1.00
Cu1143 Cu    0.10737   0.82775   0.74517   0.00000  Uiso   1.00
Cu1144 Cu    0.22596   0.83892   0.75484   0.00000  Uiso   1.00
F1145  F     0.12238   0.79791   0.61434   0.00000  Uiso   1.00
F1146  F     0.20519   0.86145   0.88890   0.00000  Uiso   1.00
F1147  F     0.29442   0.77035   0.96350   0.00000  Uiso   1.00
F1148  F     0.02849   0.89637   0.53218   0.00000  Uiso   1.00
F1149  F     0.09355   0.73855   0.56109   0.00000  Uiso   1.00
F1150  F     0.22017   0.92561   0.94360   0.00000  Uiso   1.00
F1151  F     0.00873   0.88527   0.78483   0.00000  Uiso   1.00
F1152  F     0.32527   0.78254   0.71379   0.00000  Uiso   1.00
H1153  H     0.01205   0.74148   0.51847   0.00000  Uiso   1.00
H1154  H     0.30657   0.90480   0.86438   0.00000  Uiso   1.00
H1155  H     0.31896   0.80989   0.85394   0.00000  Uiso   1.00
H1156  H     0.27730   0.82065   0.90796   0.00000  Uiso   1.00
H1157  H     0.28169   0.98525   0.80140   0.00000  Uiso   1.00
H1158  H     0.28618   0.71436   0.77739   0.00000  Uiso   1.00
H1159  H     0.26767   0.70728   0.83576   0.00000  Uiso   1.00
H1160  H     0.16884   0.70616   0.82002   0.00000  Uiso   1.00
H1161  H     0.16936   0.97455   0.83160   0.00000  Uiso   1.00
H1162  H     0.04056   0.99472   0.68539   0.00000  Uiso   1.00
H1163  H     0.03684   0.99900   0.74225   0.00000  Uiso   1.00
H1164  H     0.30428   0.92532   0.98427   0.00000  Uiso   1.00
H1165  H     0.04016   0.93768   0.71564   0.00000  Uiso   1.00
H1166  H     0.14657   0.68987   0.67392   0.00000  Uiso   1.00
H1167  H     0.14884   0.95853   0.68408   0.00000  Uiso   1.00
H1168  H     0.32931   0.92049   0.65456   0.00000  Uiso   1.00
H1169  H     0.07462   0.90654   0.64448   0.00000  Uiso   1.00
H1170  H     0.05222   0.93636   0.60281   0.00000  Uiso   1.00
H1171  H     0.00174   0.82422   0.63980   0.00000  Uiso   1.00
H1172  H     0.05113   0.84296   0.58815   0.00000  Uiso   1.00
H1173  H     0.05374   0.90296   0.85469   0.00000  Uiso   1.00
H1174  H     0.00934   0.91082   0.90918   0.00000  Uiso   1.00
N1175  N     0.31506   0.84735   0.76212   0.00000  Uiso   1.00
N1176  N     0.01827   0.81932   0.73788   0.00000  Uiso   1.00
O1177  O     0.12815   0.90476   0.74686   0.00000  Uiso   1.00
O1178  O     0.20518   0.76191   0.75314   0.00000  Uiso   1.00
O1179  O     0.22829   0.91420   0.75503   0.00000  Uiso   1.00
O1180  O     0.10504   0.75247   0.74498   0.00000  Uiso   1.00
O1181  O     0.08851   0.82597   0.80855   0.00000  Uiso   1.00
O1182  O     0.24482   0.84070   0.69146   0.00000  Uiso   1.00
O1183  O     0.18866   0.83540   0.81671   0.00000  Uiso   1.00
O1184  O     0.14468   0.83126   0.68329   0.00000  Uiso   1.00
C1185  C     0.51305   0.93275   0.75308   0.00000  Uiso   1.00
C1186  C     0.53830   0.83413   0.66663   0.00000  Uiso   1.00
C1187  C     0.43663   0.82831   0.88171   0.00000  Uiso   1.00
C1188  C     0.56065   0.83355   0.61786   0.00000  Uiso   1.00
C1189  C     0.35500   0.79305   0.94513   0.00000  Uiso   1.00
C1190  C     0.63631   0.87122   0.55255   0.00000  Uiso   1.00
C1191  C     0.37225   0.81399   0.90271   0.00000  Uiso   1.00
C1192  C     0.62381   0.85257   0.59507   0.00000  Uiso   1.00
C1193  C     0.47852   0.84100   0.90812   0.00000  Uiso   1.00
C1194  C     0.51556   0.81864   0.59314   0.00000  Uiso   1.00
C1195  C     0.45954   0.82972   0.95309   0.00000  Uiso   1.00
C1196  C     0.48632   0.73396   0.74819   0.00000  Uiso   1.00
C1197  C     0.53036   0.83108   0.54828   0.00000  Uiso   1.00
C1198  C     0.40023   0.79771   0.96912   0.00000  Uiso   1.00
C1199  C     0.58857   0.86465   0.53102   0.00000  Uiso   1.00
C1200  C     0.49972   0.84470   0.98140   0.00000  Uiso   1.00
C1201  C     0.48758   0.81688   0.52114   0.00000  Uiso   1.00
C1202  C     0.34555   0.85373   0.61389   0.00000  Uiso   1.00
C1203  C     0.36843   0.90785   0.63002   0.00000  Uiso   1.00
C1204  C     0.65710   0.83084   0.88456   0.00000  Uiso   1.00
C1205  C     0.34070   0.89054   0.87786   0.00000  Uiso   1.00
C1206  C     0.52469   0.67265   0.80694   0.00000  Uiso   1.00
C1207  C     0.43407   0.77576   0.53111   0.00000  Uiso   1.00
C1208  C     0.59447   0.68745   0.80494   0.00000  Uiso   1.00
C1209  C     0.46277   0.99261   0.69965   0.00000  Uiso   1.00
C1210  C     0.39096   0.98023   0.71140   0.00000  Uiso   1.00
C1211  C     0.55052   0.88760   0.97194   0.00000  Uiso   1.00
C1212  C     0.38828   0.77023   0.50787   0.00000  Uiso   1.00
C1213  C     0.59696   0.89418   0.99409   0.00000  Uiso   1.00
C1214  C     0.51225   0.98676   0.76299   0.00000  Uiso   1.00
C1215  C     0.48606   0.67988   0.73949   0.00000  Uiso   1.00
C1216  C     0.46128   0.83093   0.83329   0.00000  Uiso   1.00
Cu1217 Cu    0.44071   0.82775   0.74517   0.00000  Uiso   1.00
Cu1218 Cu    0.55929   0.83892   0.75484   0.00000  Uiso   1.00
F1219  F     0.45572   0.79791   0.61434   0.00000  Uiso   1.00
F1220  F     0.53852   0.86145   0.88890   0.00000  Uiso   1.00
F1221  F     0.62775   0.77035   0.96350   0.00000  Uiso   1.00
F1222  F     0.36182   0.89637   0.53218   0.00000  Uiso   1.00
F1223  F     0.42688   0.73855   0.56109   0.00000  Uiso   1.00
F1224  F     0.55350   0.92561   0.94360   0.00000  Uiso   1.00
F1225  F     0.34206   0.88527   0.78483   0.00000  Uiso   1.00
F1226  F     0.65860   0.78254   0.71379   0.00000  Uiso   1.00
H1227  H     0.34538   0.74148   0.51847   0.00000  Uiso   1.00
H1228  H     0.63990   0.90480   0.86438   0.00000  Uiso   1.00
H1229  H     0.65229   0.80989   0.85394   0.00000  Uiso   1.00
H1230  H     0.61064   0.82065   0.90796   0.00000  Uiso   1.00
H1231  H     0.61502   0.98525   0.80140   0.00000  Uiso   1.00
H1232  H     0.61951   0.71436   0.77739   0.00000  Uiso   1.00
H1233  H     0.60100   0.70728   0.83576   0.00000  Uiso   1.00
H1234  H     0.50218   0.70616   0.82002   0.00000  Uiso   1.00
H1235  H     0.50269   0.97455   0.83160   0.00000  Uiso   1.00
H1236  H     0.37390   0.99472   0.68539   0.00000  Uiso   1.00
H1237  H     0.37018   0.99900   0.74225   0.00000  Uiso   1.00
H1238  H     0.63762   0.92532   0.98427   0.00000  Uiso   1.00
H1239  H     0.37350   0.93768   0.71564   0.00000  Uiso   1.00
H1240  H     0.47990   0.68987   0.67392   0.00000  Uiso   1.00
H1241  H     0.48217   0.95853   0.68408   0.00000  Uiso   1.00
H1242  H     0.66265   0.92049   0.65456   0.00000  Uiso   1.00
H1243  H     0.40795   0.90654   0.64448   0.00000  Uiso   1.00
H1244  H     0.38555   0.93636   0.60281   0.00000  Uiso   1.00
H1245  H     0.33507   0.82422   0.63980   0.00000  Uiso   1.00
H1246  H     0.38446   0.84296   0.58815   0.00000  Uiso   1.00
H1247  H     0.38707   0.90296   0.85469   0.00000  Uiso   1.00
H1248  H     0.34267   0.91082   0.90918   0.00000  Uiso   1.00
N1249  N     0.64839   0.84735   0.76212   0.00000  Uiso   1.00
N1250  N     0.35161   0.81932   0.73788   0.00000  Uiso   1.00
O1251  O     0.46148   0.90476   0.74686   0.00000  Uiso   1.00
O1252  O     0.53852   0.76191   0.75314   0.00000  Uiso   1.00
O1253  O     0.56163   0.91420   0.75503   0.00000  Uiso   1.00
O1254  O     0.43837   0.75247   0.74498   0.00000  Uiso   1.00
O1255  O     0.42185   0.82597   0.80855   0.00000  Uiso   1.00
O1256  O     0.57815   0.84070   0.69146   0.00000  Uiso   1.00
O1257  O     0.52199   0.83540   0.81671   0.00000  Uiso   1.00
O1258  O     0.47801   0.83126   0.68329   0.00000  Uiso   1.00
C1259  C     0.84639   0.93275   0.75308   0.00000  Uiso   1.00
C1260  C     0.87163   0.83413   0.66663   0.00000  Uiso   1.00
C1261  C     0.76996   0.82831   0.88171   0.00000  Uiso   1.00
C1262  C     0.89398   0.83355   0.61786   0.00000  Uiso   1.00
C1263  C     0.68833   0.79305   0.94513   0.00000  Uiso   1.00
C1264  C     0.96965   0.87122   0.55255   0.00000  Uiso   1.00
C1265  C     0.70558   0.81399   0.90271   0.00000  Uiso   1.00
C1266  C     0.95714   0.85257   0.59507   0.00000  Uiso   1.00
C1267  C     0.81186   0.84100   0.90812   0.00000  Uiso   1.00
C1268  C     0.84889   0.81864   0.59314   0.00000  Uiso   1.00
C1269  C     0.79288   0.82972   0.95309   0.00000  Uiso   1.00
C1270  C     0.81966   0.73396   0.74819   0.00000  Uiso   1.00
C1271  C     0.86370   0.83108   0.54828   0.00000  Uiso   1.00
C1272  C     0.73356   0.79771   0.96912   0.00000  Uiso   1.00
C1273  C     0.92190   0.86465   0.53102   0.00000  Uiso   1.00
C1274  C     0.83306   0.84470   0.98140   0.00000  Uiso   1.00
C1275  C     0.82091   0.81688   0.52114   0.00000  Uiso   1.00
C1276  C     0.67889   0.85373   0.61389   0.00000  Uiso   1.00
C1277  C     0.70176   0.90785   0.63002   0.00000  Uiso   1.00
C1278  C     0.99044   0.83084   0.88456   0.00000  Uiso   1.00
C1279  C     0.67404   0.89054   0.87786   0.00000  Uiso   1.00
C1280  C     0.85803   0.67265   0.80694   0.00000  Uiso   1.00
C1281  C     0.76740   0.77576   0.53111   0.00000  Uiso   1.00
C1282  C     0.92781   0.68745   0.80494   0.00000  Uiso   1.00
C1283  C     0.79611   0.99261   0.69965   0.00000  Uiso   1.00
C1284  C     0.72430   0.98023   0.71140   0.00000  Uiso   1.00
C1285  C     0.88385   0.88760   0.97194   0.00000  Uiso   1.00
C1286  C     0.72161   0.77023   0.50787   0.00000  Uiso   1.00
C1287  C     0.93029   0.89418   0.99409   0.00000  Uiso   1.00
C1288  C     0.84558   0.98676   0.76299   0.00000  Uiso   1.00
C1289  C     0.81940   0.67988   0.73949   0.00000  Uiso   1.00
C1290  C     0.79461   0.83093   0.83329   0.00000  Uiso   1.00
Cu1291 Cu    0.77404   0.82775   0.74517   0.00000  Uiso   1.00
Cu1292 Cu    0.89263   0.83892   0.75484   0.00000  Uiso   1.00
F1293  F     0.78905   0.79791   0.61434   0.00000  Uiso   1.00
F1294  F     0.87185   0.86145   0.88890   0.00000  Uiso   1.00
F1295  F     0.96109   0.77035   0.96350   0.00000  Uiso   1.00
F1296  F     0.69516   0.89637   0.53218   0.00000  Uiso   1.00
F1297  F     0.76022   0.73855   0.56109   0.00000  Uiso   1.00
F1298  F     0.88684   0.92561   0.94360   0.00000  Uiso   1.00
F1299  F     0.67539   0.88527   0.78483   0.00000  Uiso   1.00
F1300  F     0.99193   0.78254   0.71379   0.00000  Uiso   1.00
H1301  H     0.67872   0.74148   0.51847   0.00000  Uiso   1.00
H1302  H     0.97323   0.90480   0.86438   0.00000  Uiso   1.00
H1303  H     0.98562   0.80989   0.85394   0.00000  Uiso   1.00
H1304  H     0.94397   0.82065   0.90796   0.00000  Uiso   1.00
H1305  H     0.94835   0.98525   0.80140   0.00000  Uiso   1.00
H1306  H     0.95285   0.71436   0.77739   0.00000  Uiso   1.00
H1307  H     0.93433   0.70728   0.83576   0.00000  Uiso   1.00
H1308  H     0.83551   0.70616   0.82002   0.00000  Uiso   1.00
H1309  H     0.83602   0.97455   0.83160   0.00000  Uiso   1.00
H1310  H     0.70723   0.99472   0.68539   0.00000  Uiso   1.00
H1311  H     0.70351   0.99900   0.74225   0.00000  Uiso   1.00
H1312  H     0.97095   0.92532   0.98427   0.00000  Uiso   1.00
H1313  H     0.70683   0.93768   0.71564   0.00000  Uiso   1.00
H1314  H     0.81324   0.68987   0.67392   0.00000  Uiso   1.00
H1315  H     0.81551   0.95853   0.68408   0.00000  Uiso   1.00
H1316  H     0.99598   0.92049   0.65456   0.00000  Uiso   1.00
H1317  H     0.74129   0.90654   0.64448   0.00000  Uiso   1.00
H1318  H     0.71889   0.93636   0.60281   0.00000  Uiso   1.00
H1319  H     0.66840   0.82422   0.63980   0.00000  Uiso   1.00
H1320  H     0.71779   0.84296   0.58815   0.00000  Uiso   1.00
H1321  H     0.72041   0.90296   0.85469   0.00000  Uiso   1.00
H1322  H     0.67600   0.91082   0.90918   0.00000  Uiso   1.00
N1323  N     0.98173   0.84735   0.76212   0.00000  Uiso   1.00
N1324  N     0.68494   0.81932   0.73788   0.00000  Uiso   1.00
O1325  O     0.79482   0.90476   0.74686   0.00000  Uiso   1.00
O1326  O     0.87185   0.76191   0.75314   0.00000  Uiso   1.00
O1327  O     0.89496   0.91420   0.75503   0.00000  Uiso   1.00
O1328  O     0.77171   0.75247   0.74498   0.00000  Uiso   1.00
O1329  O     0.75518   0.82597   0.80855   0.00000  Uiso   1.00
O1330  O     0.91149   0.84070   0.69146   0.00000  Uiso   1.00
O1331  O     0.85532   0.83540   0.81671   0.00000  Uiso   1.00
O1332  O     0.81134   0.83126   0.68329   0.00000  Uiso   1.00
loop_
_geom_bond_atom_site_label_1
_geom_bond_atom_site_label_2
_geom_bond_distance
_geom_bond_site_symmetry_2
_ccdc_geom_bond_type
C1     C30     1.434   .     S
C1     O67     1.295   .     A
C1     O69     1.301   .     A
C2     C4      1.498   .     S
C2     O74     1.312   .     A
C2     O72     1.320   .     A
C3     C9      1.397   .     A
C3     C7      1.411   .     A
C3     C32     1.493   .     S
C4     C10     1.419   .     A
C4     C8      1.418   .     A
C5     C14     1.404   .     A
C5     C7      1.409   .     A
C5     F185    1.360   1_455 S
C6     C8      1.399   .     A
C6     C15     1.394   .     A
C6     F112    1.361   .     S
C7     C168    1.506   1_455 S
C8     C92     1.504   .     S
C9     F36     1.341   .     S
C9     C11     1.409   .     A
C10    F35     1.354   .     S
C10    C13     1.416   .     A
C11    C16     1.419   .     A
C11    C14     1.408   .     A
C12    O68     1.292   .     A
C12    C31     1.426   .     S
C12    O70     1.299   .     A
C13    C17     1.433   .     A
C13    C15     1.414   .     A
C14    C694    1.396   .     S
C15    C695    1.390   1_554 S
C16    C27     1.411   .     A
C16    C683    1.427   .     S
C17    C23     1.421   .     A
C17    C682    1.427   1_554 S
C18    H61     1.106   .     S
C18    C19     1.513   .     S
C18    H62     1.105   .     S
C18    C156    1.504   1_455 S
C19    H60     1.110   .     S
C19    H59     1.109   .     S
C19    H206    1.108   1_455 S
C20    H45     1.108   .     S
C20    H46     1.106   .     S
C20    C81     1.506   .     S
C20    C95     1.543   .     S
C21    H63     1.108   .     S
C21    H64     1.107   .     S
C21    C168    1.543   1_455 S
C21    H192    1.104   1_455 S
C22    H50     1.110   .     S
C22    C24     1.525   .     S
C22    C474    1.530   1_545 S
C22    H495    1.113   1_545 S
C23    C28     1.396   .     A
C23    F39     1.356   .     S
C24    H48     1.108   .     S
C24    H49     1.111   .     S
C24    H491    1.109   1_545 S
C25    C26     1.532   .     S
C25    H57     1.109   .     S
C25    C253    1.521   .     S
C25    H278    1.114   .     S
C26    H55     1.106   .     S
C26    H53     1.106   .     S
C26    H52     1.109   .     S
C27    C29     1.382   .     A
C27    F40     1.358   .     S
C28    H43     1.084   .     S
C28    C680    1.396   1_554 S
C29    H54     1.083   .     S
C29    C681    1.390   .     S
C30    C244    1.530   .     S
C30    C253    1.355   .     S
C31    C474    1.355   1_545 S
C31    C469    1.521   1_545 S
C32    O71     1.313   .     A
C32    O73     1.315   .     A
Cu33   Cu34    2.721   .     S
Cu33   O70     1.960   .     S
Cu33   N66     2.045   .     S
Cu33   O71     1.946   .     S
Cu33   O74     1.925   .     S
Cu33   O67     1.974   .     S
Cu34   O69     1.960   .     S
Cu34   N65     2.045   .     S
Cu34   O73     1.925   .     S
Cu34   O72     1.946   .     S
Cu34   O68     1.974   .     S
F37    C79     1.360   .     S
F38    C154    1.361   1_455 S
F41    N213    1.332   1_455 S
F42    N140    1.334   .     S
H44    C95     1.104   .     S
H47    C246    1.109   .     S
H51    C244    1.113   .     S
H56    C469    1.114   1_545 S
H58    C93     1.108   .     S
N65    F115    1.332   .     S
N65    N140    1.290   .     S
N66    F190    1.334   1_455 S
N66    N213    1.290   1_455 S
C75    C104    1.434   .     S
C75    O141    1.295   .     A
C75    O143    1.301   .     A
C76    C78     1.498   .     S
C76    O148    1.312   .     A
C76    O146    1.320   .     A
C77    C83     1.397   .     A
C77    C81     1.411   .     A
C77    C106    1.493   .     S
C78    C84     1.419   .     A
C78    C82     1.418   .     A
C79    C88     1.404   .     A
C79    C81     1.409   .     A
C80    C82     1.399   .     A
C80    C89     1.394   .     A
C80    F186    1.361   .     S
C82    C166    1.504   .     S
C83    F110    1.341   .     S
C83    C85     1.409   .     A
C84    F109    1.354   .     S
C84    C87     1.416   .     A
C85    C90     1.419   .     A
C85    C88     1.408   .     A
C86    O142    1.292   .     A
C86    C105    1.426   .     S
C86    O144    1.299   .     A
C87    C91     1.433   .     A
C87    C89     1.414   .     A
C88    C768    1.396   .     S
C89    C769    1.390   1_554 S
C90    C101    1.411   .     A
C90    C757    1.427   .     S
C91    C97     1.421   .     A
C91    C756    1.427   1_554 S
C92    H135    1.106   .     S
C92    C93     1.513   .     S
C92    H136    1.105   .     S
C93    H134    1.110   .     S
C93    H133    1.109   .     S
C94    H119    1.108   .     S
C94    H120    1.106   .     S
C94    C155    1.506   .     S
C94    C169    1.543   .     S
C95    H137    1.108   .     S
C95    H138    1.107   .     S
C96    H124    1.110   .     S
C96    C98     1.525   .     S
C96    C548    1.530   1_545 S
C96    H569    1.113   1_545 S
C97    C102    1.396   .     A
C97    F113    1.356   .     S
C98    H122    1.108   .     S
C98    H123    1.111   .     S
C98    H565    1.109   1_545 S
C99    C100    1.532   .     S
C99    H131    1.109   .     S
C99    C327    1.521   .     S
C99    H352    1.114   .     S
C100   H129    1.106   .     S
C100   H127    1.106   .     S
C100   H126    1.109   .     S
C101   C103    1.382   .     A
C101   F114    1.358   .     S
C102   H117    1.084   .     S
C102   C754    1.396   1_554 S
C103   H128    1.083   .     S
C103   C755    1.390   .     S
C104   C318    1.530   .     S
C104   C327    1.355   .     S
C105   C548    1.355   1_545 S
C105   C543    1.521   1_545 S
C106   O145    1.313   .     A
C106   O147    1.315   .     A
Cu107  Cu108   2.721   .     S
Cu107  O144    1.960   .     S
Cu107  N140    2.045   .     S
Cu107  O145    1.946   .     S
Cu107  O148    1.925   .     S
Cu107  O141    1.974   .     S
Cu108  O143    1.960   .     S
Cu108  N139    2.045   .     S
Cu108  O147    1.925   .     S
Cu108  O146    1.946   .     S
Cu108  O142    1.974   .     S
F111   C153    1.360   .     S
F116   N214    1.334   .     S
H118   C169    1.104   .     S
H121   C320    1.109   .     S
H125   C318    1.113   .     S
H130   C543    1.114   1_545 S
H132   C167    1.108   .     S
N139   F189    1.332   .     S
N139   N214    1.290   .     S
C149   C178    1.434   .     S
C149   O215    1.295   .     A
C149   O217    1.301   .     A
C150   C152    1.498   .     S
C150   O222    1.312   .     A
C150   O220    1.320   .     A
C151   C157    1.397   .     A
C151   C155    1.411   .     A
C151   C180    1.493   .     S
C152   C158    1.419   .     A
C152   C156    1.418   .     A
C153   C162    1.404   .     A
C153   C155    1.409   .     A
C154   C156    1.399   .     A
C154   C163    1.394   .     A
C154   F38     1.361   1_655 S
C156   C18     1.504   1_655 S
C157   F184    1.341   .     S
C157   C159    1.409   .     A
C158   F183    1.354   .     S
C158   C161    1.416   .     A
C159   C164    1.419   .     A
C159   C162    1.408   .     A
C160   O216    1.292   .     A
C160   C179    1.426   .     S
C160   O218    1.299   .     A
C161   C165    1.433   .     A
C161   C163    1.414   .     A
C162   C842    1.396   .     S
C163   C843    1.390   1_554 S
C164   C175    1.411   .     A
C164   C831    1.427   .     S
C165   C171    1.421   .     A
C165   C830    1.427   1_554 S
C166   H209    1.106   .     S
C166   C167    1.513   .     S
C166   H210    1.105   .     S
C167   H208    1.110   .     S
C167   H207    1.109   .     S
C168   H193    1.108   .     S
C168   H194    1.106   .     S
C168   C7      1.506   1_655 S
C168   C21     1.543   1_655 S
C169   H211    1.108   .     S
C169   H212    1.107   .     S
C170   H198    1.110   .     S
C170   C172    1.525   .     S
C170   C622    1.530   1_545 S
C170   H643    1.113   1_545 S
C171   C176    1.396   .     A
C171   F187    1.356   .     S
C172   H196    1.108   .     S
C172   H197    1.111   .     S
C172   H639    1.109   1_545 S
C173   C174    1.532   .     S
C173   H205    1.109   .     S
C173   C401    1.521   .     S
C173   H426    1.114   .     S
C174   H203    1.106   .     S
C174   H201    1.106   .     S
C174   H200    1.109   .     S
C175   C177    1.382   .     A
C175   F188    1.358   .     S
C176   H191    1.084   .     S
C176   C828    1.396   1_554 S
C177   H202    1.083   .     S
C177   C829    1.390   .     S
C178   C392    1.530   .     S
C178   C401    1.355   .     S
C179   C622    1.355   1_545 S
C179   C617    1.521   1_545 S
C180   O219    1.313   .     A
C180   O221    1.315   .     A
Cu181  Cu182   2.721   .     S
Cu181  O218    1.960   .     S
Cu181  N214    2.045   .     S
Cu181  O219    1.946   .     S
Cu181  O222    1.925   .     S
Cu181  O215    1.974   .     S
Cu182  O217    1.960   .     S
Cu182  N213    2.045   .     S
Cu182  O221    1.925   .     S
Cu182  O220    1.946   .     S
Cu182  O216    1.974   .     S
F185   C5      1.360   1_655 S
F190   N66     1.334   1_655 S
H192   C21     1.104   1_655 S
H195   C394    1.109   .     S
H199   C392    1.113   .     S
H204   C617    1.114   1_545 S
H206   C19     1.108   1_655 S
N213   F41     1.332   1_655 S
N213   N66     1.290   1_655 S
C223   C252    1.434   .     S
C223   O289    1.295   .     A
C223   O291    1.301   .     A
C224   C226    1.498   .     S
C224   O296    1.312   .     A
C224   O294    1.320   .     A
C225   C231    1.397   .     A
C225   C229    1.411   .     A
C225   C254    1.493   .     S
C226   C232    1.419   .     A
C226   C230    1.418   .     A
C227   C236    1.404   .     A
C227   C229    1.409   .     A
C227   F407    1.360   1_455 S
C228   C230    1.399   .     A
C228   C237    1.394   .     A
C228   F334    1.361   .     S
C229   C390    1.506   1_455 S
C230   C314    1.504   .     S
C231   F258    1.341   .     S
C231   C233    1.409   .     A
C232   F257    1.354   .     S
C232   C235    1.416   .     A
C233   C238    1.419   .     A
C233   C236    1.408   .     A
C234   O290    1.292   .     A
C234   C253    1.426   .     S
C234   O292    1.299   .     A
C235   C239    1.433   .     A
C235   C237    1.414   .     A
C236   C916    1.396   .     S
C237   C917    1.390   1_554 S
C238   C249    1.411   .     A
C238   C905    1.427   .     S
C239   C245    1.421   .     A
C239   C904    1.427   1_554 S
C240   H283    1.106   .     S
C240   C241    1.513   .     S
C240   H284    1.105   .     S
C240   C378    1.504   1_455 S
C241   H282    1.110   .     S
C241   H281    1.109   .     S
C241   H428    1.108   1_455 S
C242   H267    1.108   .     S
C242   H268    1.106   .     S
C242   C303    1.506   .     S
C242   C317    1.543   .     S
C243   H285    1.108   .     S
C243   H286    1.107   .     S
C243   C390    1.543   1_455 S
C243   H414    1.104   1_455 S
C244   H272    1.110   .     S
C244   C246    1.525   .     S
C245   C250    1.396   .     A
C245   F261    1.356   .     S
C246   H270    1.108   .     S
C246   H271    1.111   .     S
C247   C248    1.532   .     S
C247   H279    1.109   .     S
C247   C475    1.521   .     S
C247   H500    1.114   .     S
C248   H277    1.106   .     S
C248   H275    1.106   .     S
C248   H274    1.109   .     S
C249   C251    1.382   .     A
C249   F262    1.358   .     S
C250   H265    1.084   .     S
C250   C902    1.396   1_554 S
C251   H276    1.083   .     S
C251   C903    1.390   .     S
C252   C466    1.530   .     S
C252   C475    1.355   .     S
C254   O293    1.313   .     A
C254   O295    1.315   .     A
Cu255  Cu256   2.721   .     S
Cu255  O292    1.960   .     S
Cu255  N288    2.045   .     S
Cu255  O293    1.946   .     S
Cu255  O296    1.925   .     S
Cu255  O289    1.974   .     S
Cu256  O291    1.960   .     S
Cu256  N287    2.045   .     S
Cu256  O295    1.925   .     S
Cu256  O294    1.946   .     S
Cu256  O290    1.974   .     S
F259   C301    1.360   .     S
F260   C376    1.361   1_455 S
F263   N435    1.332   1_455 S
F264   N362    1.334   .     S
H266   C317    1.104   .     S
H269   C468    1.109   .     S
H273   C466    1.113   .     S
H280   C315    1.108   .     S
N287   F337    1.332   .     S
N287   N362    1.290   .     S
N288   F412    1.334   1_455 S
N288   N435    1.290   1_455 S
C297   C326    1.434   .     S
C297   O363    1.295   .     A
C297   O365    1.301   .     A
C298   C300    1.498   .     S
C298   O370    1.312   .     A
C298   O368    1.320   .     A
C299   C305    1.397   .     A
C299   C303    1.411   .     A
C299   C328    1.493   .     S
C300   C306    1.419   .     A
C300   C304    1.418   .     A
C301   C310    1.404   .     A
C301   C303    1.409   .     A
C302   C304    1.399   .     A
C302   C311    1.394   .     A
C302   F408    1.361   .     S
C304   C388    1.504   .     S
C305   F332    1.341   .     S
C305   C307    1.409   .     A
C306   F331    1.354   .     S
C306   C309    1.416   .     A
C307   C312    1.419   .     A
C307   C310    1.408   .     A
C308   O364    1.292   .     A
C308   C327    1.426   .     S
C308   O366    1.299   .     A
C309   C313    1.433   .     A
C309   C311    1.414   .     A
C310   C990    1.396   .     S
C311   C991    1.390   1_554 S
C312   C323    1.411   .     A
C312   C979    1.427   .     S
C313   C319    1.421   .     A
C313   C978    1.427   1_554 S
C314   H357    1.106   .     S
C314   C315    1.513   .     S
C314   H358    1.105   .     S
C315   H356    1.110   .     S
C315   H355    1.109   .     S
C316   H341    1.108   .     S
C316   H342    1.106   .     S
C316   C377    1.506   .     S
C316   C391    1.543   .     S
C317   H359    1.108   .     S
C317   H360    1.107   .     S
C318   H346    1.110   .     S
C318   C320    1.525   .     S
C319   C324    1.396   .     A
C319   F335    1.356   .     S
C320   H344    1.108   .     S
C320   H345    1.111   .     S
C321   C322    1.532   .     S
C321   H353    1.109   .     S
C321   C549    1.521   .     S
C321   H574    1.114   .     S
C322   H351    1.106   .     S
C322   H349    1.106   .     S
C322   H348    1.109   .     S
C323   C325    1.382   .     A
C323   F336    1.358   .     S
C324   H339    1.084   .     S
C324   C976    1.396   1_554 S
C325   H350    1.083   .     S
C325   C977    1.390   .     S
C326   C540    1.530   .     S
C326   C549    1.355   .     S
C328   O367    1.313   .     A
C328   O369    1.315   .     A
Cu329  Cu330   2.721   .     S
Cu329  O366    1.960   .     S
Cu329  N362    2.045   .     S
Cu329  O367    1.946   .     S
Cu329  O370    1.925   .     S
Cu329  O363    1.974   .     S
Cu330  O365    1.960   .     S
Cu330  N361    2.045   .     S
Cu330  O369    1.925   .     S
Cu330  O368    1.946   .     S
Cu330  O364    1.974   .     S
F333   C375    1.360   .     S
F338   N436    1.334   .     S
H340   C391    1.104   .     S
H343   C542    1.109   .     S
H347   C540    1.113   .     S
H354   C389    1.108   .     S
N361   F411    1.332   .     S
N361   N436    1.290   .     S
C371   C400    1.434   .     S
C371   O437    1.295   .     A
C371   O439    1.301   .     A
C372   C374    1.498   .     S
C372   O444    1.312   .     A
C372   O442    1.320   .     A
C373   C379    1.397   .     A
C373   C377    1.411   .     A
C373   C402    1.493   .     S
C374   C380    1.419   .     A
C374   C378    1.418   .     A
C375   C384    1.404   .     A
C375   C377    1.409   .     A
C376   C378    1.399   .     A
C376   C385    1.394   .     A
C376   F260    1.361   1_655 S
C378   C240    1.504   1_655 S
C379   F406    1.341   .     S
C379   C381    1.409   .     A
C380   F405    1.354   .     S
C380   C383    1.416   .     A
C381   C386    1.419   .     A
C381   C384    1.408   .     A
C382   O438    1.292   .     A
C382   C401    1.426   .     S
C382   O440    1.299   .     A
C383   C387    1.433   .     A
C383   C385    1.414   .     A
C384   C1064   1.396   .     S
C385   C1065   1.390   1_554 S
C386   C397    1.411   .     A
C386   C1053   1.427   .     S
C387   C393    1.421   .     A
C387   C1052   1.427   1_554 S
C388   H431    1.106   .     S
C388   C389    1.513   .     S
C388   H432    1.105   .     S
C389   H430    1.110   .     S
C389   H429    1.109   .     S
C390   H415    1.108   .     S
C390   H416    1.106   .     S
C390   C229    1.506   1_655 S
C390   C243    1.543   1_655 S
C391   H433    1.108   .     S
C391   H434    1.107   .     S
C392   H420    1.110   .     S
C392   C394    1.525   .     S
C393   C398    1.396   .     A
C393   F409    1.356   .     S
C394   H418    1.108   .     S
C394   H419    1.111   .     S
C395   C396    1.532   .     S
C395   H427    1.109   .     S
C395   C623    1.521   .     S
C395   H648    1.114   .     S
C396   H425    1.106   .     S
C396   H423    1.106   .     S
C396   H422    1.109   .     S
C397   C399    1.382   .     A
C397   F410    1.358   .     S
C398   H413    1.084   .     S
C398   C1050   1.396   1_554 S
C399   H424    1.083   .     S
C399   C1051   1.390   .     S
C400   C614    1.530   .     S
C400   C623    1.355   .     S
C402   O441    1.313   .     A
C402   O443    1.315   .     A
Cu403  Cu404   2.721   .     S
Cu403  O440    1.960   .     S
Cu403  N436    2.045   .     S
Cu403  O441    1.946   .     S
Cu403  O444    1.925   .     S
Cu403  O437    1.974   .     S
Cu404  O439    1.960   .     S
Cu404  N435    2.045   .     S
Cu404  O443    1.925   .     S
Cu404  O442    1.946   .     S
Cu404  O438    1.974   .     S
F407   C227    1.360   1_655 S
F412   N288    1.334   1_655 S
H414   C243    1.104   1_655 S
H417   C616    1.109   .     S
H421   C614    1.113   .     S
H428   C241    1.108   1_655 S
N435   F263    1.332   1_655 S
N435   N288    1.290   1_655 S
C445   C474    1.434   .     S
C445   O511    1.295   .     A
C445   O513    1.301   .     A
C446   C448    1.498   .     S
C446   O518    1.312   .     A
C446   O516    1.320   .     A
C447   C453    1.397   .     A
C447   C451    1.411   .     A
C447   C476    1.493   .     S
C448   C454    1.419   .     A
C448   C452    1.418   .     A
C449   C458    1.404   .     A
C449   C451    1.409   .     A
C449   F629    1.360   1_455 S
C450   C452    1.399   .     A
C450   C459    1.394   .     A
C450   F556    1.361   .     S
C451   C612    1.506   1_455 S
C452   C536    1.504   .     S
C453   F480    1.341   .     S
C453   C455    1.409   .     A
C454   F479    1.354   .     S
C454   C457    1.416   .     A
C455   C460    1.419   .     A
C455   C458    1.408   .     A
C456   O512    1.292   .     A
C456   C475    1.426   .     S
C456   O514    1.299   .     A
C457   C461    1.433   .     A
C457   C459    1.414   .     A
C458   C1138   1.396   .     S
C459   C1139   1.390   1_554 S
C460   C471    1.411   .     A
C460   C1127   1.427   .     S
C461   C467    1.421   .     A
C461   C1126   1.427   1_554 S
C462   H505    1.106   .     S
C462   C463    1.513   .     S
C462   H506    1.105   .     S
C462   C600    1.504   1_455 S
C463   H504    1.110   .     S
C463   H503    1.109   .     S
C463   H650    1.108   1_455 S
C464   H489    1.108   .     S
C464   H490    1.106   .     S
C464   C525    1.506   .     S
C464   C539    1.543   .     S
C465   H507    1.108   .     S
C465   H508    1.107   .     S
C465   C612    1.543   1_455 S
C465   H636    1.104   1_455 S
C466   H494    1.110   .     S
C466   C468    1.525   .     S
C467   C472    1.396   .     A
C467   F483    1.356   .     S
C468   H492    1.108   .     S
C468   H493    1.111   .     S
C469   C470    1.532   .     S
C469   H501    1.109   .     S
C469   C31     1.521   1_565 S
C469   H56     1.114   1_565 S
C470   H499    1.106   .     S
C470   H497    1.106   .     S
C470   H496    1.109   .     S
C471   C473    1.382   .     A
C471   F484    1.358   .     S
C472   H487    1.084   .     S
C472   C1124   1.396   1_554 S
C473   H498    1.083   .     S
C473   C1125   1.390   .     S
C474   C22     1.530   1_565 S
C474   C31     1.355   1_565 S
C476   O515    1.313   .     A
C476   O517    1.315   .     A
Cu477  Cu478   2.721   .     S
Cu477  O514    1.960   .     S
Cu477  N510    2.045   .     S
Cu477  O515    1.946   .     S
Cu477  O518    1.925   .     S
Cu477  O511    1.974   .     S
Cu478  O513    1.960   .     S
Cu478  N509    2.045   .     S
Cu478  O517    1.925   .     S
Cu478  O516    1.946   .     S
Cu478  O512    1.974   .     S
F481   C523    1.360   .     S
F482   C598    1.361   1_455 S
F485   N657    1.332   1_455 S
F486   N584    1.334   .     S
H488   C539    1.104   .     S
H491   C24     1.109   1_565 S
H495   C22     1.113   1_565 S
H502   C537    1.108   .     S
N509   F559    1.332   .     S
N509   N584    1.290   .     S
N510   F634    1.334   1_455 S
N510   N657    1.290   1_455 S
C519   C548    1.434   .     S
C519   O585    1.295   .     A
C519   O587    1.301   .     A
C520   C522    1.498   .     S
C520   O592    1.312   .     A
C520   O590    1.320   .     A
C521   C527    1.397   .     A
C521   C525    1.411   .     A
C521   C550    1.493   .     S
C522   C528    1.419   .     A
C522   C526    1.418   .     A
C523   C532    1.404   .     A
C523   C525    1.409   .     A
C524   C526    1.399   .     A
C524   C533    1.394   .     A
C524   F630    1.361   .     S
C526   C610    1.504   .     S
C527   F554    1.341   .     S
C527   C529    1.409   .     A
C528   F553    1.354   .     S
C528   C531    1.416   .     A
C529   C534    1.419   .     A
C529   C532    1.408   .     A
C530   O586    1.292   .     A
C530   C549    1.426   .     S
C530   O588    1.299   .     A
C531   C535    1.433   .     A
C531   C533    1.414   .     A
C532   C1212   1.396   .     S
C533   C1213   1.390   1_554 S
C534   C545    1.411   .     A
C534   C1201   1.427   .     S
C535   C541    1.421   .     A
C535   C1200   1.427   1_554 S
C536   H579    1.106   .     S
C536   C537    1.513   .     S
C536   H580    1.105   .     S
C537   H578    1.110   .     S
C537   H577    1.109   .     S
C538   H563    1.108   .     S
C538   H564    1.106   .     S
C538   C599    1.506   .     S
C538   C613    1.543   .     S
C539   H581    1.108   .     S
C539   H582    1.107   .     S
C540   H568    1.110   .     S
C540   C542    1.525   .     S
C541   C546    1.396   .     A
C541   F557    1.356   .     S
C542   H566    1.108   .     S
C542   H567    1.111   .     S
C543   C544    1.532   .     S
C543   H575    1.109   .     S
C543   C105    1.521   1_565 S
C543   H130    1.114   1_565 S
C544   H573    1.106   .     S
C544   H571    1.106   .     S
C544   H570    1.109   .     S
C545   C547    1.382   .     A
C545   F558    1.358   .     S
C546   H561    1.084   .     S
C546   C1198   1.396   1_554 S
C547   H572    1.083   .     S
C547   C1199   1.390   .     S
C548   C96     1.530   1_565 S
C548   C105    1.355   1_565 S
C550   O589    1.313   .     A
C550   O591    1.315   .     A
Cu551  Cu552   2.721   .     S
Cu551  O588    1.960   .     S
Cu551  N584    2.045   .     S
Cu551  O589    1.946   .     S
Cu551  O592    1.925   .     S
Cu551  O585    1.974   .     S
Cu552  O587    1.960   .     S
Cu552  N583    2.045   .     S
Cu552  O591    1.925   .     S
Cu552  O590    1.946   .     S
Cu552  O586    1.974   .     S
F555   C597    1.360   .     S
F560   N658    1.334   .     S
H562   C613    1.104   .     S
H565   C98     1.109   1_565 S
H569   C96     1.113   1_565 S
H576   C611    1.108   .     S
N583   F633    1.332   .     S
N583   N658    1.290   .     S
C593   C622    1.434   .     S
C593   O659    1.295   .     A
C593   O661    1.301   .     A
C594   C596    1.498   .     S
C594   O666    1.312   .     A
C594   O664    1.320   .     A
C595   C601    1.397   .     A
C595   C599    1.411   .     A
C595   C624    1.493   .     S
C596   C602    1.419   .     A
C596   C600    1.418   .     A
C597   C606    1.404   .     A
C597   C599    1.409   .     A
C598   C600    1.399   .     A
C598   C607    1.394   .     A
C598   F482    1.361   1_655 S
C600   C462    1.504   1_655 S
C601   F628    1.341   .     S
C601   C603    1.409   .     A
C602   F627    1.354   .     S
C602   C605    1.416   .     A
C603   C608    1.419   .     A
C603   C606    1.408   .     A
C604   O660    1.292   .     A
C604   C623    1.426   .     S
C604   O662    1.299   .     A
C605   C609    1.433   .     A
C605   C607    1.414   .     A
C606   C1286   1.396   .     S
C607   C1287   1.390   1_554 S
C608   C619    1.411   .     A
C608   C1275   1.427   .     S
C609   C615    1.421   .     A
C609   C1274   1.427   1_554 S
C610   H653    1.106   .     S
C610   C611    1.513   .     S
C610   H654    1.105   .     S
C611   H652    1.110   .     S
C611   H651    1.109   .     S
C612   H637    1.108   .     S
C612   H638    1.106   .     S
C612   C451    1.506   1_655 S
C612   C465    1.543   1_655 S
C613   H655    1.108   .     S
C613   H656    1.107   .     S
C614   H642    1.110   .     S
C614   C616    1.525   .     S
C615   C620    1.396   .     A
C615   F631    1.356   .     S
C616   H640    1.108   .     S
C616   H641    1.111   .     S
C617   C618    1.532   .     S
C617   H649    1.109   .     S
C617   C179    1.521   1_565 S
C617   H204    1.114   1_565 S
C618   H647    1.106   .     S
C618   H645    1.106   .     S
C618   H644    1.109   .     S
C619   C621    1.382   .     A
C619   F632    1.358   .     S
C620   H635    1.084   .     S
C620   C1272   1.396   1_554 S
C621   H646    1.083   .     S
C621   C1273   1.390   .     S
C622   C170    1.530   1_565 S
C622   C179    1.355   1_565 S
C624   O663    1.313   .     A
C624   O665    1.315   .     A
Cu625  Cu626   2.721   .     S
Cu625  O662    1.960   .     S
Cu625  N658    2.045   .     S
Cu625  O663    1.946   .     S
Cu625  O666    1.925   .     S
Cu625  O659    1.974   .     S
Cu626  O661    1.960   .     S
Cu626  N657    2.045   .     S
Cu626  O665    1.925   .     S
Cu626  O664    1.946   .     S
Cu626  O660    1.974   .     S
F629   C449    1.360   1_655 S
F634   N510    1.334   1_655 S
H636   C465    1.104   1_655 S
H639   C172    1.109   1_565 S
H643   C170    1.113   1_565 S
H650   C463    1.108   1_655 S
N657   F485    1.332   1_655 S
N657   N510    1.290   1_655 S
C667   C696    1.434   .     S
C667   O733    1.295   .     A
C667   O735    1.301   .     A
C668   C670    1.498   .     S
C668   O740    1.312   .     A
C668   O738    1.320   .     A
C669   C675    1.397   .     A
C669   C673    1.411   .     A
C669   C698    1.493   .     S
C670   C676    1.419   .     A
C670   C674    1.418   .     A
C671   C680    1.404   .     A
C671   C673    1.409   .     A
C671   F851    1.360   1_455 S
C672   C674    1.399   .     A
C672   C681    1.394   .     A
C672   F778    1.361   .     S
C673   C834    1.506   1_455 S
C674   C758    1.504   .     S
C675   F702    1.341   .     S
C675   C677    1.409   .     A
C676   F701    1.354   .     S
C676   C679    1.416   .     A
C677   C682    1.419   .     A
C677   C680    1.408   .     A
C678   O734    1.292   .     A
C678   C697    1.426   .     S
C678   O736    1.299   .     A
C679   C683    1.433   .     A
C679   C681    1.414   .     A
C680   C28     1.396   1_556 S
C682   C693    1.411   .     A
C682   C17     1.427   1_556 S
C683   C689    1.421   .     A
C684   H727    1.106   .     S
C684   C685    1.513   .     S
C684   H728    1.105   .     S
C684   C822    1.504   1_455 S
C685   H726    1.110   .     S
C685   H725    1.109   .     S
C685   H872    1.108   1_455 S
C686   H711    1.108   .     S
C686   H712    1.106   .     S
C686   C747    1.506   .     S
C686   C761    1.543   .     S
C687   H729    1.108   .     S
C687   H730    1.107   .     S
C687   C834    1.543   1_455 S
C687   H858    1.104   1_455 S
C688   H716    1.110   .     S
C688   C690    1.525   .     S
C688   C1140   1.530   1_545 S
C688   H1161   1.113   1_545 S
C689   C694    1.396   .     A
C689   F705    1.356   .     S
C690   H714    1.108   .     S
C690   H715    1.111   .     S
C690   H1157   1.109   1_545 S
C691   C692    1.532   .     S
C691   H723    1.109   .     S
C691   C919    1.521   .     S
C691   H944    1.114   .     S
C692   H721    1.106   .     S
C692   H719    1.106   .     S
C692   H718    1.109   .     S
C693   C695    1.382   .     A
C693   F706    1.358   .     S
C694   H709    1.084   .     S
C695   H720    1.083   .     S
C695   C15     1.390   1_556 S
C696   C910    1.530   .     S
C696   C919    1.355   .     S
C697   C1140   1.355   1_545 S
C697   C1135   1.521   1_545 S
C698   O737    1.313   .     A
C698   O739    1.315   .     A
Cu699  Cu700   2.721   .     S
Cu699  O736    1.960   .     S
Cu699  N732    2.045   .     S
Cu699  O737    1.946   .     S
Cu699  O740    1.925   .     S
Cu699  O733    1.974   .     S
Cu700  O735    1.960   .     S
Cu700  N731    2.045   .     S
Cu700  O739    1.925   .     S
Cu700  O738    1.946   .     S
Cu700  O734    1.974   .     S
F703   C745    1.360   .     S
F704   C820    1.361   1_455 S
F707   N879    1.332   1_455 S
F708   N806    1.334   .     S
H710   C761    1.104   .     S
H713   C912    1.109   .     S
H717   C910    1.113   .     S
H722   C1135   1.114   1_545 S
H724   C759    1.108   .     S
N731   F781    1.332   .     S
N731   N806    1.290   .     S
N732   F856    1.334   1_455 S
N732   N879    1.290   1_455 S
C741   C770    1.434   .     S
C741   O807    1.295   .     A
C741   O809    1.301   .     A
C742   C744    1.498   .     S
C742   O814    1.312   .     A
C742   O812    1.320   .     A
C743   C749    1.397   .     A
C743   C747    1.411   .     A
C743   C772    1.493   .     S
C744   C750    1.419   .     A
C744   C748    1.418   .     A
C745   C754    1.404   .     A
C745   C747    1.409   .     A
C746   C748    1.399   .     A
C746   C755    1.394   .     A
C746   F852    1.361   .     S
C748   C832    1.504   .     S
C749   F776    1.341   .     S
C749   C751    1.409   .     A
C750   F775    1.354   .     S
C750   C753    1.416   .     A
C751   C756    1.419   .     A
C751   C754    1.408   .     A
C752   O808    1.292   .     A
C752   C771    1.426   .     S
C752   O810    1.299   .     A
C753   C757    1.433   .     A
C753   C755    1.414   .     A
C754   C102    1.396   1_556 S
C756   C767    1.411   .     A
C756   C91     1.427   1_556 S
C757   C763    1.421   .     A
C758   H801    1.106   .     S
C758   C759    1.513   .     S
C758   H802    1.105   .     S
C759   H800    1.110   .     S
C759   H799    1.109   .     S
C760   H785    1.108   .     S
C760   H786    1.106   .     S
C760   C821    1.506   .     S
C760   C835    1.543   .     S
C761   H803    1.108   .     S
C761   H804    1.107   .     S
C762   H790    1.110   .     S
C762   C764    1.525   .     S
C762   C1214   1.530   1_545 S
C762   H1235   1.113   1_545 S
C763   C768    1.396   .     A
C763   F779    1.356   .     S
C764   H788    1.108   .     S
C764   H789    1.111   .     S
C764   H1231   1.109   1_545 S
C765   C766    1.532   .     S
C765   H797    1.109   .     S
C765   C993    1.521   .     S
C765   H1018   1.114   .     S
C766   H795    1.106   .     S
C766   H793    1.106   .     S
C766   H792    1.109   .     S
C767   C769    1.382   .     A
C767   F780    1.358   .     S
C768   H783    1.084   .     S
C769   H794    1.083   .     S
C769   C89     1.390   1_556 S
C770   C984    1.530   .     S
C770   C993    1.355   .     S
C771   C1214   1.355   1_545 S
C771   C1209   1.521   1_545 S
C772   O811    1.313   .     A
C772   O813    1.315   .     A
Cu773  Cu774   2.721   .     S
Cu773  O810    1.960   .     S
Cu773  N806    2.045   .     S
Cu773  O811    1.946   .     S
Cu773  O814    1.925   .     S
Cu773  O807    1.974   .     S
Cu774  O809    1.960   .     S
Cu774  N805    2.045   .     S
Cu774  O813    1.925   .     S
Cu774  O812    1.946   .     S
Cu774  O808    1.974   .     S
F777   C819    1.360   .     S
F782   N880    1.334   .     S
H784   C835    1.104   .     S
H787   C986    1.109   .     S
H791   C984    1.113   .     S
H796   C1209   1.114   1_545 S
H798   C833    1.108   .     S
N805   F855    1.332   .     S
N805   N880    1.290   .     S
C815   C844    1.434   .     S
C815   O881    1.295   .     A
C815   O883    1.301   .     A
C816   C818    1.498   .     S
C816   O888    1.312   .     A
C816   O886    1.320   .     A
C817   C823    1.397   .     A
C817   C821    1.411   .     A
C817   C846    1.493   .     S
C818   C824    1.419   .     A
C818   C822    1.418   .     A
C819   C828    1.404   .     A
C819   C821    1.409   .     A
C820   C822    1.399   .     A
C820   C829    1.394   .     A
C820   F704    1.361   1_655 S
C822   C684    1.504   1_655 S
C823   F850    1.341   .     S
C823   C825    1.409   .     A
C824   F849    1.354   .     S
C824   C827    1.416   .     A
C825   C830    1.419   .     A
C825   C828    1.408   .     A
C826   O882    1.292   .     A
C826   C845    1.426   .     S
C826   O884    1.299   .     A
C827   C831    1.433   .     A
C827   C829    1.414   .     A
C828   C176    1.396   1_556 S
C830   C841    1.411   .     A
C830   C165    1.427   1_556 S
C831   C837    1.421   .     A
C832   H875    1.106   .     S
C832   C833    1.513   .     S
C832   H876    1.105   .     S
C833   H874    1.110   .     S
C833   H873    1.109   .     S
C834   H859    1.108   .     S
C834   H860    1.106   .     S
C834   C673    1.506   1_655 S
C834   C687    1.543   1_655 S
C835   H877    1.108   .     S
C835   H878    1.107   .     S
C836   H864    1.110   .     S
C836   C838    1.525   .     S
C836   C1288   1.530   1_545 S
C836   H1309   1.113   1_545 S
C837   C842    1.396   .     A
C837   F853    1.356   .     S
C838   H862    1.108   .     S
C838   H863    1.111   .     S
C838   H1305   1.109   1_545 S
C839   C840    1.532   .     S
C839   H871    1.109   .     S
C839   C1067   1.521   .     S
C839   H1092   1.114   .     S
C840   H869    1.106   .     S
C840   H867    1.106   .     S
C840   H866    1.109   .     S
C841   C843    1.382   .     A
C841   F854    1.358   .     S
C842   H857    1.084   .     S
C843   H868    1.083   .     S
C843   C163    1.390   1_556 S
C844   C1058   1.530   .     S
C844   C1067   1.355   .     S
C845   C1288   1.355   1_545 S
C845   C1283   1.521   1_545 S
C846   O885    1.313   .     A
C846   O887    1.315   .     A
Cu847  Cu848   2.721   .     S
Cu847  O884    1.960   .     S
Cu847  N880    2.045   .     S
Cu847  O885    1.946   .     S
Cu847  O888    1.925   .     S
Cu847  O881    1.974   .     S
Cu848  O883    1.960   .     S
Cu848  N879    2.045   .     S
Cu848  O887    1.925   .     S
Cu848  O886    1.946   .     S
Cu848  O882    1.974   .     S
F851   C671    1.360   1_655 S
F856   N732    1.334   1_655 S
H858   C687    1.104   1_655 S
H861   C1060   1.109   .     S
H865   C1058   1.113   .     S
H870   C1283   1.114   1_545 S
H872   C685    1.108   1_655 S
N879   F707    1.332   1_655 S
N879   N732    1.290   1_655 S
C889   C918    1.434   .     S
C889   O955    1.295   .     A
C889   O957    1.301   .     A
C890   C892    1.498   .     S
C890   O962    1.312   .     A
C890   O960    1.320   .     A
C891   C897    1.397   .     A
C891   C895    1.411   .     A
C891   C920    1.493   .     S
C892   C898    1.419   .     A
C892   C896    1.418   .     A
C893   C902    1.404   .     A
C893   C895    1.409   .     A
C893   F1073   1.360   1_455 S
C894   C896    1.399   .     A
C894   C903    1.394   .     A
C894   F1000   1.361   .     S
C895   C1056   1.506   1_455 S
C896   C980    1.504   .     S
C897   F924    1.341   .     S
C897   C899    1.409   .     A
C898   F923    1.354   .     S
C898   C901    1.416   .     A
C899   C904    1.419   .     A
C899   C902    1.408   .     A
C900   O956    1.292   .     A
C900   C919    1.426   .     S
C900   O958    1.299   .     A
C901   C905    1.433   .     A
C901   C903    1.414   .     A
C902   C250    1.396   1_556 S
C904   C915    1.411   .     A
C904   C239    1.427   1_556 S
C905   C911    1.421   .     A
C906   H949    1.106   .     S
C906   C907    1.513   .     S
C906   H950    1.105   .     S
C906   C1044   1.504   1_455 S
C907   H948    1.110   .     S
C907   H947    1.109   .     S
C907   H1094   1.108   1_455 S
C908   H933    1.108   .     S
C908   H934    1.106   .     S
C908   C969    1.506   .     S
C908   C983    1.543   .     S
C909   H951    1.108   .     S
C909   H952    1.107   .     S
C909   C1056   1.543   1_455 S
C909   H1080   1.104   1_455 S
C910   H938    1.110   .     S
C910   C912    1.525   .     S
C911   C916    1.396   .     A
C911   F927    1.356   .     S
C912   H936    1.108   .     S
C912   H937    1.111   .     S
C913   C914    1.532   .     S
C913   H945    1.109   .     S
C913   C1141   1.521   .     S
C913   H1166   1.114   .     S
C914   H943    1.106   .     S
C914   H941    1.106   .     S
C914   H940    1.109   .     S
C915   C917    1.382   .     A
C915   F928    1.358   .     S
C916   H931    1.084   .     S
C917   H942    1.083   .     S
C917   C237    1.390   1_556 S
C918   C1132   1.530   .     S
C918   C1141   1.355   .     S
C920   O959    1.313   .     A
C920   O961    1.315   .     A
Cu921  Cu922   2.721   .     S
Cu921  O958    1.960   .     S
Cu921  N954    2.045   .     S
Cu921  O959    1.946   .     S
Cu921  O962    1.925   .     S
Cu921  O955    1.974   .     S
Cu922  O957    1.960   .     S
Cu922  N953    2.045   .     S
Cu922  O961    1.925   .     S
Cu922  O960    1.946   .     S
Cu922  O956    1.974   .     S
F925   C967    1.360   .     S
F926   C1042   1.361   1_455 S
F929   N1101   1.332   1_455 S
F930   N1028   1.334   .     S
H932   C983    1.104   .     S
H935   C1134   1.109   .     S
H939   C1132   1.113   .     S
H946   C981    1.108   .     S
N953   F1003   1.332   .     S
N953   N1028   1.290   .     S
N954   F1078   1.334   1_455 S
N954   N1101   1.290   1_455 S
C963   C992    1.434   .     S
C963   O1029   1.295   .     A
C963   O1031   1.301   .     A
C964   C966    1.498   .     S
C964   O1036   1.312   .     A
C964   O1034   1.320   .     A
C965   C971    1.397   .     A
C965   C969    1.411   .     A
C965   C994    1.493   .     S
C966   C972    1.419   .     A
C966   C970    1.418   .     A
C967   C976    1.404   .     A
C967   C969    1.409   .     A
C968   C970    1.399   .     A
C968   C977    1.394   .     A
C968   F1074   1.361   .     S
C970   C1054   1.504   .     S
C971   F998    1.341   .     S
C971   C973    1.409   .     A
C972   F997    1.354   .     S
C972   C975    1.416   .     A
C973   C978    1.419   .     A
C973   C976    1.408   .     A
C974   O1030   1.292   .     A
C974   C993    1.426   .     S
C974   O1032   1.299   .     A
C975   C979    1.433   .     A
C975   C977    1.414   .     A
C976   C324    1.396   1_556 S
C978   C989    1.411   .     A
C978   C313    1.427   1_556 S
C979   C985    1.421   .     A
C980   H1023   1.106   .     S
C980   C981    1.513   .     S
C980   H1024   1.105   .     S
C981   H1022   1.110   .     S
C981   H1021   1.109   .     S
C982   H1007   1.108   .     S
C982   H1008   1.106   .     S
C982   C1043   1.506   .     S
C982   C1057   1.543   .     S
C983   H1025   1.108   .     S
C983   H1026   1.107   .     S
C984   H1012   1.110   .     S
C984   C986    1.525   .     S
C985   C990    1.396   .     A
C985   F1001   1.356   .     S
C986   H1010   1.108   .     S
C986   H1011   1.111   .     S
C987   C988    1.532   .     S
C987   H1019   1.109   .     S
C987   C1215   1.521   .     S
C987   H1240   1.114   .     S
C988   H1017   1.106   .     S
C988   H1015   1.106   .     S
C988   H1014   1.109   .     S
C989   C991    1.382   .     A
C989   F1002   1.358   .     S
C990   H1005   1.084   .     S
C991   H1016   1.083   .     S
C991   C311    1.390   1_556 S
C992   C1206   1.530   .     S
C992   C1215   1.355   .     S
C994   O1033   1.313   .     A
C994   O1035   1.315   .     A
Cu995  Cu996   2.721   .     S
Cu995  O1032   1.960   .     S
Cu995  N1028   2.045   .     S
Cu995  O1033   1.946   .     S
Cu995  O1036   1.925   .     S
Cu995  O1029   1.974   .     S
Cu996  O1031   1.960   .     S
Cu996  N1027   2.045   .     S
Cu996  O1035   1.925   .     S
Cu996  O1034   1.946   .     S
Cu996  O1030   1.974   .     S
F999   C1041   1.360   .     S
F1004  N1102   1.334   .     S
H1006  C1057   1.104   .     S
H1009  C1208   1.109   .     S
H1013  C1206   1.113   .     S
H1020  C1055   1.108   .     S
N1027  F1077   1.332   .     S
N1027  N1102   1.290   .     S
C1037  C1066   1.434   .     S
C1037  O1103   1.295   .     A
C1037  O1105   1.301   .     A
C1038  C1040   1.498   .     S
C1038  O1110   1.312   .     A
C1038  O1108   1.320   .     A
C1039  C1045   1.397   .     A
C1039  C1043   1.411   .     A
C1039  C1068   1.493   .     S
C1040  C1046   1.419   .     A
C1040  C1044   1.418   .     A
C1041  C1050   1.404   .     A
C1041  C1043   1.409   .     A
C1042  C1044   1.399   .     A
C1042  C1051   1.394   .     A
C1042  F926    1.361   1_655 S
C1044  C906    1.504   1_655 S
C1045  F1072   1.341   .     S
C1045  C1047   1.409   .     A
C1046  F1071   1.354   .     S
C1046  C1049   1.416   .     A
C1047  C1052   1.419   .     A
C1047  C1050   1.408   .     A
C1048  O1104   1.292   .     A
C1048  C1067   1.426   .     S
C1048  O1106   1.299   .     A
C1049  C1053   1.433   .     A
C1049  C1051   1.414   .     A
C1050  C398    1.396   1_556 S
C1052  C1063   1.411   .     A
C1052  C387    1.427   1_556 S
C1053  C1059   1.421   .     A
C1054  H1097   1.106   .     S
C1054  C1055   1.513   .     S
C1054  H1098   1.105   .     S
C1055  H1096   1.110   .     S
C1055  H1095   1.109   .     S
C1056  H1081   1.108   .     S
C1056  H1082   1.106   .     S
C1056  C895    1.506   1_655 S
C1056  C909    1.543   1_655 S
C1057  H1099   1.108   .     S
C1057  H1100   1.107   .     S
C1058  H1086   1.110   .     S
C1058  C1060   1.525   .     S
C1059  C1064   1.396   .     A
C1059  F1075   1.356   .     S
C1060  H1084   1.108   .     S
C1060  H1085   1.111   .     S
C1061  C1062   1.532   .     S
C1061  H1093   1.109   .     S
C1061  C1289   1.521   .     S
C1061  H1314   1.114   .     S
C1062  H1091   1.106   .     S
C1062  H1089   1.106   .     S
C1062  H1088   1.109   .     S
C1063  C1065   1.382   .     A
C1063  F1076   1.358   .     S
C1064  H1079   1.084   .     S
C1065  H1090   1.083   .     S
C1065  C385    1.390   1_556 S
C1066  C1280   1.530   .     S
C1066  C1289   1.355   .     S
C1068  O1107   1.313   .     A
C1068  O1109   1.315   .     A
Cu1069 Cu1070  2.721   .     S
Cu1069 O1106   1.960   .     S
Cu1069 N1102   2.045   .     S
Cu1069 O1107   1.946   .     S
Cu1069 O1110   1.925   .     S
Cu1069 O1103   1.974   .     S
Cu1070 O1105   1.960   .     S
Cu1070 N1101   2.045   .     S
Cu1070 O1109   1.925   .     S
Cu1070 O1108   1.946   .     S
Cu1070 O1104   1.974   .     S
F1073  C893    1.360   1_655 S
F1078  N954    1.334   1_655 S
H1080  C909    1.104   1_655 S
H1083  C1282   1.109   .     S
H1087  C1280   1.113   .     S
H1094  C907    1.108   1_655 S
N1101  F929    1.332   1_655 S
N1101  N954    1.290   1_655 S
C1111  C1140   1.434   .     S
C1111  O1177   1.295   .     A
C1111  O1179   1.301   .     A
C1112  C1114   1.498   .     S
C1112  O1184   1.312   .     A
C1112  O1182   1.320   .     A
C1113  C1119   1.397   .     A
C1113  C1117   1.411   .     A
C1113  C1142   1.493   .     S
C1114  C1120   1.419   .     A
C1114  C1118   1.418   .     A
C1115  C1124   1.404   .     A
C1115  C1117   1.409   .     A
C1115  F1295   1.360   1_455 S
C1116  C1118   1.399   .     A
C1116  C1125   1.394   .     A
C1116  F1222   1.361   .     S
C1117  C1278   1.506   1_455 S
C1118  C1202   1.504   .     S
C1119  F1146   1.341   .     S
C1119  C1121   1.409   .     A
C1120  F1145   1.354   .     S
C1120  C1123   1.416   .     A
C1121  C1126   1.419   .     A
C1121  C1124   1.408   .     A
C1122  O1178   1.292   .     A
C1122  C1141   1.426   .     S
C1122  O1180   1.299   .     A
C1123  C1127   1.433   .     A
C1123  C1125   1.414   .     A
C1124  C472    1.396   1_556 S
C1126  C1137   1.411   .     A
C1126  C461    1.427   1_556 S
C1127  C1133   1.421   .     A
C1128  H1171   1.106   .     S
C1128  C1129   1.513   .     S
C1128  H1172   1.105   .     S
C1128  C1266   1.504   1_455 S
C1129  H1170   1.110   .     S
C1129  H1169   1.109   .     S
C1129  H1316   1.108   1_455 S
C1130  H1155   1.108   .     S
C1130  H1156   1.106   .     S
C1130  C1191   1.506   .     S
C1130  C1205   1.543   .     S
C1131  H1173   1.108   .     S
C1131  H1174   1.107   .     S
C1131  C1278   1.543   1_455 S
C1131  H1302   1.104   1_455 S
C1132  H1160   1.110   .     S
C1132  C1134   1.525   .     S
C1133  C1138   1.396   .     A
C1133  F1149   1.356   .     S
C1134  H1158   1.108   .     S
C1134  H1159   1.111   .     S
C1135  C1136   1.532   .     S
C1135  H1167   1.109   .     S
C1135  C697    1.521   1_565 S
C1135  H722    1.114   1_565 S
C1136  H1165   1.106   .     S
C1136  H1163   1.106   .     S
C1136  H1162   1.109   .     S
C1137  C1139   1.382   .     A
C1137  F1150   1.358   .     S
C1138  H1153   1.084   .     S
C1139  H1164   1.083   .     S
C1139  C459    1.390   1_556 S
C1140  C688    1.530   1_565 S
C1140  C697    1.355   1_565 S
C1142  O1181   1.313   .     A
C1142  O1183   1.315   .     A
Cu1143 Cu1144  2.721   .     S
Cu1143 O1180   1.960   .     S
Cu1143 N1176   2.045   .     S
Cu1143 O1181   1.946   .     S
Cu1143 O1184   1.925   .     S
Cu1143 O1177   1.974   .     S
Cu1144 O1179   1.960   .     S
Cu1144 N1175   2.045   .     S
Cu1144 O1183   1.925   .     S
Cu1144 O1182   1.946   .     S
Cu1144 O1178   1.974   .     S
F1147  C1189   1.360   .     S
F1148  C1264   1.361   1_455 S
F1151  N1323   1.332   1_455 S
F1152  N1250   1.334   .     S
H1154  C1205   1.104   .     S
H1157  C690    1.109   1_565 S
H1161  C688    1.113   1_565 S
H1168  C1203   1.108   .     S
N1175  F1225   1.332   .     S
N1175  N1250   1.290   .     S
N1176  F1300   1.334   1_455 S
N1176  N1323   1.290   1_455 S
C1185  C1214   1.434   .     S
C1185  O1251   1.295   .     A
C1185  O1253   1.301   .     A
C1186  C1188   1.498   .     S
C1186  O1258   1.312   .     A
C1186  O1256   1.320   .     A
C1187  C1193   1.397   .     A
C1187  C1191   1.411   .     A
C1187  C1216   1.493   .     S
C1188  C1194   1.419   .     A
C1188  C1192   1.418   .     A
C1189  C1198   1.404   .     A
C1189  C1191   1.409   .     A
C1190  C1192   1.399   .     A
C1190  C1199   1.394   .     A
C1190  F1296   1.361   .     S
C1192  C1276   1.504   .     S
C1193  F1220   1.341   .     S
C1193  C1195   1.409   .     A
C1194  F1219   1.354   .     S
C1194  C1197   1.416   .     A
C1195  C1200   1.419   .     A
C1195  C1198   1.408   .     A
C1196  O1252   1.292   .     A
C1196  C1215   1.426   .     S
C1196  O1254   1.299   .     A
C1197  C1201   1.433   .     A
C1197  C1199   1.414   .     A
C1198  C546    1.396   1_556 S
C1200  C1211   1.411   .     A
C1200  C535    1.427   1_556 S
C1201  C1207   1.421   .     A
C1202  H1245   1.106   .     S
C1202  C1203   1.513   .     S
C1202  H1246   1.105   .     S
C1203  H1244   1.110   .     S
C1203  H1243   1.109   .     S
C1204  H1229   1.108   .     S
C1204  H1230   1.106   .     S
C1204  C1265   1.506   .     S
C1204  C1279   1.543   .     S
C1205  H1247   1.108   .     S
C1205  H1248   1.107   .     S
C1206  H1234   1.110   .     S
C1206  C1208   1.525   .     S
C1207  C1212   1.396   .     A
C1207  F1223   1.356   .     S
C1208  H1232   1.108   .     S
C1208  H1233   1.111   .     S
C1209  C1210   1.532   .     S
C1209  H1241   1.109   .     S
C1209  C771    1.521   1_565 S
C1209  H796    1.114   1_565 S
C1210  H1239   1.106   .     S
C1210  H1237   1.106   .     S
C1210  H1236   1.109   .     S
C1211  C1213   1.382   .     A
C1211  F1224   1.358   .     S
C1212  H1227   1.084   .     S
C1213  H1238   1.083   .     S
C1213  C533    1.390   1_556 S
C1214  C762    1.530   1_565 S
C1214  C771    1.355   1_565 S
C1216  O1255   1.313   .     A
C1216  O1257   1.315   .     A
Cu1217 Cu1218  2.721   .     S
Cu1217 O1254   1.960   .     S
Cu1217 N1250   2.045   .     S
Cu1217 O1255   1.946   .     S
Cu1217 O1258   1.925   .     S
Cu1217 O1251   1.974   .     S
Cu1218 O1253   1.960   .     S
Cu1218 N1249   2.045   .     S
Cu1218 O1257   1.925   .     S
Cu1218 O1256   1.946   .     S
Cu1218 O1252   1.974   .     S
F1221  C1263   1.360   .     S
F1226  N1324   1.334   .     S
H1228  C1279   1.104   .     S
H1231  C764    1.109   1_565 S
H1235  C762    1.113   1_565 S
H1242  C1277   1.108   .     S
N1249  F1299   1.332   .     S
N1249  N1324   1.290   .     S
C1259  C1288   1.434   .     S
C1259  O1325   1.295   .     A
C1259  O1327   1.301   .     A
C1260  C1262   1.498   .     S
C1260  O1332   1.312   .     A
C1260  O1330   1.320   .     A
C1261  C1267   1.397   .     A
C1261  C1265   1.411   .     A
C1261  C1290   1.493   .     S
C1262  C1268   1.419   .     A
C1262  C1266   1.418   .     A
C1263  C1272   1.404   .     A
C1263  C1265   1.409   .     A
C1264  C1266   1.399   .     A
C1264  C1273   1.394   .     A
C1264  F1148   1.361   1_655 S
C1266  C1128   1.504   1_655 S
C1267  F1294   1.341   .     S
C1267  C1269   1.409   .     A
C1268  F1293   1.354   .     S
C1268  C1271   1.416   .     A
C1269  C1274   1.419   .     A
C1269  C1272   1.408   .     A
C1270  O1326   1.292   .     A
C1270  C1289   1.426   .     S
C1270  O1328   1.299   .     A
C1271  C1275   1.433   .     A
C1271  C1273   1.414   .     A
C1272  C620    1.396   1_556 S
C1274  C1285   1.411   .     A
C1274  C609    1.427   1_556 S
C1275  C1281   1.421   .     A
C1276  H1319   1.106   .     S
C1276  C1277   1.513   .     S
C1276  H1320   1.105   .     S
C1277  H1318   1.110   .     S
C1277  H1317   1.109   .     S
C1278  H1303   1.108   .     S
C1278  H1304   1.106   .     S
C1278  C1117   1.506   1_655 S
C1278  C1131   1.543   1_655 S
C1279  H1321   1.108   .     S
C1279  H1322   1.107   .     S
C1280  H1308   1.110   .     S
C1280  C1282   1.525   .     S
C1281  C1286   1.396   .     A
C1281  F1297   1.356   .     S
C1282  H1306   1.108   .     S
C1282  H1307   1.111   .     S
C1283  C1284   1.532   .     S
C1283  H1315   1.109   .     S
C1283  C845    1.521   1_565 S
C1283  H870    1.114   1_565 S
C1284  H1313   1.106   .     S
C1284  H1311   1.106   .     S
C1284  H1310   1.109   .     S
C1285  C1287   1.382   .     A
C1285  F1298   1.358   .     S
C1286  H1301   1.084   .     S
C1287  H1312   1.083   .     S
C1287  C607    1.390   1_556 S
C1288  C836    1.530   1_565 S
C1288  C845    1.355   1_565 S
C1290  O1329   1.313   .     A
C1290  O1331   1.315   .     A
Cu1291 Cu1292  2.721   .     S
Cu1291 O1328   1.960   .     S
Cu1291 N1324   2.045   .     S
Cu1291 O1329   1.946   .     S
Cu1291 O1332   1.925   .     S
Cu1291 O1325   1.974   .     S
Cu1292 O1327   1.960   .     S
Cu1292 N1323   2.045   .     S
Cu1292 O1331   1.925   .     S
Cu1292 O1330   1.946   .     S
Cu1292 O1326   1.974   .     S
F1295  C1115   1.360   1_655 S
F1300  N1176   1.334   1_655 S
H1302  C1131   1.104   1_655 S
H1305  C838    1.109   1_565 S
H1309  C836    1.113   1_565 S
H1316  C1129   1.108   1_655 S
N1323  F1151   1.332   1_655 S
N1323  N1176   1.290   1_655 S
