data_str_m2_o1_o16_pcu_sym.167
_audit_creation_date              2020-01-03
_audit_creation_method            'Materials Studio'
_symmetry_space_group_name_H-M    'P1'
_symmetry_Int_Tables_number       1
_symmetry_cell_setting            triclinic
loop_
_symmetry_equiv_pos_as_xyz
  x,y,z
_cell_length_a                    28.5232
_cell_length_b                    32.5008
_cell_length_c                    26.8823
_cell_angle_alpha                 90.1834
_cell_angle_beta                  72.1597
_cell_angle_gamma                 89.9860
loop_
_atom_site_label
_atom_site_type_symbol
_atom_site_fract_x
_atom_site_fract_y
_atom_site_fract_z
_atom_site_U_iso_or_equiv
_atom_site_adp_type
_atom_site_occupancy
C1     C     0.16664   0.24599   0.25014   0.00000  Uiso   1.00
C2     C     0.14420   0.16895   0.49042   0.00000  Uiso   1.00
C3     C     0.15489   0.17985   0.43705   0.00000  Uiso   1.00
C4     C     0.18044   0.17583   0.01600   0.00000  Uiso   1.00
C5     C     0.22469   0.19674   0.48957   0.00000  Uiso   1.00
C6     C     0.23169   0.21176   0.43938   0.00000  Uiso   1.00
C7     C     0.19683   0.20429   0.41402   0.00000  Uiso   1.00
C8     C     0.17404   0.16252   0.06722   0.00000  Uiso   1.00
C9     C     0.25233   0.19174   0.06620   0.00000  Uiso   1.00
C10    C     0.12296   0.16665   0.40843   0.00000  Uiso   1.00
C11    C     0.20915   0.31204   0.25044   0.00000  Uiso   1.00
C12    C     0.13998   0.16728   0.35045   0.00000  Uiso   1.00
C13    C     0.20916   0.02128   0.25037   0.00000  Uiso   1.00
C14    C     0.16660   0.04274   0.25022   0.00000  Uiso   1.00
C15    C     0.12399   0.02129   0.25025   0.00000  Uiso   1.00
C16    C     0.12398   0.31206   0.25029   0.00000  Uiso   1.00
C17    C     0.16658   0.29060   0.25031   0.00000  Uiso   1.00
C18    C     0.29990   0.19404   0.28006   0.00000  Uiso   1.00
C19    C     0.01611   0.19391   0.28026   0.00000  Uiso   1.00
C20    C     0.03358   0.13949   0.21959   0.00000  Uiso   1.00
C21    C     0.31725   0.13947   0.21965   0.00000  Uiso   1.00
C22    C     0.16664   0.08735   0.25006   0.00000  Uiso   1.00
C23    C     0.19307   0.16717   0.14989   0.00000  Uiso   1.00
C24    C     0.26075   0.20362   0.01441   0.00000  Uiso   1.00
C25    C     0.20813   0.17229   0.09313   0.00000  Uiso   1.00
C26    C     0.07657   0.14924   0.43603   0.00000  Uiso   1.00
C27    C     0.06401   0.14371   0.48971   0.00000  Uiso   1.00
C28    C     0.09732   0.15242   0.01646   0.00000  Uiso   1.00
Cu29   Cu    0.11978   0.16666   0.25000   0.00000  Uiso   1.00
Cu30   Cu    0.21355   0.16667   0.25000   0.00000  Uiso   1.00
H31    H     0.27920   0.19942   0.08577   0.00000  Uiso   1.00
H32    H     0.24246   0.03728   0.25040   0.00000  Uiso   1.00
H33    H     0.09069   0.03731   0.25018   0.00000  Uiso   1.00
H34    H     0.09068   0.29605   0.25026   0.00000  Uiso   1.00
H35    H     0.27445   0.21620   0.30382   0.00000  Uiso   1.00
H36    H     0.02784   0.21568   0.30455   0.00000  Uiso   1.00
H37    H     0.05932   0.11774   0.19521   0.00000  Uiso   1.00
H38    H     0.30553   0.11772   0.19532   0.00000  Uiso   1.00
H39    H     0.26413   0.22963   0.41969   0.00000  Uiso   1.00
H40    H     0.29469   0.21945   0.49434   0.00000  Uiso   1.00
H41    H     0.14226   0.14502   0.08860   0.00000  Uiso   1.00
H42    H     0.08450   0.14673   0.05788   0.00000  Uiso   1.00
H43    H     0.02837   0.13111   0.01099   0.00000  Uiso   1.00
H44    H     0.20256   0.21903   0.37673   0.00000  Uiso   1.00
H45    H     0.24243   0.29602   0.25054   0.00000  Uiso   1.00
N46    N     0.04931   0.16666   0.24999   0.00000  Uiso   1.00
N47    N     0.28402   0.16669   0.24999   0.00000  Uiso   1.00
O48    O     0.12708   0.22678   0.25001   0.00000  Uiso   1.00
O49    O     0.20627   0.22679   0.25001   0.00000  Uiso   1.00
O50    O     0.10775   0.16665   0.32549   0.00000  Uiso   1.00
O51    O     0.18694   0.16666   0.32549   0.00000  Uiso   1.00
O52    O     0.12706   0.10654   0.25000   0.00000  Uiso   1.00
O53    O     0.20625   0.10655   0.25000   0.00000  Uiso   1.00
O54    O     0.14640   0.16667   0.17451   0.00000  Uiso   1.00
O55    O     0.22559   0.16668   0.17451   0.00000  Uiso   1.00
I56    I     0.02201   0.12786   0.40269   0.00000  Uiso   1.00
C57    C     0.49997   0.24599   0.25014   0.00000  Uiso   1.00
C58    C     0.47753   0.16895   0.49042   0.00000  Uiso   1.00
C59    C     0.48822   0.17985   0.43705   0.00000  Uiso   1.00
C60    C     0.51377   0.17583   0.01600   0.00000  Uiso   1.00
C61    C     0.55803   0.19674   0.48957   0.00000  Uiso   1.00
C62    C     0.56503   0.21176   0.43938   0.00000  Uiso   1.00
C63    C     0.53016   0.20429   0.41402   0.00000  Uiso   1.00
C64    C     0.50737   0.16252   0.06722   0.00000  Uiso   1.00
C65    C     0.58567   0.19174   0.06620   0.00000  Uiso   1.00
C66    C     0.45629   0.16665   0.40843   0.00000  Uiso   1.00
C67    C     0.54248   0.31204   0.25044   0.00000  Uiso   1.00
C68    C     0.47331   0.16728   0.35045   0.00000  Uiso   1.00
C69    C     0.54250   0.02128   0.25037   0.00000  Uiso   1.00
C70    C     0.49993   0.04274   0.25022   0.00000  Uiso   1.00
C71    C     0.45732   0.02129   0.25025   0.00000  Uiso   1.00
C72    C     0.45731   0.31206   0.25029   0.00000  Uiso   1.00
C73    C     0.49991   0.29060   0.25031   0.00000  Uiso   1.00
C74    C     0.63323   0.19404   0.28006   0.00000  Uiso   1.00
C75    C     0.34945   0.19391   0.28026   0.00000  Uiso   1.00
C76    C     0.36691   0.13949   0.21959   0.00000  Uiso   1.00
C77    C     0.65059   0.13947   0.21965   0.00000  Uiso   1.00
C78    C     0.49997   0.08735   0.25006   0.00000  Uiso   1.00
C79    C     0.52640   0.16717   0.14989   0.00000  Uiso   1.00
C80    C     0.59409   0.20362   0.01441   0.00000  Uiso   1.00
C81    C     0.54146   0.17229   0.09313   0.00000  Uiso   1.00
C82    C     0.40991   0.14924   0.43603   0.00000  Uiso   1.00
C83    C     0.39734   0.14371   0.48971   0.00000  Uiso   1.00
C84    C     0.43065   0.15242   0.01646   0.00000  Uiso   1.00
Cu85   Cu    0.45311   0.16666   0.25000   0.00000  Uiso   1.00
Cu86   Cu    0.54689   0.16667   0.25000   0.00000  Uiso   1.00
H87    H     0.61254   0.19942   0.08577   0.00000  Uiso   1.00
H88    H     0.57580   0.03728   0.25040   0.00000  Uiso   1.00
H89    H     0.42403   0.03731   0.25018   0.00000  Uiso   1.00
H90    H     0.42401   0.29605   0.25026   0.00000  Uiso   1.00
H91    H     0.60778   0.21620   0.30382   0.00000  Uiso   1.00
H92    H     0.36117   0.21568   0.30455   0.00000  Uiso   1.00
H93    H     0.39266   0.11774   0.19521   0.00000  Uiso   1.00
H94    H     0.63887   0.11772   0.19532   0.00000  Uiso   1.00
H95    H     0.59746   0.22963   0.41969   0.00000  Uiso   1.00
H96    H     0.62802   0.21945   0.49434   0.00000  Uiso   1.00
H97    H     0.47559   0.14502   0.08860   0.00000  Uiso   1.00
H98    H     0.41783   0.14673   0.05788   0.00000  Uiso   1.00
H99    H     0.36171   0.13111   0.01099   0.00000  Uiso   1.00
H100   H     0.53589   0.21903   0.37673   0.00000  Uiso   1.00
H101   H     0.57576   0.29602   0.25054   0.00000  Uiso   1.00
N102   N     0.38265   0.16666   0.24999   0.00000  Uiso   1.00
N103   N     0.61735   0.16669   0.24999   0.00000  Uiso   1.00
O104   O     0.46042   0.22678   0.25001   0.00000  Uiso   1.00
O105   O     0.53961   0.22679   0.25001   0.00000  Uiso   1.00
O106   O     0.44108   0.16665   0.32549   0.00000  Uiso   1.00
O107   O     0.52027   0.16666   0.32549   0.00000  Uiso   1.00
O108   O     0.46039   0.10654   0.25000   0.00000  Uiso   1.00
O109   O     0.53958   0.10655   0.25000   0.00000  Uiso   1.00
O110   O     0.47973   0.16667   0.17451   0.00000  Uiso   1.00
O111   O     0.55892   0.16668   0.17451   0.00000  Uiso   1.00
I112   I     0.35534   0.12786   0.40269   0.00000  Uiso   1.00
C113   C     0.83330   0.24599   0.25014   0.00000  Uiso   1.00
C114   C     0.81086   0.16895   0.49042   0.00000  Uiso   1.00
C115   C     0.82155   0.17985   0.43705   0.00000  Uiso   1.00
C116   C     0.84711   0.17583   0.01600   0.00000  Uiso   1.00
C117   C     0.89136   0.19674   0.48957   0.00000  Uiso   1.00
C118   C     0.89836   0.21176   0.43938   0.00000  Uiso   1.00
C119   C     0.86350   0.20429   0.41402   0.00000  Uiso   1.00
C120   C     0.84071   0.16252   0.06722   0.00000  Uiso   1.00
C121   C     0.91900   0.19174   0.06620   0.00000  Uiso   1.00
C122   C     0.78963   0.16665   0.40843   0.00000  Uiso   1.00
C123   C     0.87581   0.31204   0.25044   0.00000  Uiso   1.00
C124   C     0.80664   0.16728   0.35045   0.00000  Uiso   1.00
C125   C     0.87583   0.02128   0.25037   0.00000  Uiso   1.00
C126   C     0.83327   0.04274   0.25022   0.00000  Uiso   1.00
C127   C     0.79065   0.02129   0.25025   0.00000  Uiso   1.00
C128   C     0.79064   0.31206   0.25029   0.00000  Uiso   1.00
C129   C     0.83325   0.29060   0.25031   0.00000  Uiso   1.00
C130   C     0.96656   0.19404   0.28006   0.00000  Uiso   1.00
C131   C     0.68278   0.19391   0.28026   0.00000  Uiso   1.00
C132   C     0.70024   0.13949   0.21959   0.00000  Uiso   1.00
C133   C     0.98392   0.13947   0.21965   0.00000  Uiso   1.00
C134   C     0.83331   0.08735   0.25006   0.00000  Uiso   1.00
C135   C     0.85973   0.16717   0.14989   0.00000  Uiso   1.00
C136   C     0.92742   0.20362   0.01441   0.00000  Uiso   1.00
C137   C     0.87480   0.17229   0.09313   0.00000  Uiso   1.00
C138   C     0.74324   0.14924   0.43603   0.00000  Uiso   1.00
C139   C     0.73067   0.14371   0.48971   0.00000  Uiso   1.00
C140   C     0.76398   0.15242   0.01646   0.00000  Uiso   1.00
Cu141  Cu    0.78645   0.16666   0.25000   0.00000  Uiso   1.00
Cu142  Cu    0.88022   0.16667   0.25000   0.00000  Uiso   1.00
H143   H     0.94587   0.19942   0.08577   0.00000  Uiso   1.00
H144   H     0.90913   0.03728   0.25040   0.00000  Uiso   1.00
H145   H     0.75736   0.03731   0.25018   0.00000  Uiso   1.00
H146   H     0.75734   0.29605   0.25026   0.00000  Uiso   1.00
H147   H     0.94112   0.21620   0.30382   0.00000  Uiso   1.00
H148   H     0.69451   0.21568   0.30455   0.00000  Uiso   1.00
H149   H     0.72599   0.11774   0.19521   0.00000  Uiso   1.00
H150   H     0.97220   0.11772   0.19532   0.00000  Uiso   1.00
H151   H     0.93079   0.22963   0.41969   0.00000  Uiso   1.00
H152   H     0.96136   0.21945   0.49434   0.00000  Uiso   1.00
H153   H     0.80892   0.14502   0.08860   0.00000  Uiso   1.00
H154   H     0.75116   0.14673   0.05788   0.00000  Uiso   1.00
H155   H     0.69504   0.13111   0.01099   0.00000  Uiso   1.00
H156   H     0.86923   0.21903   0.37673   0.00000  Uiso   1.00
H157   H     0.90910   0.29602   0.25054   0.00000  Uiso   1.00
N158   N     0.71598   0.16666   0.24999   0.00000  Uiso   1.00
N159   N     0.95069   0.16669   0.24999   0.00000  Uiso   1.00
O160   O     0.79375   0.22678   0.25001   0.00000  Uiso   1.00
O161   O     0.87294   0.22679   0.25001   0.00000  Uiso   1.00
O162   O     0.77441   0.16665   0.32549   0.00000  Uiso   1.00
O163   O     0.85360   0.16666   0.32549   0.00000  Uiso   1.00
O164   O     0.79373   0.10654   0.25000   0.00000  Uiso   1.00
O165   O     0.87292   0.10655   0.25000   0.00000  Uiso   1.00
O166   O     0.81306   0.16667   0.17451   0.00000  Uiso   1.00
O167   O     0.89225   0.16668   0.17451   0.00000  Uiso   1.00
I168   I     0.68868   0.12786   0.40269   0.00000  Uiso   1.00
C169   C     0.16664   0.57932   0.25014   0.00000  Uiso   1.00
C170   C     0.14420   0.50229   0.49042   0.00000  Uiso   1.00
C171   C     0.15489   0.51318   0.43705   0.00000  Uiso   1.00
C172   C     0.18044   0.50917   0.01600   0.00000  Uiso   1.00
C173   C     0.22469   0.53007   0.48957   0.00000  Uiso   1.00
C174   C     0.23169   0.54509   0.43938   0.00000  Uiso   1.00
C175   C     0.19683   0.53763   0.41402   0.00000  Uiso   1.00
C176   C     0.17404   0.49585   0.06722   0.00000  Uiso   1.00
C177   C     0.25233   0.52507   0.06620   0.00000  Uiso   1.00
C178   C     0.12296   0.49998   0.40843   0.00000  Uiso   1.00
C179   C     0.20915   0.64538   0.25044   0.00000  Uiso   1.00
C180   C     0.13998   0.50061   0.35045   0.00000  Uiso   1.00
C181   C     0.20916   0.35461   0.25037   0.00000  Uiso   1.00
C182   C     0.16660   0.37607   0.25022   0.00000  Uiso   1.00
C183   C     0.12399   0.35462   0.25025   0.00000  Uiso   1.00
C184   C     0.12398   0.64539   0.25029   0.00000  Uiso   1.00
C185   C     0.16658   0.62393   0.25031   0.00000  Uiso   1.00
C186   C     0.29990   0.52738   0.28006   0.00000  Uiso   1.00
C187   C     0.01611   0.52724   0.28026   0.00000  Uiso   1.00
C188   C     0.03358   0.47282   0.21959   0.00000  Uiso   1.00
C189   C     0.31725   0.47280   0.21965   0.00000  Uiso   1.00
C190   C     0.16664   0.42068   0.25006   0.00000  Uiso   1.00
C191   C     0.19307   0.50051   0.14989   0.00000  Uiso   1.00
C192   C     0.26075   0.53695   0.01441   0.00000  Uiso   1.00
C193   C     0.20813   0.50562   0.09313   0.00000  Uiso   1.00
C194   C     0.07657   0.48258   0.43603   0.00000  Uiso   1.00
C195   C     0.06401   0.47705   0.48971   0.00000  Uiso   1.00
C196   C     0.09732   0.48575   0.01646   0.00000  Uiso   1.00
Cu197  Cu    0.11978   0.49999   0.25000   0.00000  Uiso   1.00
Cu198  Cu    0.21355   0.50001   0.25000   0.00000  Uiso   1.00
H199   H     0.27920   0.53275   0.08577   0.00000  Uiso   1.00
H200   H     0.24246   0.37062   0.25040   0.00000  Uiso   1.00
H201   H     0.09069   0.37064   0.25018   0.00000  Uiso   1.00
H202   H     0.09068   0.62938   0.25026   0.00000  Uiso   1.00
H203   H     0.27445   0.54953   0.30382   0.00000  Uiso   1.00
H204   H     0.02784   0.54902   0.30455   0.00000  Uiso   1.00
H205   H     0.05932   0.45108   0.19521   0.00000  Uiso   1.00
H206   H     0.30553   0.45106   0.19532   0.00000  Uiso   1.00
H207   H     0.26413   0.56296   0.41969   0.00000  Uiso   1.00
H208   H     0.29469   0.55279   0.49434   0.00000  Uiso   1.00
H209   H     0.14226   0.47835   0.08860   0.00000  Uiso   1.00
H210   H     0.08450   0.48006   0.05788   0.00000  Uiso   1.00
H211   H     0.02837   0.46444   0.01099   0.00000  Uiso   1.00
H212   H     0.20256   0.55236   0.37673   0.00000  Uiso   1.00
H213   H     0.24243   0.62936   0.25054   0.00000  Uiso   1.00
N214   N     0.04931   0.49999   0.24999   0.00000  Uiso   1.00
N215   N     0.28402   0.50002   0.24999   0.00000  Uiso   1.00
O216   O     0.12708   0.56011   0.25001   0.00000  Uiso   1.00
O217   O     0.20627   0.56012   0.25001   0.00000  Uiso   1.00
O218   O     0.10775   0.49998   0.32549   0.00000  Uiso   1.00
O219   O     0.18694   0.49999   0.32549   0.00000  Uiso   1.00
O220   O     0.12706   0.43988   0.25000   0.00000  Uiso   1.00
O221   O     0.20625   0.43989   0.25000   0.00000  Uiso   1.00
O222   O     0.14640   0.50001   0.17451   0.00000  Uiso   1.00
O223   O     0.22559   0.50002   0.17451   0.00000  Uiso   1.00
I224   I     0.02201   0.46119   0.40269   0.00000  Uiso   1.00
C225   C     0.49997   0.57932   0.25014   0.00000  Uiso   1.00
C226   C     0.47753   0.50229   0.49042   0.00000  Uiso   1.00
C227   C     0.48822   0.51318   0.43705   0.00000  Uiso   1.00
C228   C     0.51377   0.50917   0.01600   0.00000  Uiso   1.00
C229   C     0.55803   0.53007   0.48957   0.00000  Uiso   1.00
C230   C     0.56503   0.54509   0.43938   0.00000  Uiso   1.00
C231   C     0.53016   0.53763   0.41402   0.00000  Uiso   1.00
C232   C     0.50737   0.49585   0.06722   0.00000  Uiso   1.00
C233   C     0.58567   0.52507   0.06620   0.00000  Uiso   1.00
C234   C     0.45629   0.49998   0.40843   0.00000  Uiso   1.00
C235   C     0.54248   0.64538   0.25044   0.00000  Uiso   1.00
C236   C     0.47331   0.50061   0.35045   0.00000  Uiso   1.00
C237   C     0.54250   0.35461   0.25037   0.00000  Uiso   1.00
C238   C     0.49993   0.37607   0.25022   0.00000  Uiso   1.00
C239   C     0.45732   0.35462   0.25025   0.00000  Uiso   1.00
C240   C     0.45731   0.64539   0.25029   0.00000  Uiso   1.00
C241   C     0.49991   0.62393   0.25031   0.00000  Uiso   1.00
C242   C     0.63323   0.52738   0.28006   0.00000  Uiso   1.00
C243   C     0.34945   0.52724   0.28026   0.00000  Uiso   1.00
C244   C     0.36691   0.47282   0.21959   0.00000  Uiso   1.00
C245   C     0.65059   0.47280   0.21965   0.00000  Uiso   1.00
C246   C     0.49997   0.42068   0.25006   0.00000  Uiso   1.00
C247   C     0.52640   0.50051   0.14989   0.00000  Uiso   1.00
C248   C     0.59409   0.53695   0.01441   0.00000  Uiso   1.00
C249   C     0.54146   0.50562   0.09313   0.00000  Uiso   1.00
C250   C     0.40991   0.48258   0.43603   0.00000  Uiso   1.00
C251   C     0.39734   0.47705   0.48971   0.00000  Uiso   1.00
C252   C     0.43065   0.48575   0.01646   0.00000  Uiso   1.00
Cu253  Cu    0.45311   0.49999   0.25000   0.00000  Uiso   1.00
Cu254  Cu    0.54689   0.50001   0.25000   0.00000  Uiso   1.00
H255   H     0.61254   0.53275   0.08577   0.00000  Uiso   1.00
H256   H     0.57580   0.37062   0.25040   0.00000  Uiso   1.00
H257   H     0.42403   0.37064   0.25018   0.00000  Uiso   1.00
H258   H     0.42401   0.62938   0.25026   0.00000  Uiso   1.00
H259   H     0.60778   0.54953   0.30382   0.00000  Uiso   1.00
H260   H     0.36117   0.54902   0.30455   0.00000  Uiso   1.00
H261   H     0.39266   0.45108   0.19521   0.00000  Uiso   1.00
H262   H     0.63887   0.45106   0.19532   0.00000  Uiso   1.00
H263   H     0.59746   0.56296   0.41969   0.00000  Uiso   1.00
H264   H     0.62802   0.55279   0.49434   0.00000  Uiso   1.00
H265   H     0.47559   0.47835   0.08860   0.00000  Uiso   1.00
H266   H     0.41783   0.48006   0.05788   0.00000  Uiso   1.00
H267   H     0.36171   0.46444   0.01099   0.00000  Uiso   1.00
H268   H     0.53589   0.55236   0.37673   0.00000  Uiso   1.00
H269   H     0.57576   0.62936   0.25054   0.00000  Uiso   1.00
N270   N     0.38265   0.49999   0.24999   0.00000  Uiso   1.00
N271   N     0.61735   0.50002   0.24999   0.00000  Uiso   1.00
O272   O     0.46042   0.56011   0.25001   0.00000  Uiso   1.00
O273   O     0.53961   0.56012   0.25001   0.00000  Uiso   1.00
O274   O     0.44108   0.49998   0.32549   0.00000  Uiso   1.00
O275   O     0.52027   0.49999   0.32549   0.00000  Uiso   1.00
O276   O     0.46039   0.43988   0.25000   0.00000  Uiso   1.00
O277   O     0.53958   0.43989   0.25000   0.00000  Uiso   1.00
O278   O     0.47973   0.50001   0.17451   0.00000  Uiso   1.00
O279   O     0.55892   0.50002   0.17451   0.00000  Uiso   1.00
I280   I     0.35534   0.46119   0.40269   0.00000  Uiso   1.00
C281   C     0.83330   0.57932   0.25014   0.00000  Uiso   1.00
C282   C     0.81086   0.50229   0.49042   0.00000  Uiso   1.00
C283   C     0.82155   0.51318   0.43705   0.00000  Uiso   1.00
C284   C     0.84711   0.50917   0.01600   0.00000  Uiso   1.00
C285   C     0.89136   0.53007   0.48957   0.00000  Uiso   1.00
C286   C     0.89836   0.54509   0.43938   0.00000  Uiso   1.00
C287   C     0.86350   0.53763   0.41402   0.00000  Uiso   1.00
C288   C     0.84071   0.49585   0.06722   0.00000  Uiso   1.00
C289   C     0.91900   0.52507   0.06620   0.00000  Uiso   1.00
C290   C     0.78963   0.49998   0.40843   0.00000  Uiso   1.00
C291   C     0.87581   0.64538   0.25044   0.00000  Uiso   1.00
C292   C     0.80664   0.50061   0.35045   0.00000  Uiso   1.00
C293   C     0.87583   0.35461   0.25037   0.00000  Uiso   1.00
C294   C     0.83327   0.37607   0.25022   0.00000  Uiso   1.00
C295   C     0.79065   0.35462   0.25025   0.00000  Uiso   1.00
C296   C     0.79064   0.64539   0.25029   0.00000  Uiso   1.00
C297   C     0.83325   0.62393   0.25031   0.00000  Uiso   1.00
C298   C     0.96656   0.52738   0.28006   0.00000  Uiso   1.00
C299   C     0.68278   0.52724   0.28026   0.00000  Uiso   1.00
C300   C     0.70024   0.47282   0.21959   0.00000  Uiso   1.00
C301   C     0.98392   0.47280   0.21965   0.00000  Uiso   1.00
C302   C     0.83331   0.42068   0.25006   0.00000  Uiso   1.00
C303   C     0.85973   0.50051   0.14989   0.00000  Uiso   1.00
C304   C     0.92742   0.53695   0.01441   0.00000  Uiso   1.00
C305   C     0.87480   0.50562   0.09313   0.00000  Uiso   1.00
C306   C     0.74324   0.48258   0.43603   0.00000  Uiso   1.00
C307   C     0.73067   0.47705   0.48971   0.00000  Uiso   1.00
C308   C     0.76398   0.48575   0.01646   0.00000  Uiso   1.00
Cu309  Cu    0.78645   0.49999   0.25000   0.00000  Uiso   1.00
Cu310  Cu    0.88022   0.50001   0.25000   0.00000  Uiso   1.00
H311   H     0.94587   0.53275   0.08577   0.00000  Uiso   1.00
H312   H     0.90913   0.37062   0.25040   0.00000  Uiso   1.00
H313   H     0.75736   0.37064   0.25018   0.00000  Uiso   1.00
H314   H     0.75734   0.62938   0.25026   0.00000  Uiso   1.00
H315   H     0.94112   0.54953   0.30382   0.00000  Uiso   1.00
H316   H     0.69451   0.54902   0.30455   0.00000  Uiso   1.00
H317   H     0.72599   0.45108   0.19521   0.00000  Uiso   1.00
H318   H     0.97220   0.45106   0.19532   0.00000  Uiso   1.00
H319   H     0.93079   0.56296   0.41969   0.00000  Uiso   1.00
H320   H     0.96136   0.55279   0.49434   0.00000  Uiso   1.00
H321   H     0.80892   0.47835   0.08860   0.00000  Uiso   1.00
H322   H     0.75116   0.48006   0.05788   0.00000  Uiso   1.00
H323   H     0.69504   0.46444   0.01099   0.00000  Uiso   1.00
H324   H     0.86923   0.55236   0.37673   0.00000  Uiso   1.00
H325   H     0.90910   0.62936   0.25054   0.00000  Uiso   1.00
N326   N     0.71598   0.49999   0.24999   0.00000  Uiso   1.00
N327   N     0.95069   0.50002   0.24999   0.00000  Uiso   1.00
O328   O     0.79375   0.56011   0.25001   0.00000  Uiso   1.00
O329   O     0.87294   0.56012   0.25001   0.00000  Uiso   1.00
O330   O     0.77441   0.49998   0.32549   0.00000  Uiso   1.00
O331   O     0.85360   0.49999   0.32549   0.00000  Uiso   1.00
O332   O     0.79373   0.43988   0.25000   0.00000  Uiso   1.00
O333   O     0.87292   0.43989   0.25000   0.00000  Uiso   1.00
O334   O     0.81306   0.50001   0.17451   0.00000  Uiso   1.00
O335   O     0.89225   0.50002   0.17451   0.00000  Uiso   1.00
I336   I     0.68868   0.46119   0.40269   0.00000  Uiso   1.00
C337   C     0.16664   0.91265   0.25014   0.00000  Uiso   1.00
C338   C     0.14420   0.83562   0.49042   0.00000  Uiso   1.00
C339   C     0.15489   0.84652   0.43705   0.00000  Uiso   1.00
C340   C     0.18044   0.84250   0.01600   0.00000  Uiso   1.00
C341   C     0.22469   0.86341   0.48957   0.00000  Uiso   1.00
C342   C     0.23169   0.87843   0.43938   0.00000  Uiso   1.00
C343   C     0.19683   0.87096   0.41402   0.00000  Uiso   1.00
C344   C     0.17404   0.82919   0.06722   0.00000  Uiso   1.00
C345   C     0.25233   0.85841   0.06620   0.00000  Uiso   1.00
C346   C     0.12296   0.83332   0.40843   0.00000  Uiso   1.00
C347   C     0.20915   0.97871   0.25044   0.00000  Uiso   1.00
C348   C     0.13998   0.83395   0.35045   0.00000  Uiso   1.00
C349   C     0.20916   0.68794   0.25037   0.00000  Uiso   1.00
C350   C     0.16660   0.70940   0.25022   0.00000  Uiso   1.00
C351   C     0.12399   0.68796   0.25025   0.00000  Uiso   1.00
C352   C     0.12398   0.97872   0.25029   0.00000  Uiso   1.00
C353   C     0.16658   0.95726   0.25031   0.00000  Uiso   1.00
C354   C     0.29990   0.86071   0.28006   0.00000  Uiso   1.00
C355   C     0.01611   0.86057   0.28026   0.00000  Uiso   1.00
C356   C     0.03358   0.80616   0.21959   0.00000  Uiso   1.00
C357   C     0.31725   0.80614   0.21965   0.00000  Uiso   1.00
C358   C     0.16664   0.75401   0.25006   0.00000  Uiso   1.00
C359   C     0.19307   0.83384   0.14989   0.00000  Uiso   1.00
C360   C     0.26075   0.87029   0.01441   0.00000  Uiso   1.00
C361   C     0.20813   0.83896   0.09313   0.00000  Uiso   1.00
C362   C     0.07657   0.81591   0.43603   0.00000  Uiso   1.00
C363   C     0.06401   0.81038   0.48971   0.00000  Uiso   1.00
C364   C     0.09732   0.81908   0.01646   0.00000  Uiso   1.00
Cu365  Cu    0.11978   0.83333   0.25000   0.00000  Uiso   1.00
Cu366  Cu    0.21355   0.83334   0.25000   0.00000  Uiso   1.00
H367   H     0.27920   0.86609   0.08577   0.00000  Uiso   1.00
H368   H     0.24246   0.70395   0.25040   0.00000  Uiso   1.00
H369   H     0.09069   0.70398   0.25018   0.00000  Uiso   1.00
H370   H     0.09068   0.96272   0.25026   0.00000  Uiso   1.00
H371   H     0.27445   0.88287   0.30382   0.00000  Uiso   1.00
H372   H     0.02784   0.88235   0.30455   0.00000  Uiso   1.00
H373   H     0.05932   0.78441   0.19521   0.00000  Uiso   1.00
H374   H     0.30553   0.78439   0.19532   0.00000  Uiso   1.00
H375   H     0.26413   0.89629   0.41969   0.00000  Uiso   1.00
H376   H     0.29469   0.88612   0.49434   0.00000  Uiso   1.00
H377   H     0.14226   0.81168   0.08860   0.00000  Uiso   1.00
H378   H     0.08450   0.81340   0.05788   0.00000  Uiso   1.00
H379   H     0.02837   0.79778   0.01099   0.00000  Uiso   1.00
H380   H     0.20256   0.88569   0.37673   0.00000  Uiso   1.00
H381   H     0.24243   0.96269   0.25054   0.00000  Uiso   1.00
N382   N     0.04931   0.83332   0.24999   0.00000  Uiso   1.00
N383   N     0.28402   0.83335   0.24999   0.00000  Uiso   1.00
O384   O     0.12708   0.89345   0.25001   0.00000  Uiso   1.00
O385   O     0.20627   0.89346   0.25001   0.00000  Uiso   1.00
O386   O     0.10775   0.83332   0.32549   0.00000  Uiso   1.00
O387   O     0.18694   0.83333   0.32549   0.00000  Uiso   1.00
O388   O     0.12706   0.77321   0.25000   0.00000  Uiso   1.00
O389   O     0.20625   0.77322   0.25000   0.00000  Uiso   1.00
O390   O     0.14640   0.83334   0.17451   0.00000  Uiso   1.00
O391   O     0.22559   0.83335   0.17451   0.00000  Uiso   1.00
I392   I     0.02201   0.79452   0.40269   0.00000  Uiso   1.00
C393   C     0.49997   0.91265   0.25014   0.00000  Uiso   1.00
C394   C     0.47753   0.83562   0.49042   0.00000  Uiso   1.00
C395   C     0.48822   0.84652   0.43705   0.00000  Uiso   1.00
C396   C     0.51377   0.84250   0.01600   0.00000  Uiso   1.00
C397   C     0.55803   0.86341   0.48957   0.00000  Uiso   1.00
C398   C     0.56503   0.87843   0.43938   0.00000  Uiso   1.00
C399   C     0.53016   0.87096   0.41402   0.00000  Uiso   1.00
C400   C     0.50737   0.82919   0.06722   0.00000  Uiso   1.00
C401   C     0.58567   0.85841   0.06620   0.00000  Uiso   1.00
C402   C     0.45629   0.83332   0.40843   0.00000  Uiso   1.00
C403   C     0.54248   0.97871   0.25044   0.00000  Uiso   1.00
C404   C     0.47331   0.83395   0.35045   0.00000  Uiso   1.00
C405   C     0.54250   0.68794   0.25037   0.00000  Uiso   1.00
C406   C     0.49993   0.70940   0.25022   0.00000  Uiso   1.00
C407   C     0.45732   0.68796   0.25025   0.00000  Uiso   1.00
C408   C     0.45731   0.97872   0.25029   0.00000  Uiso   1.00
C409   C     0.49991   0.95726   0.25031   0.00000  Uiso   1.00
C410   C     0.63323   0.86071   0.28006   0.00000  Uiso   1.00
C411   C     0.34945   0.86057   0.28026   0.00000  Uiso   1.00
C412   C     0.36691   0.80616   0.21959   0.00000  Uiso   1.00
C413   C     0.65059   0.80614   0.21965   0.00000  Uiso   1.00
C414   C     0.49997   0.75401   0.25006   0.00000  Uiso   1.00
C415   C     0.52640   0.83384   0.14989   0.00000  Uiso   1.00
C416   C     0.59409   0.87029   0.01441   0.00000  Uiso   1.00
C417   C     0.54146   0.83896   0.09313   0.00000  Uiso   1.00
C418   C     0.40991   0.81591   0.43603   0.00000  Uiso   1.00
C419   C     0.39734   0.81038   0.48971   0.00000  Uiso   1.00
C420   C     0.43065   0.81908   0.01646   0.00000  Uiso   1.00
Cu421  Cu    0.45311   0.83333   0.25000   0.00000  Uiso   1.00
Cu422  Cu    0.54689   0.83334   0.25000   0.00000  Uiso   1.00
H423   H     0.61254   0.86609   0.08577   0.00000  Uiso   1.00
H424   H     0.57580   0.70395   0.25040   0.00000  Uiso   1.00
H425   H     0.42403   0.70398   0.25018   0.00000  Uiso   1.00
H426   H     0.42401   0.96272   0.25026   0.00000  Uiso   1.00
H427   H     0.60778   0.88287   0.30382   0.00000  Uiso   1.00
H428   H     0.36117   0.88235   0.30455   0.00000  Uiso   1.00
H429   H     0.39266   0.78441   0.19521   0.00000  Uiso   1.00
H430   H     0.63887   0.78439   0.19532   0.00000  Uiso   1.00
H431   H     0.59746   0.89629   0.41969   0.00000  Uiso   1.00
H432   H     0.62802   0.88612   0.49434   0.00000  Uiso   1.00
H433   H     0.47559   0.81168   0.08860   0.00000  Uiso   1.00
H434   H     0.41783   0.81340   0.05788   0.00000  Uiso   1.00
H435   H     0.36171   0.79778   0.01099   0.00000  Uiso   1.00
H436   H     0.53589   0.88569   0.37673   0.00000  Uiso   1.00
H437   H     0.57576   0.96269   0.25054   0.00000  Uiso   1.00
N438   N     0.38265   0.83332   0.24999   0.00000  Uiso   1.00
N439   N     0.61735   0.83335   0.24999   0.00000  Uiso   1.00
O440   O     0.46042   0.89345   0.25001   0.00000  Uiso   1.00
O441   O     0.53961   0.89346   0.25001   0.00000  Uiso   1.00
O442   O     0.44108   0.83332   0.32549   0.00000  Uiso   1.00
O443   O     0.52027   0.83333   0.32549   0.00000  Uiso   1.00
O444   O     0.46039   0.77321   0.25000   0.00000  Uiso   1.00
O445   O     0.53958   0.77322   0.25000   0.00000  Uiso   1.00
O446   O     0.47973   0.83334   0.17451   0.00000  Uiso   1.00
O447   O     0.55892   0.83335   0.17451   0.00000  Uiso   1.00
I448   I     0.35534   0.79452   0.40269   0.00000  Uiso   1.00
C449   C     0.83330   0.91265   0.25014   0.00000  Uiso   1.00
C450   C     0.81086   0.83562   0.49042   0.00000  Uiso   1.00
C451   C     0.82155   0.84652   0.43705   0.00000  Uiso   1.00
C452   C     0.84711   0.84250   0.01600   0.00000  Uiso   1.00
C453   C     0.89136   0.86341   0.48957   0.00000  Uiso   1.00
C454   C     0.89836   0.87843   0.43938   0.00000  Uiso   1.00
C455   C     0.86350   0.87096   0.41402   0.00000  Uiso   1.00
C456   C     0.84071   0.82919   0.06722   0.00000  Uiso   1.00
C457   C     0.91900   0.85841   0.06620   0.00000  Uiso   1.00
C458   C     0.78963   0.83332   0.40843   0.00000  Uiso   1.00
C459   C     0.87581   0.97871   0.25044   0.00000  Uiso   1.00
C460   C     0.80664   0.83395   0.35045   0.00000  Uiso   1.00
C461   C     0.87583   0.68794   0.25037   0.00000  Uiso   1.00
C462   C     0.83327   0.70940   0.25022   0.00000  Uiso   1.00
C463   C     0.79065   0.68796   0.25025   0.00000  Uiso   1.00
C464   C     0.79064   0.97872   0.25029   0.00000  Uiso   1.00
C465   C     0.83325   0.95726   0.25031   0.00000  Uiso   1.00
C466   C     0.96656   0.86071   0.28006   0.00000  Uiso   1.00
C467   C     0.68278   0.86057   0.28026   0.00000  Uiso   1.00
C468   C     0.70024   0.80616   0.21959   0.00000  Uiso   1.00
C469   C     0.98392   0.80614   0.21965   0.00000  Uiso   1.00
C470   C     0.83331   0.75401   0.25006   0.00000  Uiso   1.00
C471   C     0.85973   0.83384   0.14989   0.00000  Uiso   1.00
C472   C     0.92742   0.87029   0.01441   0.00000  Uiso   1.00
C473   C     0.87480   0.83896   0.09313   0.00000  Uiso   1.00
C474   C     0.74324   0.81591   0.43603   0.00000  Uiso   1.00
C475   C     0.73067   0.81038   0.48971   0.00000  Uiso   1.00
C476   C     0.76398   0.81908   0.01646   0.00000  Uiso   1.00
Cu477  Cu    0.78645   0.83333   0.25000   0.00000  Uiso   1.00
Cu478  Cu    0.88022   0.83334   0.25000   0.00000  Uiso   1.00
H479   H     0.94587   0.86609   0.08577   0.00000  Uiso   1.00
H480   H     0.90913   0.70395   0.25040   0.00000  Uiso   1.00
H481   H     0.75736   0.70398   0.25018   0.00000  Uiso   1.00
H482   H     0.75734   0.96272   0.25026   0.00000  Uiso   1.00
H483   H     0.94112   0.88287   0.30382   0.00000  Uiso   1.00
H484   H     0.69451   0.88235   0.30455   0.00000  Uiso   1.00
H485   H     0.72599   0.78441   0.19521   0.00000  Uiso   1.00
H486   H     0.97220   0.78439   0.19532   0.00000  Uiso   1.00
H487   H     0.93079   0.89629   0.41969   0.00000  Uiso   1.00
H488   H     0.96136   0.88612   0.49434   0.00000  Uiso   1.00
H489   H     0.80892   0.81168   0.08860   0.00000  Uiso   1.00
H490   H     0.75116   0.81340   0.05788   0.00000  Uiso   1.00
H491   H     0.69504   0.79778   0.01099   0.00000  Uiso   1.00
H492   H     0.86923   0.88569   0.37673   0.00000  Uiso   1.00
H493   H     0.90910   0.96269   0.25054   0.00000  Uiso   1.00
N494   N     0.71598   0.83332   0.24999   0.00000  Uiso   1.00
N495   N     0.95069   0.83335   0.24999   0.00000  Uiso   1.00
O496   O     0.79375   0.89345   0.25001   0.00000  Uiso   1.00
O497   O     0.87294   0.89346   0.25001   0.00000  Uiso   1.00
O498   O     0.77441   0.83332   0.32549   0.00000  Uiso   1.00
O499   O     0.85360   0.83333   0.32549   0.00000  Uiso   1.00
O500   O     0.79373   0.77321   0.25000   0.00000  Uiso   1.00
O501   O     0.87292   0.77322   0.25000   0.00000  Uiso   1.00
O502   O     0.81306   0.83334   0.17451   0.00000  Uiso   1.00
O503   O     0.89225   0.83335   0.17451   0.00000  Uiso   1.00
I504   I     0.68868   0.79452   0.40269   0.00000  Uiso   1.00
C505   C     0.16664   0.24599   0.75014   0.00000  Uiso   1.00
C506   C     0.14420   0.16895   0.99042   0.00000  Uiso   1.00
C507   C     0.15489   0.17985   0.93705   0.00000  Uiso   1.00
C508   C     0.18044   0.17583   0.51600   0.00000  Uiso   1.00
C509   C     0.22469   0.19674   0.98957   0.00000  Uiso   1.00
C510   C     0.23169   0.21176   0.93938   0.00000  Uiso   1.00
C511   C     0.19683   0.20429   0.91402   0.00000  Uiso   1.00
C512   C     0.17404   0.16252   0.56722   0.00000  Uiso   1.00
C513   C     0.25233   0.19174   0.56620   0.00000  Uiso   1.00
C514   C     0.12296   0.16665   0.90843   0.00000  Uiso   1.00
C515   C     0.20915   0.31204   0.75044   0.00000  Uiso   1.00
C516   C     0.13998   0.16728   0.85045   0.00000  Uiso   1.00
C517   C     0.20916   0.02128   0.75037   0.00000  Uiso   1.00
C518   C     0.16660   0.04274   0.75022   0.00000  Uiso   1.00
C519   C     0.12399   0.02129   0.75025   0.00000  Uiso   1.00
C520   C     0.12398   0.31206   0.75029   0.00000  Uiso   1.00
C521   C     0.16658   0.29060   0.75031   0.00000  Uiso   1.00
C522   C     0.29990   0.19404   0.78006   0.00000  Uiso   1.00
C523   C     0.01611   0.19391   0.78026   0.00000  Uiso   1.00
C524   C     0.03358   0.13949   0.71959   0.00000  Uiso   1.00
C525   C     0.31725   0.13947   0.71965   0.00000  Uiso   1.00
C526   C     0.16664   0.08735   0.75006   0.00000  Uiso   1.00
C527   C     0.19307   0.16717   0.64989   0.00000  Uiso   1.00
C528   C     0.26075   0.20362   0.51441   0.00000  Uiso   1.00
C529   C     0.20813   0.17229   0.59313   0.00000  Uiso   1.00
C530   C     0.07657   0.14924   0.93603   0.00000  Uiso   1.00
C531   C     0.06401   0.14371   0.98971   0.00000  Uiso   1.00
C532   C     0.09732   0.15242   0.51646   0.00000  Uiso   1.00
Cu533  Cu    0.11978   0.16666   0.75000   0.00000  Uiso   1.00
Cu534  Cu    0.21355   0.16667   0.75000   0.00000  Uiso   1.00
H535   H     0.27920   0.19942   0.58577   0.00000  Uiso   1.00
H536   H     0.24246   0.03728   0.75040   0.00000  Uiso   1.00
H537   H     0.09069   0.03731   0.75018   0.00000  Uiso   1.00
H538   H     0.09068   0.29605   0.75026   0.00000  Uiso   1.00
H539   H     0.27445   0.21620   0.80382   0.00000  Uiso   1.00
H540   H     0.02784   0.21568   0.80455   0.00000  Uiso   1.00
H541   H     0.05932   0.11774   0.69521   0.00000  Uiso   1.00
H542   H     0.30553   0.11772   0.69532   0.00000  Uiso   1.00
H543   H     0.26413   0.22963   0.91969   0.00000  Uiso   1.00
H544   H     0.29469   0.21945   0.99434   0.00000  Uiso   1.00
H545   H     0.14226   0.14502   0.58860   0.00000  Uiso   1.00
H546   H     0.08450   0.14673   0.55788   0.00000  Uiso   1.00
H547   H     0.02837   0.13111   0.51099   0.00000  Uiso   1.00
H548   H     0.20256   0.21903   0.87673   0.00000  Uiso   1.00
H549   H     0.24243   0.29602   0.75054   0.00000  Uiso   1.00
N550   N     0.04931   0.16666   0.74999   0.00000  Uiso   1.00
N551   N     0.28402   0.16669   0.74999   0.00000  Uiso   1.00
O552   O     0.12708   0.22678   0.75001   0.00000  Uiso   1.00
O553   O     0.20627   0.22679   0.75001   0.00000  Uiso   1.00
O554   O     0.10775   0.16665   0.82549   0.00000  Uiso   1.00
O555   O     0.18694   0.16666   0.82549   0.00000  Uiso   1.00
O556   O     0.12706   0.10654   0.75000   0.00000  Uiso   1.00
O557   O     0.20625   0.10655   0.75000   0.00000  Uiso   1.00
O558   O     0.14640   0.16667   0.67451   0.00000  Uiso   1.00
O559   O     0.22559   0.16668   0.67451   0.00000  Uiso   1.00
I560   I     0.02201   0.12786   0.90269   0.00000  Uiso   1.00
C561   C     0.49997   0.24599   0.75014   0.00000  Uiso   1.00
C562   C     0.47753   0.16895   0.99042   0.00000  Uiso   1.00
C563   C     0.48822   0.17985   0.93705   0.00000  Uiso   1.00
C564   C     0.51377   0.17583   0.51600   0.00000  Uiso   1.00
C565   C     0.55803   0.19674   0.98957   0.00000  Uiso   1.00
C566   C     0.56503   0.21176   0.93938   0.00000  Uiso   1.00
C567   C     0.53016   0.20429   0.91402   0.00000  Uiso   1.00
C568   C     0.50737   0.16252   0.56722   0.00000  Uiso   1.00
C569   C     0.58567   0.19174   0.56620   0.00000  Uiso   1.00
C570   C     0.45629   0.16665   0.90843   0.00000  Uiso   1.00
C571   C     0.54248   0.31204   0.75044   0.00000  Uiso   1.00
C572   C     0.47331   0.16728   0.85045   0.00000  Uiso   1.00
C573   C     0.54250   0.02128   0.75037   0.00000  Uiso   1.00
C574   C     0.49993   0.04274   0.75022   0.00000  Uiso   1.00
C575   C     0.45732   0.02129   0.75025   0.00000  Uiso   1.00
C576   C     0.45731   0.31206   0.75029   0.00000  Uiso   1.00
C577   C     0.49991   0.29060   0.75031   0.00000  Uiso   1.00
C578   C     0.63323   0.19404   0.78006   0.00000  Uiso   1.00
C579   C     0.34945   0.19391   0.78026   0.00000  Uiso   1.00
C580   C     0.36691   0.13949   0.71959   0.00000  Uiso   1.00
C581   C     0.65059   0.13947   0.71965   0.00000  Uiso   1.00
C582   C     0.49997   0.08735   0.75006   0.00000  Uiso   1.00
C583   C     0.52640   0.16717   0.64989   0.00000  Uiso   1.00
C584   C     0.59409   0.20362   0.51441   0.00000  Uiso   1.00
C585   C     0.54146   0.17229   0.59313   0.00000  Uiso   1.00
C586   C     0.40991   0.14924   0.93603   0.00000  Uiso   1.00
C587   C     0.39734   0.14371   0.98971   0.00000  Uiso   1.00
C588   C     0.43065   0.15242   0.51646   0.00000  Uiso   1.00
Cu589  Cu    0.45311   0.16666   0.75000   0.00000  Uiso   1.00
Cu590  Cu    0.54689   0.16667   0.75000   0.00000  Uiso   1.00
H591   H     0.61254   0.19942   0.58577   0.00000  Uiso   1.00
H592   H     0.57580   0.03728   0.75040   0.00000  Uiso   1.00
H593   H     0.42403   0.03731   0.75018   0.00000  Uiso   1.00
H594   H     0.42401   0.29605   0.75026   0.00000  Uiso   1.00
H595   H     0.60778   0.21620   0.80382   0.00000  Uiso   1.00
H596   H     0.36117   0.21568   0.80455   0.00000  Uiso   1.00
H597   H     0.39266   0.11774   0.69521   0.00000  Uiso   1.00
H598   H     0.63887   0.11772   0.69532   0.00000  Uiso   1.00
H599   H     0.59746   0.22963   0.91969   0.00000  Uiso   1.00
H600   H     0.62802   0.21945   0.99434   0.00000  Uiso   1.00
H601   H     0.47559   0.14502   0.58860   0.00000  Uiso   1.00
H602   H     0.41783   0.14673   0.55788   0.00000  Uiso   1.00
H603   H     0.36171   0.13111   0.51099   0.00000  Uiso   1.00
H604   H     0.53589   0.21903   0.87673   0.00000  Uiso   1.00
H605   H     0.57576   0.29602   0.75054   0.00000  Uiso   1.00
N606   N     0.38265   0.16666   0.74999   0.00000  Uiso   1.00
N607   N     0.61735   0.16669   0.74999   0.00000  Uiso   1.00
O608   O     0.46042   0.22678   0.75001   0.00000  Uiso   1.00
O609   O     0.53961   0.22679   0.75001   0.00000  Uiso   1.00
O610   O     0.44108   0.16665   0.82549   0.00000  Uiso   1.00
O611   O     0.52027   0.16666   0.82549   0.00000  Uiso   1.00
O612   O     0.46039   0.10654   0.75000   0.00000  Uiso   1.00
O613   O     0.53958   0.10655   0.75000   0.00000  Uiso   1.00
O614   O     0.47973   0.16667   0.67451   0.00000  Uiso   1.00
O615   O     0.55892   0.16668   0.67451   0.00000  Uiso   1.00
I616   I     0.35534   0.12786   0.90269   0.00000  Uiso   1.00
C617   C     0.83330   0.24599   0.75014   0.00000  Uiso   1.00
C618   C     0.81086   0.16895   0.99042   0.00000  Uiso   1.00
C619   C     0.82155   0.17985   0.93705   0.00000  Uiso   1.00
C620   C     0.84711   0.17583   0.51600   0.00000  Uiso   1.00
C621   C     0.89136   0.19674   0.98957   0.00000  Uiso   1.00
C622   C     0.89836   0.21176   0.93938   0.00000  Uiso   1.00
C623   C     0.86350   0.20429   0.91402   0.00000  Uiso   1.00
C624   C     0.84071   0.16252   0.56722   0.00000  Uiso   1.00
C625   C     0.91900   0.19174   0.56620   0.00000  Uiso   1.00
C626   C     0.78963   0.16665   0.90843   0.00000  Uiso   1.00
C627   C     0.87581   0.31204   0.75044   0.00000  Uiso   1.00
C628   C     0.80664   0.16728   0.85045   0.00000  Uiso   1.00
C629   C     0.87583   0.02128   0.75037   0.00000  Uiso   1.00
C630   C     0.83327   0.04274   0.75022   0.00000  Uiso   1.00
C631   C     0.79065   0.02129   0.75025   0.00000  Uiso   1.00
C632   C     0.79064   0.31206   0.75029   0.00000  Uiso   1.00
C633   C     0.83325   0.29060   0.75031   0.00000  Uiso   1.00
C634   C     0.96656   0.19404   0.78006   0.00000  Uiso   1.00
C635   C     0.68278   0.19391   0.78026   0.00000  Uiso   1.00
C636   C     0.70024   0.13949   0.71959   0.00000  Uiso   1.00
C637   C     0.98392   0.13947   0.71965   0.00000  Uiso   1.00
C638   C     0.83331   0.08735   0.75006   0.00000  Uiso   1.00
C639   C     0.85973   0.16717   0.64989   0.00000  Uiso   1.00
C640   C     0.92742   0.20362   0.51441   0.00000  Uiso   1.00
C641   C     0.87480   0.17229   0.59313   0.00000  Uiso   1.00
C642   C     0.74324   0.14924   0.93603   0.00000  Uiso   1.00
C643   C     0.73067   0.14371   0.98971   0.00000  Uiso   1.00
C644   C     0.76398   0.15242   0.51646   0.00000  Uiso   1.00
Cu645  Cu    0.78645   0.16666   0.75000   0.00000  Uiso   1.00
Cu646  Cu    0.88022   0.16667   0.75000   0.00000  Uiso   1.00
H647   H     0.94587   0.19942   0.58577   0.00000  Uiso   1.00
H648   H     0.90913   0.03728   0.75040   0.00000  Uiso   1.00
H649   H     0.75736   0.03731   0.75018   0.00000  Uiso   1.00
H650   H     0.75734   0.29605   0.75026   0.00000  Uiso   1.00
H651   H     0.94112   0.21620   0.80382   0.00000  Uiso   1.00
H652   H     0.69451   0.21568   0.80455   0.00000  Uiso   1.00
H653   H     0.72599   0.11774   0.69521   0.00000  Uiso   1.00
H654   H     0.97220   0.11772   0.69532   0.00000  Uiso   1.00
H655   H     0.93079   0.22963   0.91969   0.00000  Uiso   1.00
H656   H     0.96136   0.21945   0.99434   0.00000  Uiso   1.00
H657   H     0.80892   0.14502   0.58860   0.00000  Uiso   1.00
H658   H     0.75116   0.14673   0.55788   0.00000  Uiso   1.00
H659   H     0.69504   0.13111   0.51099   0.00000  Uiso   1.00
H660   H     0.86923   0.21903   0.87673   0.00000  Uiso   1.00
H661   H     0.90910   0.29602   0.75054   0.00000  Uiso   1.00
N662   N     0.71598   0.16666   0.74999   0.00000  Uiso   1.00
N663   N     0.95069   0.16669   0.74999   0.00000  Uiso   1.00
O664   O     0.79375   0.22678   0.75001   0.00000  Uiso   1.00
O665   O     0.87294   0.22679   0.75001   0.00000  Uiso   1.00
O666   O     0.77441   0.16665   0.82549   0.00000  Uiso   1.00
O667   O     0.85360   0.16666   0.82549   0.00000  Uiso   1.00
O668   O     0.79373   0.10654   0.75000   0.00000  Uiso   1.00
O669   O     0.87292   0.10655   0.75000   0.00000  Uiso   1.00
O670   O     0.81306   0.16667   0.67451   0.00000  Uiso   1.00
O671   O     0.89225   0.16668   0.67451   0.00000  Uiso   1.00
I672   I     0.68868   0.12786   0.90269   0.00000  Uiso   1.00
C673   C     0.16664   0.57932   0.75014   0.00000  Uiso   1.00
C674   C     0.14420   0.50229   0.99042   0.00000  Uiso   1.00
C675   C     0.15489   0.51318   0.93705   0.00000  Uiso   1.00
C676   C     0.18044   0.50917   0.51600   0.00000  Uiso   1.00
C677   C     0.22469   0.53007   0.98957   0.00000  Uiso   1.00
C678   C     0.23169   0.54509   0.93938   0.00000  Uiso   1.00
C679   C     0.19683   0.53763   0.91402   0.00000  Uiso   1.00
C680   C     0.17404   0.49585   0.56722   0.00000  Uiso   1.00
C681   C     0.25233   0.52507   0.56620   0.00000  Uiso   1.00
C682   C     0.12296   0.49998   0.90843   0.00000  Uiso   1.00
C683   C     0.20915   0.64538   0.75044   0.00000  Uiso   1.00
C684   C     0.13998   0.50061   0.85045   0.00000  Uiso   1.00
C685   C     0.20916   0.35461   0.75037   0.00000  Uiso   1.00
C686   C     0.16660   0.37607   0.75022   0.00000  Uiso   1.00
C687   C     0.12399   0.35462   0.75025   0.00000  Uiso   1.00
C688   C     0.12398   0.64539   0.75029   0.00000  Uiso   1.00
C689   C     0.16658   0.62393   0.75031   0.00000  Uiso   1.00
C690   C     0.29990   0.52738   0.78006   0.00000  Uiso   1.00
C691   C     0.01611   0.52724   0.78026   0.00000  Uiso   1.00
C692   C     0.03358   0.47282   0.71959   0.00000  Uiso   1.00
C693   C     0.31725   0.47280   0.71965   0.00000  Uiso   1.00
C694   C     0.16664   0.42068   0.75006   0.00000  Uiso   1.00
C695   C     0.19307   0.50051   0.64989   0.00000  Uiso   1.00
C696   C     0.26075   0.53695   0.51441   0.00000  Uiso   1.00
C697   C     0.20813   0.50562   0.59313   0.00000  Uiso   1.00
C698   C     0.07657   0.48258   0.93603   0.00000  Uiso   1.00
C699   C     0.06401   0.47705   0.98971   0.00000  Uiso   1.00
C700   C     0.09732   0.48575   0.51646   0.00000  Uiso   1.00
Cu701  Cu    0.11978   0.49999   0.75000   0.00000  Uiso   1.00
Cu702  Cu    0.21355   0.50001   0.75000   0.00000  Uiso   1.00
H703   H     0.27920   0.53275   0.58577   0.00000  Uiso   1.00
H704   H     0.24246   0.37062   0.75040   0.00000  Uiso   1.00
H705   H     0.09069   0.37064   0.75018   0.00000  Uiso   1.00
H706   H     0.09068   0.62938   0.75026   0.00000  Uiso   1.00
H707   H     0.27445   0.54953   0.80382   0.00000  Uiso   1.00
H708   H     0.02784   0.54902   0.80455   0.00000  Uiso   1.00
H709   H     0.05932   0.45108   0.69521   0.00000  Uiso   1.00
H710   H     0.30553   0.45106   0.69532   0.00000  Uiso   1.00
H711   H     0.26413   0.56296   0.91969   0.00000  Uiso   1.00
H712   H     0.29469   0.55279   0.99434   0.00000  Uiso   1.00
H713   H     0.14226   0.47835   0.58860   0.00000  Uiso   1.00
H714   H     0.08450   0.48006   0.55788   0.00000  Uiso   1.00
H715   H     0.02837   0.46444   0.51099   0.00000  Uiso   1.00
H716   H     0.20256   0.55236   0.87673   0.00000  Uiso   1.00
H717   H     0.24243   0.62936   0.75054   0.00000  Uiso   1.00
N718   N     0.04931   0.49999   0.74999   0.00000  Uiso   1.00
N719   N     0.28402   0.50002   0.74999   0.00000  Uiso   1.00
O720   O     0.12708   0.56011   0.75001   0.00000  Uiso   1.00
O721   O     0.20627   0.56012   0.75001   0.00000  Uiso   1.00
O722   O     0.10775   0.49998   0.82549   0.00000  Uiso   1.00
O723   O     0.18694   0.49999   0.82549   0.00000  Uiso   1.00
O724   O     0.12706   0.43988   0.75000   0.00000  Uiso   1.00
O725   O     0.20625   0.43989   0.75000   0.00000  Uiso   1.00
O726   O     0.14640   0.50001   0.67451   0.00000  Uiso   1.00
O727   O     0.22559   0.50002   0.67451   0.00000  Uiso   1.00
I728   I     0.02201   0.46119   0.90269   0.00000  Uiso   1.00
C729   C     0.49997   0.57932   0.75014   0.00000  Uiso   1.00
C730   C     0.47753   0.50229   0.99042   0.00000  Uiso   1.00
C731   C     0.48822   0.51318   0.93705   0.00000  Uiso   1.00
C732   C     0.51377   0.50917   0.51600   0.00000  Uiso   1.00
C733   C     0.55803   0.53007   0.98957   0.00000  Uiso   1.00
C734   C     0.56503   0.54509   0.93938   0.00000  Uiso   1.00
C735   C     0.53016   0.53763   0.91402   0.00000  Uiso   1.00
C736   C     0.50737   0.49585   0.56722   0.00000  Uiso   1.00
C737   C     0.58567   0.52507   0.56620   0.00000  Uiso   1.00
C738   C     0.45629   0.49998   0.90843   0.00000  Uiso   1.00
C739   C     0.54248   0.64538   0.75044   0.00000  Uiso   1.00
C740   C     0.47331   0.50061   0.85045   0.00000  Uiso   1.00
C741   C     0.54250   0.35461   0.75037   0.00000  Uiso   1.00
C742   C     0.49993   0.37607   0.75022   0.00000  Uiso   1.00
C743   C     0.45732   0.35462   0.75025   0.00000  Uiso   1.00
C744   C     0.45731   0.64539   0.75029   0.00000  Uiso   1.00
C745   C     0.49991   0.62393   0.75031   0.00000  Uiso   1.00
C746   C     0.63323   0.52738   0.78006   0.00000  Uiso   1.00
C747   C     0.34945   0.52724   0.78026   0.00000  Uiso   1.00
C748   C     0.36691   0.47282   0.71959   0.00000  Uiso   1.00
C749   C     0.65059   0.47280   0.71965   0.00000  Uiso   1.00
C750   C     0.49997   0.42068   0.75006   0.00000  Uiso   1.00
C751   C     0.52640   0.50051   0.64989   0.00000  Uiso   1.00
C752   C     0.59409   0.53695   0.51441   0.00000  Uiso   1.00
C753   C     0.54146   0.50562   0.59313   0.00000  Uiso   1.00
C754   C     0.40991   0.48258   0.93603   0.00000  Uiso   1.00
C755   C     0.39734   0.47705   0.98971   0.00000  Uiso   1.00
C756   C     0.43065   0.48575   0.51646   0.00000  Uiso   1.00
Cu757  Cu    0.45311   0.49999   0.75000   0.00000  Uiso   1.00
Cu758  Cu    0.54689   0.50001   0.75000   0.00000  Uiso   1.00
H759   H     0.61254   0.53275   0.58577   0.00000  Uiso   1.00
H760   H     0.57580   0.37062   0.75040   0.00000  Uiso   1.00
H761   H     0.42403   0.37064   0.75018   0.00000  Uiso   1.00
H762   H     0.42401   0.62938   0.75026   0.00000  Uiso   1.00
H763   H     0.60778   0.54953   0.80382   0.00000  Uiso   1.00
H764   H     0.36117   0.54902   0.80455   0.00000  Uiso   1.00
H765   H     0.39266   0.45108   0.69521   0.00000  Uiso   1.00
H766   H     0.63887   0.45106   0.69532   0.00000  Uiso   1.00
H767   H     0.59746   0.56296   0.91969   0.00000  Uiso   1.00
H768   H     0.62802   0.55279   0.99434   0.00000  Uiso   1.00
H769   H     0.47559   0.47835   0.58860   0.00000  Uiso   1.00
H770   H     0.41783   0.48006   0.55788   0.00000  Uiso   1.00
H771   H     0.36171   0.46444   0.51099   0.00000  Uiso   1.00
H772   H     0.53589   0.55236   0.87673   0.00000  Uiso   1.00
H773   H     0.57576   0.62936   0.75054   0.00000  Uiso   1.00
N774   N     0.38265   0.49999   0.74999   0.00000  Uiso   1.00
N775   N     0.61735   0.50002   0.74999   0.00000  Uiso   1.00
O776   O     0.46042   0.56011   0.75001   0.00000  Uiso   1.00
O777   O     0.53961   0.56012   0.75001   0.00000  Uiso   1.00
O778   O     0.44108   0.49998   0.82549   0.00000  Uiso   1.00
O779   O     0.52027   0.49999   0.82549   0.00000  Uiso   1.00
O780   O     0.46039   0.43988   0.75000   0.00000  Uiso   1.00
O781   O     0.53958   0.43989   0.75000   0.00000  Uiso   1.00
O782   O     0.47973   0.50001   0.67451   0.00000  Uiso   1.00
O783   O     0.55892   0.50002   0.67451   0.00000  Uiso   1.00
I784   I     0.35534   0.46119   0.90269   0.00000  Uiso   1.00
C785   C     0.83330   0.57932   0.75014   0.00000  Uiso   1.00
C786   C     0.81086   0.50229   0.99042   0.00000  Uiso   1.00
C787   C     0.82155   0.51318   0.93705   0.00000  Uiso   1.00
C788   C     0.84711   0.50917   0.51600   0.00000  Uiso   1.00
C789   C     0.89136   0.53007   0.98957   0.00000  Uiso   1.00
C790   C     0.89836   0.54509   0.93938   0.00000  Uiso   1.00
C791   C     0.86350   0.53763   0.91402   0.00000  Uiso   1.00
C792   C     0.84071   0.49585   0.56722   0.00000  Uiso   1.00
C793   C     0.91900   0.52507   0.56620   0.00000  Uiso   1.00
C794   C     0.78963   0.49998   0.90843   0.00000  Uiso   1.00
C795   C     0.87581   0.64538   0.75044   0.00000  Uiso   1.00
C796   C     0.80664   0.50061   0.85045   0.00000  Uiso   1.00
C797   C     0.87583   0.35461   0.75037   0.00000  Uiso   1.00
C798   C     0.83327   0.37607   0.75022   0.00000  Uiso   1.00
C799   C     0.79065   0.35462   0.75025   0.00000  Uiso   1.00
C800   C     0.79064   0.64539   0.75029   0.00000  Uiso   1.00
C801   C     0.83325   0.62393   0.75031   0.00000  Uiso   1.00
C802   C     0.96656   0.52738   0.78006   0.00000  Uiso   1.00
C803   C     0.68278   0.52724   0.78026   0.00000  Uiso   1.00
C804   C     0.70024   0.47282   0.71959   0.00000  Uiso   1.00
C805   C     0.98392   0.47280   0.71965   0.00000  Uiso   1.00
C806   C     0.83331   0.42068   0.75006   0.00000  Uiso   1.00
C807   C     0.85973   0.50051   0.64989   0.00000  Uiso   1.00
C808   C     0.92742   0.53695   0.51441   0.00000  Uiso   1.00
C809   C     0.87480   0.50562   0.59313   0.00000  Uiso   1.00
C810   C     0.74324   0.48258   0.93603   0.00000  Uiso   1.00
C811   C     0.73067   0.47705   0.98971   0.00000  Uiso   1.00
C812   C     0.76398   0.48575   0.51646   0.00000  Uiso   1.00
Cu813  Cu    0.78645   0.49999   0.75000   0.00000  Uiso   1.00
Cu814  Cu    0.88022   0.50001   0.75000   0.00000  Uiso   1.00
H815   H     0.94587   0.53275   0.58577   0.00000  Uiso   1.00
H816   H     0.90913   0.37062   0.75040   0.00000  Uiso   1.00
H817   H     0.75736   0.37064   0.75018   0.00000  Uiso   1.00
H818   H     0.75734   0.62938   0.75026   0.00000  Uiso   1.00
H819   H     0.94112   0.54953   0.80382   0.00000  Uiso   1.00
H820   H     0.69451   0.54902   0.80455   0.00000  Uiso   1.00
H821   H     0.72599   0.45108   0.69521   0.00000  Uiso   1.00
H822   H     0.97220   0.45106   0.69532   0.00000  Uiso   1.00
H823   H     0.93079   0.56296   0.91969   0.00000  Uiso   1.00
H824   H     0.96136   0.55279   0.99434   0.00000  Uiso   1.00
H825   H     0.80892   0.47835   0.58860   0.00000  Uiso   1.00
H826   H     0.75116   0.48006   0.55788   0.00000  Uiso   1.00
H827   H     0.69504   0.46444   0.51099   0.00000  Uiso   1.00
H828   H     0.86923   0.55236   0.87673   0.00000  Uiso   1.00
H829   H     0.90910   0.62936   0.75054   0.00000  Uiso   1.00
N830   N     0.71598   0.49999   0.74999   0.00000  Uiso   1.00
N831   N     0.95069   0.50002   0.74999   0.00000  Uiso   1.00
O832   O     0.79375   0.56011   0.75001   0.00000  Uiso   1.00
O833   O     0.87294   0.56012   0.75001   0.00000  Uiso   1.00
O834   O     0.77441   0.49998   0.82549   0.00000  Uiso   1.00
O835   O     0.85360   0.49999   0.82549   0.00000  Uiso   1.00
O836   O     0.79373   0.43988   0.75000   0.00000  Uiso   1.00
O837   O     0.87292   0.43989   0.75000   0.00000  Uiso   1.00
O838   O     0.81306   0.50001   0.67451   0.00000  Uiso   1.00
O839   O     0.89225   0.50002   0.67451   0.00000  Uiso   1.00
I840   I     0.68868   0.46119   0.90269   0.00000  Uiso   1.00
C841   C     0.16664   0.91265   0.75014   0.00000  Uiso   1.00
C842   C     0.14420   0.83562   0.99042   0.00000  Uiso   1.00
C843   C     0.15489   0.84652   0.93705   0.00000  Uiso   1.00
C844   C     0.18044   0.84250   0.51600   0.00000  Uiso   1.00
C845   C     0.22469   0.86341   0.98957   0.00000  Uiso   1.00
C846   C     0.23169   0.87843   0.93938   0.00000  Uiso   1.00
C847   C     0.19683   0.87096   0.91402   0.00000  Uiso   1.00
C848   C     0.17404   0.82919   0.56722   0.00000  Uiso   1.00
C849   C     0.25233   0.85841   0.56620   0.00000  Uiso   1.00
C850   C     0.12296   0.83332   0.90843   0.00000  Uiso   1.00
C851   C     0.20915   0.97871   0.75044   0.00000  Uiso   1.00
C852   C     0.13998   0.83395   0.85045   0.00000  Uiso   1.00
C853   C     0.20916   0.68794   0.75037   0.00000  Uiso   1.00
C854   C     0.16660   0.70940   0.75022   0.00000  Uiso   1.00
C855   C     0.12399   0.68796   0.75025   0.00000  Uiso   1.00
C856   C     0.12398   0.97872   0.75029   0.00000  Uiso   1.00
C857   C     0.16658   0.95726   0.75031   0.00000  Uiso   1.00
C858   C     0.29990   0.86071   0.78006   0.00000  Uiso   1.00
C859   C     0.01611   0.86057   0.78026   0.00000  Uiso   1.00
C860   C     0.03358   0.80616   0.71959   0.00000  Uiso   1.00
C861   C     0.31725   0.80614   0.71965   0.00000  Uiso   1.00
C862   C     0.16664   0.75401   0.75006   0.00000  Uiso   1.00
C863   C     0.19307   0.83384   0.64989   0.00000  Uiso   1.00
C864   C     0.26075   0.87029   0.51441   0.00000  Uiso   1.00
C865   C     0.20813   0.83896   0.59313   0.00000  Uiso   1.00
C866   C     0.07657   0.81591   0.93603   0.00000  Uiso   1.00
C867   C     0.06401   0.81038   0.98971   0.00000  Uiso   1.00
C868   C     0.09732   0.81908   0.51646   0.00000  Uiso   1.00
Cu869  Cu    0.11978   0.83333   0.75000   0.00000  Uiso   1.00
Cu870  Cu    0.21355   0.83334   0.75000   0.00000  Uiso   1.00
H871   H     0.27920   0.86609   0.58577   0.00000  Uiso   1.00
H872   H     0.24246   0.70395   0.75040   0.00000  Uiso   1.00
H873   H     0.09069   0.70398   0.75018   0.00000  Uiso   1.00
H874   H     0.09068   0.96272   0.75026   0.00000  Uiso   1.00
H875   H     0.27445   0.88287   0.80382   0.00000  Uiso   1.00
H876   H     0.02784   0.88235   0.80455   0.00000  Uiso   1.00
H877   H     0.05932   0.78441   0.69521   0.00000  Uiso   1.00
H878   H     0.30553   0.78439   0.69532   0.00000  Uiso   1.00
H879   H     0.26413   0.89629   0.91969   0.00000  Uiso   1.00
H880   H     0.29469   0.88612   0.99434   0.00000  Uiso   1.00
H881   H     0.14226   0.81168   0.58860   0.00000  Uiso   1.00
H882   H     0.08450   0.81340   0.55788   0.00000  Uiso   1.00
H883   H     0.02837   0.79778   0.51099   0.00000  Uiso   1.00
H884   H     0.20256   0.88569   0.87673   0.00000  Uiso   1.00
H885   H     0.24243   0.96269   0.75054   0.00000  Uiso   1.00
N886   N     0.04931   0.83332   0.74999   0.00000  Uiso   1.00
N887   N     0.28402   0.83335   0.74999   0.00000  Uiso   1.00
O888   O     0.12708   0.89345   0.75001   0.00000  Uiso   1.00
O889   O     0.20627   0.89346   0.75001   0.00000  Uiso   1.00
O890   O     0.10775   0.83332   0.82549   0.00000  Uiso   1.00
O891   O     0.18694   0.83333   0.82549   0.00000  Uiso   1.00
O892   O     0.12706   0.77321   0.75000   0.00000  Uiso   1.00
O893   O     0.20625   0.77322   0.75000   0.00000  Uiso   1.00
O894   O     0.14640   0.83334   0.67451   0.00000  Uiso   1.00
O895   O     0.22559   0.83335   0.67451   0.00000  Uiso   1.00
I896   I     0.02201   0.79452   0.90269   0.00000  Uiso   1.00
C897   C     0.49997   0.91265   0.75014   0.00000  Uiso   1.00
C898   C     0.47753   0.83562   0.99042   0.00000  Uiso   1.00
C899   C     0.48822   0.84652   0.93705   0.00000  Uiso   1.00
C900   C     0.51377   0.84250   0.51600   0.00000  Uiso   1.00
C901   C     0.55803   0.86341   0.98957   0.00000  Uiso   1.00
C902   C     0.56503   0.87843   0.93938   0.00000  Uiso   1.00
C903   C     0.53016   0.87096   0.91402   0.00000  Uiso   1.00
C904   C     0.50737   0.82919   0.56722   0.00000  Uiso   1.00
C905   C     0.58567   0.85841   0.56620   0.00000  Uiso   1.00
C906   C     0.45629   0.83332   0.90843   0.00000  Uiso   1.00
C907   C     0.54248   0.97871   0.75044   0.00000  Uiso   1.00
C908   C     0.47331   0.83395   0.85045   0.00000  Uiso   1.00
C909   C     0.54250   0.68794   0.75037   0.00000  Uiso   1.00
C910   C     0.49993   0.70940   0.75022   0.00000  Uiso   1.00
C911   C     0.45732   0.68796   0.75025   0.00000  Uiso   1.00
C912   C     0.45731   0.97872   0.75029   0.00000  Uiso   1.00
C913   C     0.49991   0.95726   0.75031   0.00000  Uiso   1.00
C914   C     0.63323   0.86071   0.78006   0.00000  Uiso   1.00
C915   C     0.34945   0.86057   0.78026   0.00000  Uiso   1.00
C916   C     0.36691   0.80616   0.71959   0.00000  Uiso   1.00
C917   C     0.65059   0.80614   0.71965   0.00000  Uiso   1.00
C918   C     0.49997   0.75401   0.75006   0.00000  Uiso   1.00
C919   C     0.52640   0.83384   0.64989   0.00000  Uiso   1.00
C920   C     0.59409   0.87029   0.51441   0.00000  Uiso   1.00
C921   C     0.54146   0.83896   0.59313   0.00000  Uiso   1.00
C922   C     0.40991   0.81591   0.93603   0.00000  Uiso   1.00
C923   C     0.39734   0.81038   0.98971   0.00000  Uiso   1.00
C924   C     0.43065   0.81908   0.51646   0.00000  Uiso   1.00
Cu925  Cu    0.45311   0.83333   0.75000   0.00000  Uiso   1.00
Cu926  Cu    0.54689   0.83334   0.75000   0.00000  Uiso   1.00
H927   H     0.61254   0.86609   0.58577   0.00000  Uiso   1.00
H928   H     0.57580   0.70395   0.75040   0.00000  Uiso   1.00
H929   H     0.42403   0.70398   0.75018   0.00000  Uiso   1.00
H930   H     0.42401   0.96272   0.75026   0.00000  Uiso   1.00
H931   H     0.60778   0.88287   0.80382   0.00000  Uiso   1.00
H932   H     0.36117   0.88235   0.80455   0.00000  Uiso   1.00
H933   H     0.39266   0.78441   0.69521   0.00000  Uiso   1.00
H934   H     0.63887   0.78439   0.69532   0.00000  Uiso   1.00
H935   H     0.59746   0.89629   0.91969   0.00000  Uiso   1.00
H936   H     0.62802   0.88612   0.99434   0.00000  Uiso   1.00
H937   H     0.47559   0.81168   0.58860   0.00000  Uiso   1.00
H938   H     0.41783   0.81340   0.55788   0.00000  Uiso   1.00
H939   H     0.36171   0.79778   0.51099   0.00000  Uiso   1.00
H940   H     0.53589   0.88569   0.87673   0.00000  Uiso   1.00
H941   H     0.57576   0.96269   0.75054   0.00000  Uiso   1.00
N942   N     0.38265   0.83332   0.74999   0.00000  Uiso   1.00
N943   N     0.61735   0.83335   0.74999   0.00000  Uiso   1.00
O944   O     0.46042   0.89345   0.75001   0.00000  Uiso   1.00
O945   O     0.53961   0.89346   0.75001   0.00000  Uiso   1.00
O946   O     0.44108   0.83332   0.82549   0.00000  Uiso   1.00
O947   O     0.52027   0.83333   0.82549   0.00000  Uiso   1.00
O948   O     0.46039   0.77321   0.75000   0.00000  Uiso   1.00
O949   O     0.53958   0.77322   0.75000   0.00000  Uiso   1.00
O950   O     0.47973   0.83334   0.67451   0.00000  Uiso   1.00
O951   O     0.55892   0.83335   0.67451   0.00000  Uiso   1.00
I952   I     0.35534   0.79452   0.90269   0.00000  Uiso   1.00
C953   C     0.83330   0.91265   0.75014   0.00000  Uiso   1.00
C954   C     0.81086   0.83562   0.99042   0.00000  Uiso   1.00
C955   C     0.82155   0.84652   0.93705   0.00000  Uiso   1.00
C956   C     0.84711   0.84250   0.51600   0.00000  Uiso   1.00
C957   C     0.89136   0.86341   0.98957   0.00000  Uiso   1.00
C958   C     0.89836   0.87843   0.93938   0.00000  Uiso   1.00
C959   C     0.86350   0.87096   0.91402   0.00000  Uiso   1.00
C960   C     0.84071   0.82919   0.56722   0.00000  Uiso   1.00
C961   C     0.91900   0.85841   0.56620   0.00000  Uiso   1.00
C962   C     0.78963   0.83332   0.90843   0.00000  Uiso   1.00
C963   C     0.87581   0.97871   0.75044   0.00000  Uiso   1.00
C964   C     0.80664   0.83395   0.85045   0.00000  Uiso   1.00
C965   C     0.87583   0.68794   0.75037   0.00000  Uiso   1.00
C966   C     0.83327   0.70940   0.75022   0.00000  Uiso   1.00
C967   C     0.79065   0.68796   0.75025   0.00000  Uiso   1.00
C968   C     0.79064   0.97872   0.75029   0.00000  Uiso   1.00
C969   C     0.83325   0.95726   0.75031   0.00000  Uiso   1.00
C970   C     0.96656   0.86071   0.78006   0.00000  Uiso   1.00
C971   C     0.68278   0.86057   0.78026   0.00000  Uiso   1.00
C972   C     0.70024   0.80616   0.71959   0.00000  Uiso   1.00
C973   C     0.98392   0.80614   0.71965   0.00000  Uiso   1.00
C974   C     0.83331   0.75401   0.75006   0.00000  Uiso   1.00
C975   C     0.85973   0.83384   0.64989   0.00000  Uiso   1.00
C976   C     0.92742   0.87029   0.51441   0.00000  Uiso   1.00
C977   C     0.87480   0.83896   0.59313   0.00000  Uiso   1.00
C978   C     0.74324   0.81591   0.93603   0.00000  Uiso   1.00
C979   C     0.73067   0.81038   0.98971   0.00000  Uiso   1.00
C980   C     0.76398   0.81908   0.51646   0.00000  Uiso   1.00
Cu981  Cu    0.78645   0.83333   0.75000   0.00000  Uiso   1.00
Cu982  Cu    0.88022   0.83334   0.75000   0.00000  Uiso   1.00
H983   H     0.94587   0.86609   0.58577   0.00000  Uiso   1.00
H984   H     0.90913   0.70395   0.75040   0.00000  Uiso   1.00
H985   H     0.75736   0.70398   0.75018   0.00000  Uiso   1.00
H986   H     0.75734   0.96272   0.75026   0.00000  Uiso   1.00
H987   H     0.94112   0.88287   0.80382   0.00000  Uiso   1.00
H988   H     0.69451   0.88235   0.80455   0.00000  Uiso   1.00
H989   H     0.72599   0.78441   0.69521   0.00000  Uiso   1.00
H990   H     0.97220   0.78439   0.69532   0.00000  Uiso   1.00
H991   H     0.93079   0.89629   0.91969   0.00000  Uiso   1.00
H992   H     0.96136   0.88612   0.99434   0.00000  Uiso   1.00
H993   H     0.80892   0.81168   0.58860   0.00000  Uiso   1.00
H994   H     0.75116   0.81340   0.55788   0.00000  Uiso   1.00
H995   H     0.69504   0.79778   0.51099   0.00000  Uiso   1.00
H996   H     0.86923   0.88569   0.87673   0.00000  Uiso   1.00
H997   H     0.90910   0.96269   0.75054   0.00000  Uiso   1.00
N998   N     0.71598   0.83332   0.74999   0.00000  Uiso   1.00
N999   N     0.95069   0.83335   0.74999   0.00000  Uiso   1.00
O1000  O     0.79375   0.89345   0.75001   0.00000  Uiso   1.00
O1001  O     0.87294   0.89346   0.75001   0.00000  Uiso   1.00
O1002  O     0.77441   0.83332   0.82549   0.00000  Uiso   1.00
O1003  O     0.85360   0.83333   0.82549   0.00000  Uiso   1.00
O1004  O     0.79373   0.77321   0.75000   0.00000  Uiso   1.00
O1005  O     0.87292   0.77322   0.75000   0.00000  Uiso   1.00
O1006  O     0.81306   0.83334   0.67451   0.00000  Uiso   1.00
O1007  O     0.89225   0.83335   0.67451   0.00000  Uiso   1.00
I1008  I     0.68868   0.79452   0.90269   0.00000  Uiso   1.00
loop_
_geom_bond_atom_site_label_1
_geom_bond_atom_site_label_2
_geom_bond_distance
_geom_bond_site_symmetry_2
_ccdc_geom_bond_type
C1     O48     1.290   .     A
C1     C17     1.450   .     S
C1     O49     1.290   .     A
C2     C3      1.419   .     A
C2     C508    1.423   .     S
C2     C532    1.413   .     S
C3     C10     1.426   .     A
C3     C7      1.413   .     A
C4     C8      1.402   .     A
C4     C506    1.423   1_554 S
C4     C509    1.419   1_554 S
C5     C6      1.392   .     A
C5     C508    1.419   .     S
C5     C528    1.405   .     S
C6     C7      1.388   .     A
C6     H39     1.084   .     S
C7     H44     1.079   .     S
C8     H41     1.077   .     S
C8     C25     1.395   .     A
C9     C25     1.399   .     A
C9     C24     1.394   .     A
C9     H31     1.083   .     S
C10    C26     1.422   .     A
C10    C12     1.484   .     S
C11    H45     1.083   .     S
C11    C17     1.401   .     A
C11    C181    1.383   .     S
C12    O50     1.294   .     A
C12    O51     1.302   .     A
C13    H32     1.083   .     S
C13    C14     1.401   .     A
C13    C347    1.383   1_545 S
C14    C15     1.401   .     A
C14    C22     1.450   .     S
C15    H33     1.083   .     S
C15    C352    1.383   1_545 S
C16    H34     1.083   .     S
C16    C17     1.401   .     A
C16    C183    1.383   .     S
C18    H35     1.080   .     S
C18    N47     1.367   .     A
C18    C75     1.415   .     S
C19    N46     1.366   .     A
C19    H36     1.082   .     S
C19    C130    1.415   1_455 S
C20    H37     1.082   .     S
C20    N46     1.367   .     A
C20    C133    1.416   1_455 S
C21    H38     1.082   .     S
C21    N47     1.367   .     A
C21    C76     1.416   .     S
C22    O53     1.290   .     A
C22    O52     1.290   .     A
C23    O55     1.294   .     A
C23    C25     1.463   .     S
C23    O54     1.293   .     A
C24    C509    1.405   1_554 S
C24    H544    1.084   1_554 S
C26    C27     1.389   .     A
C26    I56     2.135   .     S
C27    C532    1.385   .     S
C27    H547    1.083   .     S
C28    H42     1.077   .     S
C28    C531    1.385   1_554 S
C28    C506    1.413   1_554 S
Cu29   N46     2.010   .     S
Cu29   Cu30    2.675   .     S
Cu29   O50     1.952   .     S
Cu29   O54     1.937   .     S
Cu29   O48     1.965   .     S
Cu29   O52     1.965   .     S
Cu30   O51     1.937   .     S
Cu30   O49     1.965   .     S
Cu30   O53     1.965   .     S
Cu30   N47     2.010   .     S
Cu30   O55     1.952   .     S
H40    C528    1.084   .     S
H43    C531    1.083   1_554 S
C57    O104    1.290   .     A
C57    C73     1.450   .     S
C57    O105    1.290   .     A
C58    C59     1.419   .     A
C58    C564    1.423   .     S
C58    C588    1.413   .     S
C59    C66     1.426   .     A
C59    C63     1.413   .     A
C60    C64     1.402   .     A
C60    C562    1.423   1_554 S
C60    C565    1.419   1_554 S
C61    C62     1.392   .     A
C61    C564    1.419   .     S
C61    C584    1.405   .     S
C62    C63     1.388   .     A
C62    H95     1.084   .     S
C63    H100    1.079   .     S
C64    H97     1.077   .     S
C64    C81     1.395   .     A
C65    C81     1.399   .     A
C65    C80     1.394   .     A
C65    H87     1.083   .     S
C66    C82     1.422   .     A
C66    C68     1.484   .     S
C67    H101    1.083   .     S
C67    C73     1.401   .     A
C67    C237    1.383   .     S
C68    O106    1.294   .     A
C68    O107    1.302   .     A
C69    H88     1.083   .     S
C69    C70     1.401   .     A
C69    C403    1.383   1_545 S
C70    C71     1.401   .     A
C70    C78     1.450   .     S
C71    H89     1.083   .     S
C71    C408    1.383   1_545 S
C72    H90     1.083   .     S
C72    C73     1.401   .     A
C72    C239    1.383   .     S
C74    H91     1.080   .     S
C74    N103    1.367   .     A
C74    C131    1.415   .     S
C75    N102    1.366   .     A
C75    H92     1.082   .     S
C76    H93     1.082   .     S
C76    N102    1.367   .     A
C77    H94     1.082   .     S
C77    N103    1.367   .     A
C77    C132    1.416   .     S
C78    O109    1.290   .     A
C78    O108    1.290   .     A
C79    O111    1.294   .     A
C79    C81     1.463   .     S
C79    O110    1.293   .     A
C80    C565    1.405   1_554 S
C80    H600    1.084   1_554 S
C82    C83     1.389   .     A
C82    I112    2.135   .     S
C83    C588    1.385   .     S
C83    H603    1.083   .     S
C84    H98     1.077   .     S
C84    C587    1.385   1_554 S
C84    C562    1.413   1_554 S
Cu85   N102    2.010   .     S
Cu85   Cu86    2.675   .     S
Cu85   O106    1.952   .     S
Cu85   O110    1.937   .     S
Cu85   O104    1.965   .     S
Cu85   O108    1.965   .     S
Cu86   O107    1.937   .     S
Cu86   O105    1.965   .     S
Cu86   O109    1.965   .     S
Cu86   N103    2.010   .     S
Cu86   O111    1.952   .     S
H96    C584    1.084   .     S
H99    C587    1.083   1_554 S
C113   O160    1.290   .     A
C113   C129    1.450   .     S
C113   O161    1.290   .     A
C114   C115    1.419   .     A
C114   C620    1.423   .     S
C114   C644    1.413   .     S
C115   C122    1.426   .     A
C115   C119    1.413   .     A
C116   C120    1.402   .     A
C116   C618    1.423   1_554 S
C116   C621    1.419   1_554 S
C117   C118    1.392   .     A
C117   C620    1.419   .     S
C117   C640    1.405   .     S
C118   C119    1.388   .     A
C118   H151    1.084   .     S
C119   H156    1.079   .     S
C120   H153    1.077   .     S
C120   C137    1.395   .     A
C121   C137    1.399   .     A
C121   C136    1.394   .     A
C121   H143    1.083   .     S
C122   C138    1.422   .     A
C122   C124    1.484   .     S
C123   H157    1.083   .     S
C123   C129    1.401   .     A
C123   C293    1.383   .     S
C124   O162    1.294   .     A
C124   O163    1.302   .     A
C125   H144    1.083   .     S
C125   C126    1.401   .     A
C125   C459    1.383   1_545 S
C126   C127    1.401   .     A
C126   C134    1.450   .     S
C127   H145    1.083   .     S
C127   C464    1.383   1_545 S
C128   H146    1.083   .     S
C128   C129    1.401   .     A
C128   C295    1.383   .     S
C130   H147    1.080   .     S
C130   N159    1.367   .     A
C130   C19     1.415   1_655 S
C131   N158    1.366   .     A
C131   H148    1.082   .     S
C132   H149    1.082   .     S
C132   N158    1.367   .     A
C133   H150    1.082   .     S
C133   N159    1.367   .     A
C133   C20     1.416   1_655 S
C134   O165    1.290   .     A
C134   O164    1.290   .     A
C135   O167    1.294   .     A
C135   C137    1.463   .     S
C135   O166    1.293   .     A
C136   C621    1.405   1_554 S
C136   H656    1.084   1_554 S
C138   C139    1.389   .     A
C138   I168    2.135   .     S
C139   C644    1.385   .     S
C139   H659    1.083   .     S
C140   H154    1.077   .     S
C140   C643    1.385   1_554 S
C140   C618    1.413   1_554 S
Cu141  N158    2.010   .     S
Cu141  Cu142   2.675   .     S
Cu141  O162    1.952   .     S
Cu141  O166    1.937   .     S
Cu141  O160    1.965   .     S
Cu141  O164    1.965   .     S
Cu142  O163    1.937   .     S
Cu142  O161    1.965   .     S
Cu142  O165    1.965   .     S
Cu142  N159    2.010   .     S
Cu142  O167    1.952   .     S
H152   C640    1.084   .     S
H155   C643    1.083   1_554 S
C169   O216    1.290   .     A
C169   C185    1.450   .     S
C169   O217    1.290   .     A
C170   C171    1.419   .     A
C170   C676    1.423   .     S
C170   C700    1.413   .     S
C171   C178    1.426   .     A
C171   C175    1.413   .     A
C172   C176    1.402   .     A
C172   C674    1.423   1_554 S
C172   C677    1.419   1_554 S
C173   C174    1.392   .     A
C173   C676    1.419   .     S
C173   C696    1.405   .     S
C174   C175    1.388   .     A
C174   H207    1.084   .     S
C175   H212    1.079   .     S
C176   H209    1.077   .     S
C176   C193    1.395   .     A
C177   C193    1.399   .     A
C177   C192    1.394   .     A
C177   H199    1.083   .     S
C178   C194    1.422   .     A
C178   C180    1.484   .     S
C179   H213    1.083   .     S
C179   C185    1.401   .     A
C179   C349    1.383   .     S
C180   O218    1.294   .     A
C180   O219    1.302   .     A
C181   H200    1.083   .     S
C181   C182    1.401   .     A
C182   C183    1.401   .     A
C182   C190    1.450   .     S
C183   H201    1.083   .     S
C184   H202    1.083   .     S
C184   C185    1.401   .     A
C184   C351    1.383   .     S
C186   H203    1.080   .     S
C186   N215    1.367   .     A
C186   C243    1.415   .     S
C187   N214    1.366   .     A
C187   H204    1.082   .     S
C187   C298    1.415   1_455 S
C188   H205    1.082   .     S
C188   N214    1.367   .     A
C188   C301    1.416   1_455 S
C189   H206    1.082   .     S
C189   N215    1.367   .     A
C189   C244    1.416   .     S
C190   O221    1.290   .     A
C190   O220    1.290   .     A
C191   O223    1.294   .     A
C191   C193    1.463   .     S
C191   O222    1.293   .     A
C192   C677    1.405   1_554 S
C192   H712    1.084   1_554 S
C194   C195    1.389   .     A
C194   I224    2.135   .     S
C195   C700    1.385   .     S
C195   H715    1.083   .     S
C196   H210    1.077   .     S
C196   C699    1.385   1_554 S
C196   C674    1.413   1_554 S
Cu197  N214    2.010   .     S
Cu197  Cu198   2.675   .     S
Cu197  O218    1.952   .     S
Cu197  O222    1.937   .     S
Cu197  O216    1.965   .     S
Cu197  O220    1.965   .     S
Cu198  O219    1.937   .     S
Cu198  O217    1.965   .     S
Cu198  O221    1.965   .     S
Cu198  N215    2.010   .     S
Cu198  O223    1.952   .     S
H208   C696    1.084   .     S
H211   C699    1.083   1_554 S
C225   O272    1.290   .     A
C225   C241    1.450   .     S
C225   O273    1.290   .     A
C226   C227    1.419   .     A
C226   C732    1.423   .     S
C226   C756    1.413   .     S
C227   C234    1.426   .     A
C227   C231    1.413   .     A
C228   C232    1.402   .     A
C228   C730    1.423   1_554 S
C228   C733    1.419   1_554 S
C229   C230    1.392   .     A
C229   C732    1.419   .     S
C229   C752    1.405   .     S
C230   C231    1.388   .     A
C230   H263    1.084   .     S
C231   H268    1.079   .     S
C232   H265    1.077   .     S
C232   C249    1.395   .     A
C233   C249    1.399   .     A
C233   C248    1.394   .     A
C233   H255    1.083   .     S
C234   C250    1.422   .     A
C234   C236    1.484   .     S
C235   H269    1.083   .     S
C235   C241    1.401   .     A
C235   C405    1.383   .     S
C236   O274    1.294   .     A
C236   O275    1.302   .     A
C237   H256    1.083   .     S
C237   C238    1.401   .     A
C238   C239    1.401   .     A
C238   C246    1.450   .     S
C239   H257    1.083   .     S
C240   H258    1.083   .     S
C240   C241    1.401   .     A
C240   C407    1.383   .     S
C242   H259    1.080   .     S
C242   N271    1.367   .     A
C242   C299    1.415   .     S
C243   N270    1.366   .     A
C243   H260    1.082   .     S
C244   H261    1.082   .     S
C244   N270    1.367   .     A
C245   H262    1.082   .     S
C245   N271    1.367   .     A
C245   C300    1.416   .     S
C246   O277    1.290   .     A
C246   O276    1.290   .     A
C247   O279    1.294   .     A
C247   C249    1.463   .     S
C247   O278    1.293   .     A
C248   C733    1.405   1_554 S
C248   H768    1.084   1_554 S
C250   C251    1.389   .     A
C250   I280    2.135   .     S
C251   C756    1.385   .     S
C251   H771    1.083   .     S
C252   H266    1.077   .     S
C252   C755    1.385   1_554 S
C252   C730    1.413   1_554 S
Cu253  N270    2.010   .     S
Cu253  Cu254   2.675   .     S
Cu253  O274    1.952   .     S
Cu253  O278    1.937   .     S
Cu253  O272    1.965   .     S
Cu253  O276    1.965   .     S
Cu254  O275    1.937   .     S
Cu254  O273    1.965   .     S
Cu254  O277    1.965   .     S
Cu254  N271    2.010   .     S
Cu254  O279    1.952   .     S
H264   C752    1.084   .     S
H267   C755    1.083   1_554 S
C281   O328    1.290   .     A
C281   C297    1.450   .     S
C281   O329    1.290   .     A
C282   C283    1.419   .     A
C282   C788    1.423   .     S
C282   C812    1.413   .     S
C283   C290    1.426   .     A
C283   C287    1.413   .     A
C284   C288    1.402   .     A
C284   C786    1.423   1_554 S
C284   C789    1.419   1_554 S
C285   C286    1.392   .     A
C285   C788    1.419   .     S
C285   C808    1.405   .     S
C286   C287    1.388   .     A
C286   H319    1.084   .     S
C287   H324    1.079   .     S
C288   H321    1.077   .     S
C288   C305    1.395   .     A
C289   C305    1.399   .     A
C289   C304    1.394   .     A
C289   H311    1.083   .     S
C290   C306    1.422   .     A
C290   C292    1.484   .     S
C291   H325    1.083   .     S
C291   C297    1.401   .     A
C291   C461    1.383   .     S
C292   O330    1.294   .     A
C292   O331    1.302   .     A
C293   H312    1.083   .     S
C293   C294    1.401   .     A
C294   C295    1.401   .     A
C294   C302    1.450   .     S
C295   H313    1.083   .     S
C296   H314    1.083   .     S
C296   C297    1.401   .     A
C296   C463    1.383   .     S
C298   H315    1.080   .     S
C298   N327    1.367   .     A
C298   C187    1.415   1_655 S
C299   N326    1.366   .     A
C299   H316    1.082   .     S
C300   H317    1.082   .     S
C300   N326    1.367   .     A
C301   H318    1.082   .     S
C301   N327    1.367   .     A
C301   C188    1.416   1_655 S
C302   O333    1.290   .     A
C302   O332    1.290   .     A
C303   O335    1.294   .     A
C303   C305    1.463   .     S
C303   O334    1.293   .     A
C304   C789    1.405   1_554 S
C304   H824    1.084   1_554 S
C306   C307    1.389   .     A
C306   I336    2.135   .     S
C307   C812    1.385   .     S
C307   H827    1.083   .     S
C308   H322    1.077   .     S
C308   C811    1.385   1_554 S
C308   C786    1.413   1_554 S
Cu309  N326    2.010   .     S
Cu309  Cu310   2.675   .     S
Cu309  O330    1.952   .     S
Cu309  O334    1.937   .     S
Cu309  O328    1.965   .     S
Cu309  O332    1.965   .     S
Cu310  O331    1.937   .     S
Cu310  O329    1.965   .     S
Cu310  O333    1.965   .     S
Cu310  N327    2.010   .     S
Cu310  O335    1.952   .     S
H320   C808    1.084   .     S
H323   C811    1.083   1_554 S
C337   O384    1.290   .     A
C337   C353    1.450   .     S
C337   O385    1.290   .     A
C338   C339    1.419   .     A
C338   C844    1.423   .     S
C338   C868    1.413   .     S
C339   C346    1.426   .     A
C339   C343    1.413   .     A
C340   C344    1.402   .     A
C340   C842    1.423   1_554 S
C340   C845    1.419   1_554 S
C341   C342    1.392   .     A
C341   C844    1.419   .     S
C341   C864    1.405   .     S
C342   C343    1.388   .     A
C342   H375    1.084   .     S
C343   H380    1.079   .     S
C344   H377    1.077   .     S
C344   C361    1.395   .     A
C345   C361    1.399   .     A
C345   C360    1.394   .     A
C345   H367    1.083   .     S
C346   C362    1.422   .     A
C346   C348    1.484   .     S
C347   H381    1.083   .     S
C347   C353    1.401   .     A
C347   C13     1.383   1_565 S
C348   O386    1.294   .     A
C348   O387    1.302   .     A
C349   H368    1.083   .     S
C349   C350    1.401   .     A
C350   C351    1.401   .     A
C350   C358    1.450   .     S
C351   H369    1.083   .     S
C352   H370    1.083   .     S
C352   C353    1.401   .     A
C352   C15     1.383   1_565 S
C354   H371    1.080   .     S
C354   N383    1.367   .     A
C354   C411    1.415   .     S
C355   N382    1.366   .     A
C355   H372    1.082   .     S
C355   C466    1.415   1_455 S
C356   H373    1.082   .     S
C356   N382    1.367   .     A
C356   C469    1.416   1_455 S
C357   H374    1.082   .     S
C357   N383    1.367   .     A
C357   C412    1.416   .     S
C358   O389    1.290   .     A
C358   O388    1.290   .     A
C359   O391    1.294   .     A
C359   C361    1.463   .     S
C359   O390    1.293   .     A
C360   C845    1.405   1_554 S
C360   H880    1.084   1_554 S
C362   C363    1.389   .     A
C362   I392    2.135   .     S
C363   C868    1.385   .     S
C363   H883    1.083   .     S
C364   H378    1.077   .     S
C364   C867    1.385   1_554 S
C364   C842    1.413   1_554 S
Cu365  N382    2.010   .     S
Cu365  Cu366   2.675   .     S
Cu365  O386    1.952   .     S
Cu365  O390    1.937   .     S
Cu365  O384    1.965   .     S
Cu365  O388    1.965   .     S
Cu366  O387    1.937   .     S
Cu366  O385    1.965   .     S
Cu366  O389    1.965   .     S
Cu366  N383    2.010   .     S
Cu366  O391    1.952   .     S
H376   C864    1.084   .     S
H379   C867    1.083   1_554 S
C393   O440    1.290   .     A
C393   C409    1.450   .     S
C393   O441    1.290   .     A
C394   C395    1.419   .     A
C394   C900    1.423   .     S
C394   C924    1.413   .     S
C395   C402    1.426   .     A
C395   C399    1.413   .     A
C396   C400    1.402   .     A
C396   C898    1.423   1_554 S
C396   C901    1.419   1_554 S
C397   C398    1.392   .     A
C397   C900    1.419   .     S
C397   C920    1.405   .     S
C398   C399    1.388   .     A
C398   H431    1.084   .     S
C399   H436    1.079   .     S
C400   H433    1.077   .     S
C400   C417    1.395   .     A
C401   C417    1.399   .     A
C401   C416    1.394   .     A
C401   H423    1.083   .     S
C402   C418    1.422   .     A
C402   C404    1.484   .     S
C403   H437    1.083   .     S
C403   C409    1.401   .     A
C403   C69     1.383   1_565 S
C404   O442    1.294   .     A
C404   O443    1.302   .     A
C405   H424    1.083   .     S
C405   C406    1.401   .     A
C406   C407    1.401   .     A
C406   C414    1.450   .     S
C407   H425    1.083   .     S
C408   H426    1.083   .     S
C408   C409    1.401   .     A
C408   C71     1.383   1_565 S
C410   H427    1.080   .     S
C410   N439    1.367   .     A
C410   C467    1.415   .     S
C411   N438    1.366   .     A
C411   H428    1.082   .     S
C412   H429    1.082   .     S
C412   N438    1.367   .     A
C413   H430    1.082   .     S
C413   N439    1.367   .     A
C413   C468    1.416   .     S
C414   O445    1.290   .     A
C414   O444    1.290   .     A
C415   O447    1.294   .     A
C415   C417    1.463   .     S
C415   O446    1.293   .     A
C416   C901    1.405   1_554 S
C416   H936    1.084   1_554 S
C418   C419    1.389   .     A
C418   I448    2.135   .     S
C419   C924    1.385   .     S
C419   H939    1.083   .     S
C420   H434    1.077   .     S
C420   C923    1.385   1_554 S
C420   C898    1.413   1_554 S
Cu421  N438    2.010   .     S
Cu421  Cu422   2.675   .     S
Cu421  O442    1.952   .     S
Cu421  O446    1.937   .     S
Cu421  O440    1.965   .     S
Cu421  O444    1.965   .     S
Cu422  O443    1.937   .     S
Cu422  O441    1.965   .     S
Cu422  O445    1.965   .     S
Cu422  N439    2.010   .     S
Cu422  O447    1.952   .     S
H432   C920    1.084   .     S
H435   C923    1.083   1_554 S
C449   O496    1.290   .     A
C449   C465    1.450   .     S
C449   O497    1.290   .     A
C450   C451    1.419   .     A
C450   C956    1.423   .     S
C450   C980    1.413   .     S
C451   C458    1.426   .     A
C451   C455    1.413   .     A
C452   C456    1.402   .     A
C452   C954    1.423   1_554 S
C452   C957    1.419   1_554 S
C453   C454    1.392   .     A
C453   C956    1.419   .     S
C453   C976    1.405   .     S
C454   C455    1.388   .     A
C454   H487    1.084   .     S
C455   H492    1.079   .     S
C456   H489    1.077   .     S
C456   C473    1.395   .     A
C457   C473    1.399   .     A
C457   C472    1.394   .     A
C457   H479    1.083   .     S
C458   C474    1.422   .     A
C458   C460    1.484   .     S
C459   H493    1.083   .     S
C459   C465    1.401   .     A
C459   C125    1.383   1_565 S
C460   O498    1.294   .     A
C460   O499    1.302   .     A
C461   H480    1.083   .     S
C461   C462    1.401   .     A
C462   C463    1.401   .     A
C462   C470    1.450   .     S
C463   H481    1.083   .     S
C464   H482    1.083   .     S
C464   C465    1.401   .     A
C464   C127    1.383   1_565 S
C466   H483    1.080   .     S
C466   N495    1.367   .     A
C466   C355    1.415   1_655 S
C467   N494    1.366   .     A
C467   H484    1.082   .     S
C468   H485    1.082   .     S
C468   N494    1.367   .     A
C469   H486    1.082   .     S
C469   N495    1.367   .     A
C469   C356    1.416   1_655 S
C470   O501    1.290   .     A
C470   O500    1.290   .     A
C471   O503    1.294   .     A
C471   C473    1.463   .     S
C471   O502    1.293   .     A
C472   C957    1.405   1_554 S
C472   H992    1.084   1_554 S
C474   C475    1.389   .     A
C474   I504    2.135   .     S
C475   C980    1.385   .     S
C475   H995    1.083   .     S
C476   H490    1.077   .     S
C476   C979    1.385   1_554 S
C476   C954    1.413   1_554 S
Cu477  N494    2.010   .     S
Cu477  Cu478   2.675   .     S
Cu477  O498    1.952   .     S
Cu477  O502    1.937   .     S
Cu477  O496    1.965   .     S
Cu477  O500    1.965   .     S
Cu478  O499    1.937   .     S
Cu478  O497    1.965   .     S
Cu478  O501    1.965   .     S
Cu478  N495    2.010   .     S
Cu478  O503    1.952   .     S
H488   C976    1.084   .     S
H491   C979    1.083   1_554 S
C505   O552    1.290   .     A
C505   C521    1.450   .     S
C505   O553    1.290   .     A
C506   C507    1.419   .     A
C506   C4      1.423   1_556 S
C506   C28     1.413   1_556 S
C507   C514    1.426   .     A
C507   C511    1.413   .     A
C508   C512    1.402   .     A
C509   C510    1.392   .     A
C509   C4      1.419   1_556 S
C509   C24     1.405   1_556 S
C510   C511    1.388   .     A
C510   H543    1.084   .     S
C511   H548    1.079   .     S
C512   H545    1.077   .     S
C512   C529    1.395   .     A
C513   C529    1.399   .     A
C513   C528    1.394   .     A
C513   H535    1.083   .     S
C514   C530    1.422   .     A
C514   C516    1.484   .     S
C515   H549    1.083   .     S
C515   C521    1.401   .     A
C515   C685    1.383   .     S
C516   O554    1.294   .     A
C516   O555    1.302   .     A
C517   H536    1.083   .     S
C517   C518    1.401   .     A
C517   C851    1.383   1_545 S
C518   C519    1.401   .     A
C518   C526    1.450   .     S
C519   H537    1.083   .     S
C519   C856    1.383   1_545 S
C520   H538    1.083   .     S
C520   C521    1.401   .     A
C520   C687    1.383   .     S
C522   H539    1.080   .     S
C522   N551    1.367   .     A
C522   C579    1.415   .     S
C523   N550    1.366   .     A
C523   H540    1.082   .     S
C523   C634    1.415   1_455 S
C524   H541    1.082   .     S
C524   N550    1.367   .     A
C524   C637    1.416   1_455 S
C525   H542    1.082   .     S
C525   N551    1.367   .     A
C525   C580    1.416   .     S
C526   O557    1.290   .     A
C526   O556    1.290   .     A
C527   O559    1.294   .     A
C527   C529    1.463   .     S
C527   O558    1.293   .     A
C530   C531    1.389   .     A
C530   I560    2.135   .     S
C531   C28     1.385   1_556 S
C531   H43     1.083   1_556 S
C532   H546    1.077   .     S
Cu533  N550    2.010   .     S
Cu533  Cu534   2.675   .     S
Cu533  O554    1.952   .     S
Cu533  O558    1.937   .     S
Cu533  O552    1.965   .     S
Cu533  O556    1.965   .     S
Cu534  O555    1.937   .     S
Cu534  O553    1.965   .     S
Cu534  O557    1.965   .     S
Cu534  N551    2.010   .     S
Cu534  O559    1.952   .     S
H544   C24     1.084   1_556 S
C561   O608    1.290   .     A
C561   C577    1.450   .     S
C561   O609    1.290   .     A
C562   C563    1.419   .     A
C562   C60     1.423   1_556 S
C562   C84     1.413   1_556 S
C563   C570    1.426   .     A
C563   C567    1.413   .     A
C564   C568    1.402   .     A
C565   C566    1.392   .     A
C565   C60     1.419   1_556 S
C565   C80     1.405   1_556 S
C566   C567    1.388   .     A
C566   H599    1.084   .     S
C567   H604    1.079   .     S
C568   H601    1.077   .     S
C568   C585    1.395   .     A
C569   C585    1.399   .     A
C569   C584    1.394   .     A
C569   H591    1.083   .     S
C570   C586    1.422   .     A
C570   C572    1.484   .     S
C571   H605    1.083   .     S
C571   C577    1.401   .     A
C571   C741    1.383   .     S
C572   O610    1.294   .     A
C572   O611    1.302   .     A
C573   H592    1.083   .     S
C573   C574    1.401   .     A
C573   C907    1.383   1_545 S
C574   C575    1.401   .     A
C574   C582    1.450   .     S
C575   H593    1.083   .     S
C575   C912    1.383   1_545 S
C576   H594    1.083   .     S
C576   C577    1.401   .     A
C576   C743    1.383   .     S
C578   H595    1.080   .     S
C578   N607    1.367   .     A
C578   C635    1.415   .     S
C579   N606    1.366   .     A
C579   H596    1.082   .     S
C580   H597    1.082   .     S
C580   N606    1.367   .     A
C581   H598    1.082   .     S
C581   N607    1.367   .     A
C581   C636    1.416   .     S
C582   O613    1.290   .     A
C582   O612    1.290   .     A
C583   O615    1.294   .     A
C583   C585    1.463   .     S
C583   O614    1.293   .     A
C586   C587    1.389   .     A
C586   I616    2.135   .     S
C587   C84     1.385   1_556 S
C587   H99     1.083   1_556 S
C588   H602    1.077   .     S
Cu589  N606    2.010   .     S
Cu589  Cu590   2.675   .     S
Cu589  O610    1.952   .     S
Cu589  O614    1.937   .     S
Cu589  O608    1.965   .     S
Cu589  O612    1.965   .     S
Cu590  O611    1.937   .     S
Cu590  O609    1.965   .     S
Cu590  O613    1.965   .     S
Cu590  N607    2.010   .     S
Cu590  O615    1.952   .     S
H600   C80     1.084   1_556 S
C617   O664    1.290   .     A
C617   C633    1.450   .     S
C617   O665    1.290   .     A
C618   C619    1.419   .     A
C618   C116    1.423   1_556 S
C618   C140    1.413   1_556 S
C619   C626    1.426   .     A
C619   C623    1.413   .     A
C620   C624    1.402   .     A
C621   C622    1.392   .     A
C621   C116    1.419   1_556 S
C621   C136    1.405   1_556 S
C622   C623    1.388   .     A
C622   H655    1.084   .     S
C623   H660    1.079   .     S
C624   H657    1.077   .     S
C624   C641    1.395   .     A
C625   C641    1.399   .     A
C625   C640    1.394   .     A
C625   H647    1.083   .     S
C626   C642    1.422   .     A
C626   C628    1.484   .     S
C627   H661    1.083   .     S
C627   C633    1.401   .     A
C627   C797    1.383   .     S
C628   O666    1.294   .     A
C628   O667    1.302   .     A
C629   H648    1.083   .     S
C629   C630    1.401   .     A
C629   C963    1.383   1_545 S
C630   C631    1.401   .     A
C630   C638    1.450   .     S
C631   H649    1.083   .     S
C631   C968    1.383   1_545 S
C632   H650    1.083   .     S
C632   C633    1.401   .     A
C632   C799    1.383   .     S
C634   H651    1.080   .     S
C634   N663    1.367   .     A
C634   C523    1.415   1_655 S
C635   N662    1.366   .     A
C635   H652    1.082   .     S
C636   H653    1.082   .     S
C636   N662    1.367   .     A
C637   H654    1.082   .     S
C637   N663    1.367   .     A
C637   C524    1.416   1_655 S
C638   O669    1.290   .     A
C638   O668    1.290   .     A
C639   O671    1.294   .     A
C639   C641    1.463   .     S
C639   O670    1.293   .     A
C642   C643    1.389   .     A
C642   I672    2.135   .     S
C643   C140    1.385   1_556 S
C643   H155    1.083   1_556 S
C644   H658    1.077   .     S
Cu645  N662    2.010   .     S
Cu645  Cu646   2.675   .     S
Cu645  O666    1.952   .     S
Cu645  O670    1.937   .     S
Cu645  O664    1.965   .     S
Cu645  O668    1.965   .     S
Cu646  O667    1.937   .     S
Cu646  O665    1.965   .     S
Cu646  O669    1.965   .     S
Cu646  N663    2.010   .     S
Cu646  O671    1.952   .     S
H656   C136    1.084   1_556 S
C673   O720    1.290   .     A
C673   C689    1.450   .     S
C673   O721    1.290   .     A
C674   C675    1.419   .     A
C674   C172    1.423   1_556 S
C674   C196    1.413   1_556 S
C675   C682    1.426   .     A
C675   C679    1.413   .     A
C676   C680    1.402   .     A
C677   C678    1.392   .     A
C677   C172    1.419   1_556 S
C677   C192    1.405   1_556 S
C678   C679    1.388   .     A
C678   H711    1.084   .     S
C679   H716    1.079   .     S
C680   H713    1.077   .     S
C680   C697    1.395   .     A
C681   C697    1.399   .     A
C681   C696    1.394   .     A
C681   H703    1.083   .     S
C682   C698    1.422   .     A
C682   C684    1.484   .     S
C683   H717    1.083   .     S
C683   C689    1.401   .     A
C683   C853    1.383   .     S
C684   O722    1.294   .     A
C684   O723    1.302   .     A
C685   H704    1.083   .     S
C685   C686    1.401   .     A
C686   C687    1.401   .     A
C686   C694    1.450   .     S
C687   H705    1.083   .     S
C688   H706    1.083   .     S
C688   C689    1.401   .     A
C688   C855    1.383   .     S
C690   H707    1.080   .     S
C690   N719    1.367   .     A
C690   C747    1.415   .     S
C691   N718    1.366   .     A
C691   H708    1.082   .     S
C691   C802    1.415   1_455 S
C692   H709    1.082   .     S
C692   N718    1.367   .     A
C692   C805    1.416   1_455 S
C693   H710    1.082   .     S
C693   N719    1.367   .     A
C693   C748    1.416   .     S
C694   O725    1.290   .     A
C694   O724    1.290   .     A
C695   O727    1.294   .     A
C695   C697    1.463   .     S
C695   O726    1.293   .     A
C698   C699    1.389   .     A
C698   I728    2.135   .     S
C699   C196    1.385   1_556 S
C699   H211    1.083   1_556 S
C700   H714    1.077   .     S
Cu701  N718    2.010   .     S
Cu701  Cu702   2.675   .     S
Cu701  O722    1.952   .     S
Cu701  O726    1.937   .     S
Cu701  O720    1.965   .     S
Cu701  O724    1.965   .     S
Cu702  O723    1.937   .     S
Cu702  O721    1.965   .     S
Cu702  O725    1.965   .     S
Cu702  N719    2.010   .     S
Cu702  O727    1.952   .     S
H712   C192    1.084   1_556 S
C729   O776    1.290   .     A
C729   C745    1.450   .     S
C729   O777    1.290   .     A
C730   C731    1.419   .     A
C730   C228    1.423   1_556 S
C730   C252    1.413   1_556 S
C731   C738    1.426   .     A
C731   C735    1.413   .     A
C732   C736    1.402   .     A
C733   C734    1.392   .     A
C733   C228    1.419   1_556 S
C733   C248    1.405   1_556 S
C734   C735    1.388   .     A
C734   H767    1.084   .     S
C735   H772    1.079   .     S
C736   H769    1.077   .     S
C736   C753    1.395   .     A
C737   C753    1.399   .     A
C737   C752    1.394   .     A
C737   H759    1.083   .     S
C738   C754    1.422   .     A
C738   C740    1.484   .     S
C739   H773    1.083   .     S
C739   C745    1.401   .     A
C739   C909    1.383   .     S
C740   O778    1.294   .     A
C740   O779    1.302   .     A
C741   H760    1.083   .     S
C741   C742    1.401   .     A
C742   C743    1.401   .     A
C742   C750    1.450   .     S
C743   H761    1.083   .     S
C744   H762    1.083   .     S
C744   C745    1.401   .     A
C744   C911    1.383   .     S
C746   H763    1.080   .     S
C746   N775    1.367   .     A
C746   C803    1.415   .     S
C747   N774    1.366   .     A
C747   H764    1.082   .     S
C748   H765    1.082   .     S
C748   N774    1.367   .     A
C749   H766    1.082   .     S
C749   N775    1.367   .     A
C749   C804    1.416   .     S
C750   O781    1.290   .     A
C750   O780    1.290   .     A
C751   O783    1.294   .     A
C751   C753    1.463   .     S
C751   O782    1.293   .     A
C754   C755    1.389   .     A
C754   I784    2.135   .     S
C755   C252    1.385   1_556 S
C755   H267    1.083   1_556 S
C756   H770    1.077   .     S
Cu757  N774    2.010   .     S
Cu757  Cu758   2.675   .     S
Cu757  O778    1.952   .     S
Cu757  O782    1.937   .     S
Cu757  O776    1.965   .     S
Cu757  O780    1.965   .     S
Cu758  O779    1.937   .     S
Cu758  O777    1.965   .     S
Cu758  O781    1.965   .     S
Cu758  N775    2.010   .     S
Cu758  O783    1.952   .     S
H768   C248    1.084   1_556 S
C785   O832    1.290   .     A
C785   C801    1.450   .     S
C785   O833    1.290   .     A
C786   C787    1.419   .     A
C786   C284    1.423   1_556 S
C786   C308    1.413   1_556 S
C787   C794    1.426   .     A
C787   C791    1.413   .     A
C788   C792    1.402   .     A
C789   C790    1.392   .     A
C789   C284    1.419   1_556 S
C789   C304    1.405   1_556 S
C790   C791    1.388   .     A
C790   H823    1.084   .     S
C791   H828    1.079   .     S
C792   H825    1.077   .     S
C792   C809    1.395   .     A
C793   C809    1.399   .     A
C793   C808    1.394   .     A
C793   H815    1.083   .     S
C794   C810    1.422   .     A
C794   C796    1.484   .     S
C795   H829    1.083   .     S
C795   C801    1.401   .     A
C795   C965    1.383   .     S
C796   O834    1.294   .     A
C796   O835    1.302   .     A
C797   H816    1.083   .     S
C797   C798    1.401   .     A
C798   C799    1.401   .     A
C798   C806    1.450   .     S
C799   H817    1.083   .     S
C800   H818    1.083   .     S
C800   C801    1.401   .     A
C800   C967    1.383   .     S
C802   H819    1.080   .     S
C802   N831    1.367   .     A
C802   C691    1.415   1_655 S
C803   N830    1.366   .     A
C803   H820    1.082   .     S
C804   H821    1.082   .     S
C804   N830    1.367   .     A
C805   H822    1.082   .     S
C805   N831    1.367   .     A
C805   C692    1.416   1_655 S
C806   O837    1.290   .     A
C806   O836    1.290   .     A
C807   O839    1.294   .     A
C807   C809    1.463   .     S
C807   O838    1.293   .     A
C810   C811    1.389   .     A
C810   I840    2.135   .     S
C811   C308    1.385   1_556 S
C811   H323    1.083   1_556 S
C812   H826    1.077   .     S
Cu813  N830    2.010   .     S
Cu813  Cu814   2.675   .     S
Cu813  O834    1.952   .     S
Cu813  O838    1.937   .     S
Cu813  O832    1.965   .     S
Cu813  O836    1.965   .     S
Cu814  O835    1.937   .     S
Cu814  O833    1.965   .     S
Cu814  O837    1.965   .     S
Cu814  N831    2.010   .     S
Cu814  O839    1.952   .     S
H824   C304    1.084   1_556 S
C841   O888    1.290   .     A
C841   C857    1.450   .     S
C841   O889    1.290   .     A
C842   C843    1.419   .     A
C842   C340    1.423   1_556 S
C842   C364    1.413   1_556 S
C843   C850    1.426   .     A
C843   C847    1.413   .     A
C844   C848    1.402   .     A
C845   C846    1.392   .     A
C845   C340    1.419   1_556 S
C845   C360    1.405   1_556 S
C846   C847    1.388   .     A
C846   H879    1.084   .     S
C847   H884    1.079   .     S
C848   H881    1.077   .     S
C848   C865    1.395   .     A
C849   C865    1.399   .     A
C849   C864    1.394   .     A
C849   H871    1.083   .     S
C850   C866    1.422   .     A
C850   C852    1.484   .     S
C851   H885    1.083   .     S
C851   C857    1.401   .     A
C851   C517    1.383   1_565 S
C852   O890    1.294   .     A
C852   O891    1.302   .     A
C853   H872    1.083   .     S
C853   C854    1.401   .     A
C854   C855    1.401   .     A
C854   C862    1.450   .     S
C855   H873    1.083   .     S
C856   H874    1.083   .     S
C856   C857    1.401   .     A
C856   C519    1.383   1_565 S
C858   H875    1.080   .     S
C858   N887    1.367   .     A
C858   C915    1.415   .     S
C859   N886    1.366   .     A
C859   H876    1.082   .     S
C859   C970    1.415   1_455 S
C860   H877    1.082   .     S
C860   N886    1.367   .     A
C860   C973    1.416   1_455 S
C861   H878    1.082   .     S
C861   N887    1.367   .     A
C861   C916    1.416   .     S
C862   O893    1.290   .     A
C862   O892    1.290   .     A
C863   O895    1.294   .     A
C863   C865    1.463   .     S
C863   O894    1.293   .     A
C866   C867    1.389   .     A
C866   I896    2.135   .     S
C867   C364    1.385   1_556 S
C867   H379    1.083   1_556 S
C868   H882    1.077   .     S
Cu869  N886    2.010   .     S
Cu869  Cu870   2.675   .     S
Cu869  O890    1.952   .     S
Cu869  O894    1.937   .     S
Cu869  O888    1.965   .     S
Cu869  O892    1.965   .     S
Cu870  O891    1.937   .     S
Cu870  O889    1.965   .     S
Cu870  O893    1.965   .     S
Cu870  N887    2.010   .     S
Cu870  O895    1.952   .     S
H880   C360    1.084   1_556 S
C897   O944    1.290   .     A
C897   C913    1.450   .     S
C897   O945    1.290   .     A
C898   C899    1.419   .     A
C898   C396    1.423   1_556 S
C898   C420    1.413   1_556 S
C899   C906    1.426   .     A
C899   C903    1.413   .     A
C900   C904    1.402   .     A
C901   C902    1.392   .     A
C901   C396    1.419   1_556 S
C901   C416    1.405   1_556 S
C902   C903    1.388   .     A
C902   H935    1.084   .     S
C903   H940    1.079   .     S
C904   H937    1.077   .     S
C904   C921    1.395   .     A
C905   C921    1.399   .     A
C905   C920    1.394   .     A
C905   H927    1.083   .     S
C906   C922    1.422   .     A
C906   C908    1.484   .     S
C907   H941    1.083   .     S
C907   C913    1.401   .     A
C907   C573    1.383   1_565 S
C908   O946    1.294   .     A
C908   O947    1.302   .     A
C909   H928    1.083   .     S
C909   C910    1.401   .     A
C910   C911    1.401   .     A
C910   C918    1.450   .     S
C911   H929    1.083   .     S
C912   H930    1.083   .     S
C912   C913    1.401   .     A
C912   C575    1.383   1_565 S
C914   H931    1.080   .     S
C914   N943    1.367   .     A
C914   C971    1.415   .     S
C915   N942    1.366   .     A
C915   H932    1.082   .     S
C916   H933    1.082   .     S
C916   N942    1.367   .     A
C917   H934    1.082   .     S
C917   N943    1.367   .     A
C917   C972    1.416   .     S
C918   O949    1.290   .     A
C918   O948    1.290   .     A
C919   O951    1.294   .     A
C919   C921    1.463   .     S
C919   O950    1.293   .     A
C922   C923    1.389   .     A
C922   I952    2.135   .     S
C923   C420    1.385   1_556 S
C923   H435    1.083   1_556 S
C924   H938    1.077   .     S
Cu925  N942    2.010   .     S
Cu925  Cu926   2.675   .     S
Cu925  O946    1.952   .     S
Cu925  O950    1.937   .     S
Cu925  O944    1.965   .     S
Cu925  O948    1.965   .     S
Cu926  O947    1.937   .     S
Cu926  O945    1.965   .     S
Cu926  O949    1.965   .     S
Cu926  N943    2.010   .     S
Cu926  O951    1.952   .     S
H936   C416    1.084   1_556 S
C953   O1000   1.290   .     A
C953   C969    1.450   .     S
C953   O1001   1.290   .     A
C954   C955    1.419   .     A
C954   C452    1.423   1_556 S
C954   C476    1.413   1_556 S
C955   C962    1.426   .     A
C955   C959    1.413   .     A
C956   C960    1.402   .     A
C957   C958    1.392   .     A
C957   C452    1.419   1_556 S
C957   C472    1.405   1_556 S
C958   C959    1.388   .     A
C958   H991    1.084   .     S
C959   H996    1.079   .     S
C960   H993    1.077   .     S
C960   C977    1.395   .     A
C961   C977    1.399   .     A
C961   C976    1.394   .     A
C961   H983    1.083   .     S
C962   C978    1.422   .     A
C962   C964    1.484   .     S
C963   H997    1.083   .     S
C963   C969    1.401   .     A
C963   C629    1.383   1_565 S
C964   O1002   1.294   .     A
C964   O1003   1.302   .     A
C965   H984    1.083   .     S
C965   C966    1.401   .     A
C966   C967    1.401   .     A
C966   C974    1.450   .     S
C967   H985    1.083   .     S
C968   H986    1.083   .     S
C968   C969    1.401   .     A
C968   C631    1.383   1_565 S
C970   H987    1.080   .     S
C970   N999    1.367   .     A
C970   C859    1.415   1_655 S
C971   N998    1.366   .     A
C971   H988    1.082   .     S
C972   H989    1.082   .     S
C972   N998    1.367   .     A
C973   H990    1.082   .     S
C973   N999    1.367   .     A
C973   C860    1.416   1_655 S
C974   O1005   1.290   .     A
C974   O1004   1.290   .     A
C975   O1007   1.294   .     A
C975   C977    1.463   .     S
C975   O1006   1.293   .     A
C978   C979    1.389   .     A
C978   I1008   2.135   .     S
C979   C476    1.385   1_556 S
C979   H491    1.083   1_556 S
C980   H994    1.077   .     S
Cu981  N998    2.010   .     S
Cu981  Cu982   2.675   .     S
Cu981  O1002   1.952   .     S
Cu981  O1006   1.937   .     S
Cu981  O1000   1.965   .     S
Cu981  O1004   1.965   .     S
Cu982  O1003   1.937   .     S
Cu982  O1001   1.965   .     S
Cu982  O1005   1.965   .     S
Cu982  N999    2.010   .     S
Cu982  O1007   1.952   .     S
H992   C472    1.084   1_556 S
