data_str_m2_o2_o5_pcu_sym.30
_audit_creation_date              2020-01-03
_audit_creation_method            'Materials Studio'
_symmetry_space_group_name_H-M    'P1'
_symmetry_Int_Tables_number       1
_symmetry_cell_setting            triclinic
loop_
_symmetry_equiv_pos_as_xyz
  x,y,z
_cell_length_a                    30.2547
_cell_length_b                    27.7264
_cell_length_c                    27.1533
_cell_angle_alpha                 90.0007
_cell_angle_beta                  90.5062
_cell_angle_gamma                 90.0019
loop_
_atom_site_label
_atom_site_type_symbol
_atom_site_fract_x
_atom_site_fract_y
_atom_site_fract_z
_atom_site_U_iso_or_equiv
_atom_site_adp_type
_atom_site_occupancy
C1     C     0.16492   0.25003   0.16648   0.00000  Uiso   1.00
C2     C     0.28301   0.44603   0.19169   0.00000  Uiso   1.00
C3     C     0.24995   0.25000   0.07352   0.00000  Uiso   1.00
C4     C     0.25005   0.25000   0.25981   0.00000  Uiso   1.00
C5     C     0.25000   0.02725   0.16667   0.00000  Uiso   1.00
C6     C     0.25000   0.47261   0.16667   0.00000  Uiso   1.00
C7     C     0.24998   0.25000   0.02186   0.00000  Uiso   1.00
C8     C     0.25002   0.25000   0.31148   0.00000  Uiso   1.00
C9     C     0.04724   0.28928   0.18654   0.00000  Uiso   1.00
C10    C     0.45320   0.21129   0.18645   0.00000  Uiso   1.00
C11    C     0.45270   0.28926   0.14627   0.00000  Uiso   1.00
C12    C     0.33508   0.25003   0.16681   0.00000  Uiso   1.00
C13    C     0.04685   0.21134   0.14630   0.00000  Uiso   1.00
C14    C     0.09323   0.28890   0.18835   0.00000  Uiso   1.00
C15    C     0.40727   0.21167   0.18860   0.00000  Uiso   1.00
C16    C     0.40670   0.28890   0.14466   0.00000  Uiso   1.00
C17    C     0.09279   0.21171   0.14434   0.00000  Uiso   1.00
C18    C     0.11651   0.25017   0.16646   0.00000  Uiso   1.00
C19    C     0.38349   0.25017   0.16663   0.00000  Uiso   1.00
C20    C     0.02409   0.25032   0.16641   0.00000  Uiso   1.00
C21    C     0.47590   0.25029   0.16630   0.00000  Uiso   1.00
C22    C     0.13002   0.31788   0.25663   0.00000  Uiso   1.00
C23    C     0.26742   0.10459   0.20570   0.00000  Uiso   1.00
C24    C     0.09340   0.32520   0.29465   0.00000  Uiso   1.00
C25    C     0.11205   0.32490   0.01376   0.00000  Uiso   1.00
C26    C     0.37422   0.18481   0.25924   0.00000  Uiso   1.00
C27    C     0.41345   0.17926   0.29509   0.00000  Uiso   1.00
C28    C     0.39841   0.18068   0.01526   0.00000  Uiso   1.00
C29    C     0.36962   0.31797   0.07661   0.00000  Uiso   1.00
C30    C     0.40599   0.32564   0.03838   0.00000  Uiso   1.00
C31    C     0.38706   0.32530   0.31938   0.00000  Uiso   1.00
C32    C     0.12614   0.18480   0.07388   0.00000  Uiso   1.00
C33    C     0.08696   0.17989   0.03786   0.00000  Uiso   1.00
C34    C     0.21772   0.39528   0.14191   0.00000  Uiso   1.00
C35    C     0.10223   0.18082   0.31776   0.00000  Uiso   1.00
C36    C     0.23259   0.10459   0.12763   0.00000  Uiso   1.00
C37    C     0.28228   0.39529   0.19142   0.00000  Uiso   1.00
C38    C     0.26757   0.05384   0.20654   0.00000  Uiso   1.00
C39    C     0.21699   0.44603   0.14164   0.00000  Uiso   1.00
C40    C     0.23243   0.05384   0.12679   0.00000  Uiso   1.00
Cu41   Cu    0.25000   0.29821   0.16667   0.00000  Uiso   1.00
Cu42   Cu    0.25000   0.20178   0.16667   0.00000  Uiso   1.00
H43    H     0.28114   0.12405   0.23670   0.00000  Uiso   1.00
H44    H     0.19026   0.46411   0.12243   0.00000  Uiso   1.00
H45    H     0.21915   0.03576   0.09461   0.00000  Uiso   1.00
H46    H     0.30974   0.46411   0.21091   0.00000  Uiso   1.00
H47    H     0.15746   0.34331   0.26503   0.00000  Uiso   1.00
H48    H     0.14428   0.28097   0.26003   0.00000  Uiso   1.00
H49    H     0.07657   0.36024   0.28784   0.00000  Uiso   1.00
H50    H     0.06859   0.29584   0.29096   0.00000  Uiso   1.00
H51    H     0.13110   0.29138   0.02069   0.00000  Uiso   1.00
H52    H     0.08455   0.32684   0.04052   0.00000  Uiso   1.00
H53    H     0.13412   0.35643   0.01963   0.00000  Uiso   1.00
H54    H     0.19220   0.37561   0.12231   0.00000  Uiso   1.00
H55    H     0.34789   0.15926   0.27036   0.00000  Uiso   1.00
H56    H     0.35962   0.22156   0.26220   0.00000  Uiso   1.00
H57    H     0.43040   0.14438   0.28820   0.00000  Uiso   1.00
H58    H     0.43743   0.20900   0.28914   0.00000  Uiso   1.00
H59    H     0.38011   0.21451   0.02271   0.00000  Uiso   1.00
H60    H     0.42765   0.17904   0.04021   0.00000  Uiso   1.00
H61    H     0.37662   0.14945   0.02320   0.00000  Uiso   1.00
H62    H     0.34201   0.34326   0.06849   0.00000  Uiso   1.00
H63    H     0.35554   0.28098   0.07317   0.00000  Uiso   1.00
H64    H     0.42263   0.36079   0.04514   0.00000  Uiso   1.00
H65    H     0.21888   0.12404   0.09663   0.00000  Uiso   1.00
H66    H     0.43101   0.29646   0.04185   0.00000  Uiso   1.00
H67    H     0.36812   0.29169   0.31254   0.00000  Uiso   1.00
H68    H     0.41439   0.32744   0.29244   0.00000  Uiso   1.00
H69    H     0.36480   0.35671   0.31371   0.00000  Uiso   1.00
H70    H     0.15221   0.15895   0.06277   0.00000  Uiso   1.00
H71    H     0.14116   0.22137   0.07112   0.00000  Uiso   1.00
H72    H     0.06940   0.14537   0.04478   0.00000  Uiso   1.00
H73    H     0.06345   0.21012   0.04359   0.00000  Uiso   1.00
H74    H     0.12144   0.21405   0.31038   0.00000  Uiso   1.00
H75    H     0.07305   0.18005   0.29267   0.00000  Uiso   1.00
H76    H     0.30780   0.37561   0.21102   0.00000  Uiso   1.00
H77    H     0.12324   0.14891   0.30994   0.00000  Uiso   1.00
H78    H     0.02952   0.31953   0.20215   0.00000  Uiso   1.00
H79    H     0.47126   0.18117   0.20221   0.00000  Uiso   1.00
H80    H     0.47038   0.31953   0.13064   0.00000  Uiso   1.00
H81    H     0.02883   0.18123   0.13047   0.00000  Uiso   1.00
H82    H     0.28086   0.03577   0.23873   0.00000  Uiso   1.00
N83    N     0.25000   0.12934   0.16667   0.00000  Uiso   1.00
N84    N     0.25000   0.37065   0.16667   0.00000  Uiso   1.00
O85    O     0.18573   0.29071   0.16667   0.00000  Uiso   1.00
O86    O     0.38623   0.17289   0.21041   0.00000  Uiso   1.00
O87    O     0.38517   0.32856   0.12477   0.00000  Uiso   1.00
O88    O     0.11388   0.17290   0.12264   0.00000  Uiso   1.00
O89    O     0.31427   0.20928   0.16666   0.00000  Uiso   1.00
O90    O     0.31427   0.29071   0.16666   0.00000  Uiso   1.00
O91    O     0.18573   0.20928   0.16667   0.00000  Uiso   1.00
O92    O     0.25000   0.29071   0.09613   0.00000  Uiso   1.00
O93    O     0.25000   0.20929   0.23720   0.00000  Uiso   1.00
O94    O     0.25000   0.29071   0.23720   0.00000  Uiso   1.00
O95    O     0.25000   0.20929   0.09613   0.00000  Uiso   1.00
O96    O     0.11471   0.32853   0.20840   0.00000  Uiso   1.00
C97    C     0.66492   0.25003   0.16648   0.00000  Uiso   1.00
C98    C     0.78301   0.44603   0.19169   0.00000  Uiso   1.00
C99    C     0.74995   0.25000   0.07352   0.00000  Uiso   1.00
C100   C     0.75005   0.25000   0.25981   0.00000  Uiso   1.00
C101   C     0.75000   0.02725   0.16667   0.00000  Uiso   1.00
C102   C     0.75000   0.47261   0.16667   0.00000  Uiso   1.00
C103   C     0.74998   0.25000   0.02186   0.00000  Uiso   1.00
C104   C     0.75002   0.25000   0.31148   0.00000  Uiso   1.00
C105   C     0.54724   0.28928   0.18654   0.00000  Uiso   1.00
C106   C     0.95320   0.21129   0.18645   0.00000  Uiso   1.00
C107   C     0.95270   0.28926   0.14627   0.00000  Uiso   1.00
C108   C     0.83508   0.25003   0.16681   0.00000  Uiso   1.00
C109   C     0.54685   0.21134   0.14630   0.00000  Uiso   1.00
C110   C     0.59323   0.28890   0.18835   0.00000  Uiso   1.00
C111   C     0.90727   0.21167   0.18860   0.00000  Uiso   1.00
C112   C     0.90670   0.28890   0.14466   0.00000  Uiso   1.00
C113   C     0.59279   0.21171   0.14434   0.00000  Uiso   1.00
C114   C     0.61651   0.25017   0.16646   0.00000  Uiso   1.00
C115   C     0.88349   0.25017   0.16663   0.00000  Uiso   1.00
C116   C     0.52409   0.25032   0.16641   0.00000  Uiso   1.00
C117   C     0.97590   0.25029   0.16630   0.00000  Uiso   1.00
C118   C     0.63002   0.31788   0.25663   0.00000  Uiso   1.00
C119   C     0.76742   0.10459   0.20570   0.00000  Uiso   1.00
C120   C     0.59340   0.32520   0.29465   0.00000  Uiso   1.00
C121   C     0.61205   0.32490   0.01376   0.00000  Uiso   1.00
C122   C     0.87422   0.18481   0.25924   0.00000  Uiso   1.00
C123   C     0.91345   0.17926   0.29509   0.00000  Uiso   1.00
C124   C     0.89841   0.18068   0.01526   0.00000  Uiso   1.00
C125   C     0.86962   0.31797   0.07661   0.00000  Uiso   1.00
C126   C     0.90599   0.32564   0.03838   0.00000  Uiso   1.00
C127   C     0.88706   0.32530   0.31938   0.00000  Uiso   1.00
C128   C     0.62614   0.18480   0.07388   0.00000  Uiso   1.00
C129   C     0.58696   0.17989   0.03786   0.00000  Uiso   1.00
C130   C     0.71772   0.39528   0.14191   0.00000  Uiso   1.00
C131   C     0.60223   0.18082   0.31776   0.00000  Uiso   1.00
C132   C     0.73259   0.10459   0.12763   0.00000  Uiso   1.00
C133   C     0.78228   0.39529   0.19142   0.00000  Uiso   1.00
C134   C     0.76757   0.05384   0.20654   0.00000  Uiso   1.00
C135   C     0.71699   0.44603   0.14164   0.00000  Uiso   1.00
C136   C     0.73243   0.05384   0.12679   0.00000  Uiso   1.00
Cu137  Cu    0.75000   0.29821   0.16667   0.00000  Uiso   1.00
Cu138  Cu    0.75000   0.20178   0.16667   0.00000  Uiso   1.00
H139   H     0.78114   0.12405   0.23670   0.00000  Uiso   1.00
H140   H     0.69026   0.46411   0.12243   0.00000  Uiso   1.00
H141   H     0.71915   0.03576   0.09461   0.00000  Uiso   1.00
H142   H     0.80974   0.46411   0.21091   0.00000  Uiso   1.00
H143   H     0.65746   0.34331   0.26503   0.00000  Uiso   1.00
H144   H     0.64428   0.28097   0.26003   0.00000  Uiso   1.00
H145   H     0.57657   0.36024   0.28784   0.00000  Uiso   1.00
H146   H     0.56859   0.29584   0.29096   0.00000  Uiso   1.00
H147   H     0.63110   0.29138   0.02069   0.00000  Uiso   1.00
H148   H     0.58455   0.32684   0.04052   0.00000  Uiso   1.00
H149   H     0.63412   0.35643   0.01963   0.00000  Uiso   1.00
H150   H     0.69220   0.37561   0.12231   0.00000  Uiso   1.00
H151   H     0.84789   0.15926   0.27036   0.00000  Uiso   1.00
H152   H     0.85962   0.22156   0.26220   0.00000  Uiso   1.00
H153   H     0.93040   0.14438   0.28820   0.00000  Uiso   1.00
H154   H     0.93743   0.20900   0.28914   0.00000  Uiso   1.00
H155   H     0.88011   0.21451   0.02271   0.00000  Uiso   1.00
H156   H     0.92765   0.17904   0.04021   0.00000  Uiso   1.00
H157   H     0.87662   0.14945   0.02320   0.00000  Uiso   1.00
H158   H     0.84201   0.34326   0.06849   0.00000  Uiso   1.00
H159   H     0.85554   0.28098   0.07317   0.00000  Uiso   1.00
H160   H     0.92263   0.36079   0.04514   0.00000  Uiso   1.00
H161   H     0.71888   0.12404   0.09663   0.00000  Uiso   1.00
H162   H     0.93101   0.29646   0.04185   0.00000  Uiso   1.00
H163   H     0.86812   0.29169   0.31254   0.00000  Uiso   1.00
H164   H     0.91439   0.32744   0.29244   0.00000  Uiso   1.00
H165   H     0.86480   0.35671   0.31371   0.00000  Uiso   1.00
H166   H     0.65221   0.15895   0.06277   0.00000  Uiso   1.00
H167   H     0.64116   0.22137   0.07112   0.00000  Uiso   1.00
H168   H     0.56940   0.14537   0.04478   0.00000  Uiso   1.00
H169   H     0.56345   0.21012   0.04359   0.00000  Uiso   1.00
H170   H     0.62144   0.21405   0.31038   0.00000  Uiso   1.00
H171   H     0.57305   0.18005   0.29267   0.00000  Uiso   1.00
H172   H     0.80780   0.37561   0.21102   0.00000  Uiso   1.00
H173   H     0.62324   0.14891   0.30994   0.00000  Uiso   1.00
H174   H     0.52952   0.31953   0.20215   0.00000  Uiso   1.00
H175   H     0.97126   0.18117   0.20221   0.00000  Uiso   1.00
H176   H     0.97038   0.31953   0.13064   0.00000  Uiso   1.00
H177   H     0.52883   0.18123   0.13047   0.00000  Uiso   1.00
H178   H     0.78086   0.03577   0.23873   0.00000  Uiso   1.00
N179   N     0.75000   0.12934   0.16667   0.00000  Uiso   1.00
N180   N     0.75000   0.37065   0.16667   0.00000  Uiso   1.00
O181   O     0.68573   0.29071   0.16667   0.00000  Uiso   1.00
O182   O     0.88623   0.17289   0.21041   0.00000  Uiso   1.00
O183   O     0.88517   0.32856   0.12477   0.00000  Uiso   1.00
O184   O     0.61388   0.17290   0.12264   0.00000  Uiso   1.00
O185   O     0.81427   0.20928   0.16666   0.00000  Uiso   1.00
O186   O     0.81427   0.29071   0.16666   0.00000  Uiso   1.00
O187   O     0.68573   0.20928   0.16667   0.00000  Uiso   1.00
O188   O     0.75000   0.29071   0.09613   0.00000  Uiso   1.00
O189   O     0.75000   0.20929   0.23720   0.00000  Uiso   1.00
O190   O     0.75000   0.29071   0.23720   0.00000  Uiso   1.00
O191   O     0.75000   0.20929   0.09613   0.00000  Uiso   1.00
O192   O     0.61471   0.32853   0.20840   0.00000  Uiso   1.00
C193   C     0.16492   0.75003   0.16648   0.00000  Uiso   1.00
C194   C     0.28301   0.94603   0.19169   0.00000  Uiso   1.00
C195   C     0.24995   0.75000   0.07352   0.00000  Uiso   1.00
C196   C     0.25005   0.75000   0.25981   0.00000  Uiso   1.00
C197   C     0.25000   0.52725   0.16667   0.00000  Uiso   1.00
C198   C     0.25000   0.97261   0.16667   0.00000  Uiso   1.00
C199   C     0.24998   0.75000   0.02186   0.00000  Uiso   1.00
C200   C     0.25002   0.75000   0.31148   0.00000  Uiso   1.00
C201   C     0.04724   0.78928   0.18654   0.00000  Uiso   1.00
C202   C     0.45320   0.71129   0.18645   0.00000  Uiso   1.00
C203   C     0.45270   0.78926   0.14627   0.00000  Uiso   1.00
C204   C     0.33508   0.75003   0.16681   0.00000  Uiso   1.00
C205   C     0.04685   0.71134   0.14630   0.00000  Uiso   1.00
C206   C     0.09323   0.78890   0.18835   0.00000  Uiso   1.00
C207   C     0.40727   0.71167   0.18860   0.00000  Uiso   1.00
C208   C     0.40670   0.78890   0.14466   0.00000  Uiso   1.00
C209   C     0.09279   0.71171   0.14434   0.00000  Uiso   1.00
C210   C     0.11651   0.75017   0.16646   0.00000  Uiso   1.00
C211   C     0.38349   0.75017   0.16663   0.00000  Uiso   1.00
C212   C     0.02409   0.75032   0.16641   0.00000  Uiso   1.00
C213   C     0.47590   0.75029   0.16630   0.00000  Uiso   1.00
C214   C     0.13002   0.81788   0.25663   0.00000  Uiso   1.00
C215   C     0.26742   0.60459   0.20570   0.00000  Uiso   1.00
C216   C     0.09340   0.82520   0.29465   0.00000  Uiso   1.00
C217   C     0.11205   0.82490   0.01376   0.00000  Uiso   1.00
C218   C     0.37422   0.68481   0.25924   0.00000  Uiso   1.00
C219   C     0.41345   0.67926   0.29509   0.00000  Uiso   1.00
C220   C     0.39841   0.68068   0.01526   0.00000  Uiso   1.00
C221   C     0.36962   0.81797   0.07661   0.00000  Uiso   1.00
C222   C     0.40599   0.82564   0.03838   0.00000  Uiso   1.00
C223   C     0.38706   0.82530   0.31938   0.00000  Uiso   1.00
C224   C     0.12614   0.68480   0.07388   0.00000  Uiso   1.00
C225   C     0.08696   0.67989   0.03786   0.00000  Uiso   1.00
C226   C     0.21772   0.89528   0.14191   0.00000  Uiso   1.00
C227   C     0.10223   0.68082   0.31776   0.00000  Uiso   1.00
C228   C     0.23259   0.60459   0.12763   0.00000  Uiso   1.00
C229   C     0.28228   0.89529   0.19142   0.00000  Uiso   1.00
C230   C     0.26757   0.55384   0.20654   0.00000  Uiso   1.00
C231   C     0.21699   0.94603   0.14164   0.00000  Uiso   1.00
C232   C     0.23243   0.55384   0.12679   0.00000  Uiso   1.00
Cu233  Cu    0.25000   0.79821   0.16667   0.00000  Uiso   1.00
Cu234  Cu    0.25000   0.70178   0.16667   0.00000  Uiso   1.00
H235   H     0.28114   0.62405   0.23670   0.00000  Uiso   1.00
H236   H     0.19026   0.96411   0.12243   0.00000  Uiso   1.00
H237   H     0.21915   0.53576   0.09461   0.00000  Uiso   1.00
H238   H     0.30974   0.96411   0.21091   0.00000  Uiso   1.00
H239   H     0.15746   0.84331   0.26503   0.00000  Uiso   1.00
H240   H     0.14428   0.78097   0.26003   0.00000  Uiso   1.00
H241   H     0.07657   0.86024   0.28784   0.00000  Uiso   1.00
H242   H     0.06859   0.79584   0.29096   0.00000  Uiso   1.00
H243   H     0.13110   0.79138   0.02069   0.00000  Uiso   1.00
H244   H     0.08455   0.82684   0.04052   0.00000  Uiso   1.00
H245   H     0.13412   0.85643   0.01963   0.00000  Uiso   1.00
H246   H     0.19220   0.87561   0.12231   0.00000  Uiso   1.00
H247   H     0.34789   0.65926   0.27036   0.00000  Uiso   1.00
H248   H     0.35962   0.72156   0.26220   0.00000  Uiso   1.00
H249   H     0.43040   0.64438   0.28820   0.00000  Uiso   1.00
H250   H     0.43743   0.70900   0.28914   0.00000  Uiso   1.00
H251   H     0.38011   0.71451   0.02271   0.00000  Uiso   1.00
H252   H     0.42765   0.67904   0.04021   0.00000  Uiso   1.00
H253   H     0.37662   0.64945   0.02320   0.00000  Uiso   1.00
H254   H     0.34201   0.84326   0.06849   0.00000  Uiso   1.00
H255   H     0.35554   0.78098   0.07317   0.00000  Uiso   1.00
H256   H     0.42263   0.86079   0.04514   0.00000  Uiso   1.00
H257   H     0.21888   0.62404   0.09663   0.00000  Uiso   1.00
H258   H     0.43101   0.79646   0.04185   0.00000  Uiso   1.00
H259   H     0.36812   0.79169   0.31254   0.00000  Uiso   1.00
H260   H     0.41439   0.82744   0.29244   0.00000  Uiso   1.00
H261   H     0.36480   0.85671   0.31371   0.00000  Uiso   1.00
H262   H     0.15221   0.65895   0.06277   0.00000  Uiso   1.00
H263   H     0.14116   0.72137   0.07112   0.00000  Uiso   1.00
H264   H     0.06940   0.64537   0.04478   0.00000  Uiso   1.00
H265   H     0.06345   0.71012   0.04359   0.00000  Uiso   1.00
H266   H     0.12144   0.71405   0.31038   0.00000  Uiso   1.00
H267   H     0.07305   0.68005   0.29267   0.00000  Uiso   1.00
H268   H     0.30780   0.87561   0.21102   0.00000  Uiso   1.00
H269   H     0.12324   0.64891   0.30994   0.00000  Uiso   1.00
H270   H     0.02952   0.81953   0.20215   0.00000  Uiso   1.00
H271   H     0.47126   0.68117   0.20221   0.00000  Uiso   1.00
H272   H     0.47038   0.81953   0.13064   0.00000  Uiso   1.00
H273   H     0.02883   0.68123   0.13047   0.00000  Uiso   1.00
H274   H     0.28086   0.53577   0.23873   0.00000  Uiso   1.00
N275   N     0.25000   0.62934   0.16667   0.00000  Uiso   1.00
N276   N     0.25000   0.87065   0.16667   0.00000  Uiso   1.00
O277   O     0.18573   0.79071   0.16667   0.00000  Uiso   1.00
O278   O     0.38623   0.67289   0.21041   0.00000  Uiso   1.00
O279   O     0.38517   0.82856   0.12477   0.00000  Uiso   1.00
O280   O     0.11388   0.67290   0.12264   0.00000  Uiso   1.00
O281   O     0.31427   0.70928   0.16666   0.00000  Uiso   1.00
O282   O     0.31427   0.79071   0.16666   0.00000  Uiso   1.00
O283   O     0.18573   0.70928   0.16667   0.00000  Uiso   1.00
O284   O     0.25000   0.79071   0.09613   0.00000  Uiso   1.00
O285   O     0.25000   0.70929   0.23720   0.00000  Uiso   1.00
O286   O     0.25000   0.79071   0.23720   0.00000  Uiso   1.00
O287   O     0.25000   0.70929   0.09613   0.00000  Uiso   1.00
O288   O     0.11471   0.82853   0.20840   0.00000  Uiso   1.00
C289   C     0.66492   0.75003   0.16648   0.00000  Uiso   1.00
C290   C     0.78301   0.94603   0.19169   0.00000  Uiso   1.00
C291   C     0.74995   0.75000   0.07352   0.00000  Uiso   1.00
C292   C     0.75005   0.75000   0.25981   0.00000  Uiso   1.00
C293   C     0.75000   0.52725   0.16667   0.00000  Uiso   1.00
C294   C     0.75000   0.97261   0.16667   0.00000  Uiso   1.00
C295   C     0.74998   0.75000   0.02186   0.00000  Uiso   1.00
C296   C     0.75002   0.75000   0.31148   0.00000  Uiso   1.00
C297   C     0.54724   0.78928   0.18654   0.00000  Uiso   1.00
C298   C     0.95320   0.71129   0.18645   0.00000  Uiso   1.00
C299   C     0.95270   0.78926   0.14627   0.00000  Uiso   1.00
C300   C     0.83508   0.75003   0.16681   0.00000  Uiso   1.00
C301   C     0.54685   0.71134   0.14630   0.00000  Uiso   1.00
C302   C     0.59323   0.78890   0.18835   0.00000  Uiso   1.00
C303   C     0.90727   0.71167   0.18860   0.00000  Uiso   1.00
C304   C     0.90670   0.78890   0.14466   0.00000  Uiso   1.00
C305   C     0.59279   0.71171   0.14434   0.00000  Uiso   1.00
C306   C     0.61651   0.75017   0.16646   0.00000  Uiso   1.00
C307   C     0.88349   0.75017   0.16663   0.00000  Uiso   1.00
C308   C     0.52409   0.75032   0.16641   0.00000  Uiso   1.00
C309   C     0.97590   0.75029   0.16630   0.00000  Uiso   1.00
C310   C     0.63002   0.81788   0.25663   0.00000  Uiso   1.00
C311   C     0.76742   0.60459   0.20570   0.00000  Uiso   1.00
C312   C     0.59340   0.82520   0.29465   0.00000  Uiso   1.00
C313   C     0.61205   0.82490   0.01376   0.00000  Uiso   1.00
C314   C     0.87422   0.68481   0.25924   0.00000  Uiso   1.00
C315   C     0.91345   0.67926   0.29509   0.00000  Uiso   1.00
C316   C     0.89841   0.68068   0.01526   0.00000  Uiso   1.00
C317   C     0.86962   0.81797   0.07661   0.00000  Uiso   1.00
C318   C     0.90599   0.82564   0.03838   0.00000  Uiso   1.00
C319   C     0.88706   0.82530   0.31938   0.00000  Uiso   1.00
C320   C     0.62614   0.68480   0.07388   0.00000  Uiso   1.00
C321   C     0.58696   0.67989   0.03786   0.00000  Uiso   1.00
C322   C     0.71772   0.89528   0.14191   0.00000  Uiso   1.00
C323   C     0.60223   0.68082   0.31776   0.00000  Uiso   1.00
C324   C     0.73259   0.60459   0.12763   0.00000  Uiso   1.00
C325   C     0.78228   0.89529   0.19142   0.00000  Uiso   1.00
C326   C     0.76757   0.55384   0.20654   0.00000  Uiso   1.00
C327   C     0.71699   0.94603   0.14164   0.00000  Uiso   1.00
C328   C     0.73243   0.55384   0.12679   0.00000  Uiso   1.00
Cu329  Cu    0.75000   0.79821   0.16667   0.00000  Uiso   1.00
Cu330  Cu    0.75000   0.70178   0.16667   0.00000  Uiso   1.00
H331   H     0.78114   0.62405   0.23670   0.00000  Uiso   1.00
H332   H     0.69026   0.96411   0.12243   0.00000  Uiso   1.00
H333   H     0.71915   0.53576   0.09461   0.00000  Uiso   1.00
H334   H     0.80974   0.96411   0.21091   0.00000  Uiso   1.00
H335   H     0.65746   0.84331   0.26503   0.00000  Uiso   1.00
H336   H     0.64428   0.78097   0.26003   0.00000  Uiso   1.00
H337   H     0.57657   0.86024   0.28784   0.00000  Uiso   1.00
H338   H     0.56859   0.79584   0.29096   0.00000  Uiso   1.00
H339   H     0.63110   0.79138   0.02069   0.00000  Uiso   1.00
H340   H     0.58455   0.82684   0.04052   0.00000  Uiso   1.00
H341   H     0.63412   0.85643   0.01963   0.00000  Uiso   1.00
H342   H     0.69220   0.87561   0.12231   0.00000  Uiso   1.00
H343   H     0.84789   0.65926   0.27036   0.00000  Uiso   1.00
H344   H     0.85962   0.72156   0.26220   0.00000  Uiso   1.00
H345   H     0.93040   0.64438   0.28820   0.00000  Uiso   1.00
H346   H     0.93743   0.70900   0.28914   0.00000  Uiso   1.00
H347   H     0.88011   0.71451   0.02271   0.00000  Uiso   1.00
H348   H     0.92765   0.67904   0.04021   0.00000  Uiso   1.00
H349   H     0.87662   0.64945   0.02320   0.00000  Uiso   1.00
H350   H     0.84201   0.84326   0.06849   0.00000  Uiso   1.00
H351   H     0.85554   0.78098   0.07317   0.00000  Uiso   1.00
H352   H     0.92263   0.86079   0.04514   0.00000  Uiso   1.00
H353   H     0.71888   0.62404   0.09663   0.00000  Uiso   1.00
H354   H     0.93101   0.79646   0.04185   0.00000  Uiso   1.00
H355   H     0.86812   0.79169   0.31254   0.00000  Uiso   1.00
H356   H     0.91439   0.82744   0.29244   0.00000  Uiso   1.00
H357   H     0.86480   0.85671   0.31371   0.00000  Uiso   1.00
H358   H     0.65221   0.65895   0.06277   0.00000  Uiso   1.00
H359   H     0.64116   0.72137   0.07112   0.00000  Uiso   1.00
H360   H     0.56940   0.64537   0.04478   0.00000  Uiso   1.00
H361   H     0.56345   0.71012   0.04359   0.00000  Uiso   1.00
H362   H     0.62144   0.71405   0.31038   0.00000  Uiso   1.00
H363   H     0.57305   0.68005   0.29267   0.00000  Uiso   1.00
H364   H     0.80780   0.87561   0.21102   0.00000  Uiso   1.00
H365   H     0.62324   0.64891   0.30994   0.00000  Uiso   1.00
H366   H     0.52952   0.81953   0.20215   0.00000  Uiso   1.00
H367   H     0.97126   0.68117   0.20221   0.00000  Uiso   1.00
H368   H     0.97038   0.81953   0.13064   0.00000  Uiso   1.00
H369   H     0.52883   0.68123   0.13047   0.00000  Uiso   1.00
H370   H     0.78086   0.53577   0.23873   0.00000  Uiso   1.00
N371   N     0.75000   0.62934   0.16667   0.00000  Uiso   1.00
N372   N     0.75000   0.87065   0.16667   0.00000  Uiso   1.00
O373   O     0.68573   0.79071   0.16667   0.00000  Uiso   1.00
O374   O     0.88623   0.67289   0.21041   0.00000  Uiso   1.00
O375   O     0.88517   0.82856   0.12477   0.00000  Uiso   1.00
O376   O     0.61388   0.67290   0.12264   0.00000  Uiso   1.00
O377   O     0.81427   0.70928   0.16666   0.00000  Uiso   1.00
O378   O     0.81427   0.79071   0.16666   0.00000  Uiso   1.00
O379   O     0.68573   0.70928   0.16667   0.00000  Uiso   1.00
O380   O     0.75000   0.79071   0.09613   0.00000  Uiso   1.00
O381   O     0.75000   0.70929   0.23720   0.00000  Uiso   1.00
O382   O     0.75000   0.79071   0.23720   0.00000  Uiso   1.00
O383   O     0.75000   0.70929   0.09613   0.00000  Uiso   1.00
O384   O     0.61471   0.82853   0.20840   0.00000  Uiso   1.00
C385   C     0.16492   0.25003   0.49981   0.00000  Uiso   1.00
C386   C     0.28301   0.44603   0.52503   0.00000  Uiso   1.00
C387   C     0.24995   0.25000   0.40685   0.00000  Uiso   1.00
C388   C     0.25005   0.25000   0.59315   0.00000  Uiso   1.00
C389   C     0.25000   0.02725   0.50000   0.00000  Uiso   1.00
C390   C     0.25000   0.47261   0.50000   0.00000  Uiso   1.00
C391   C     0.24998   0.25000   0.35519   0.00000  Uiso   1.00
C392   C     0.25002   0.25000   0.64481   0.00000  Uiso   1.00
C393   C     0.04724   0.28928   0.51987   0.00000  Uiso   1.00
C394   C     0.45320   0.21129   0.51978   0.00000  Uiso   1.00
C395   C     0.45270   0.28926   0.47960   0.00000  Uiso   1.00
C396   C     0.33508   0.25003   0.50015   0.00000  Uiso   1.00
C397   C     0.04685   0.21134   0.47963   0.00000  Uiso   1.00
C398   C     0.09323   0.28890   0.52168   0.00000  Uiso   1.00
C399   C     0.40727   0.21167   0.52194   0.00000  Uiso   1.00
C400   C     0.40670   0.28890   0.47800   0.00000  Uiso   1.00
C401   C     0.09279   0.21171   0.47767   0.00000  Uiso   1.00
C402   C     0.11651   0.25017   0.49980   0.00000  Uiso   1.00
C403   C     0.38349   0.25017   0.49996   0.00000  Uiso   1.00
C404   C     0.02409   0.25032   0.49974   0.00000  Uiso   1.00
C405   C     0.47590   0.25029   0.49963   0.00000  Uiso   1.00
C406   C     0.13002   0.31788   0.58997   0.00000  Uiso   1.00
C407   C     0.26742   0.10459   0.53904   0.00000  Uiso   1.00
C408   C     0.09340   0.32520   0.62798   0.00000  Uiso   1.00
C409   C     0.11205   0.32490   0.34709   0.00000  Uiso   1.00
C410   C     0.37422   0.18481   0.59258   0.00000  Uiso   1.00
C411   C     0.41345   0.17926   0.62842   0.00000  Uiso   1.00
C412   C     0.39841   0.18068   0.34859   0.00000  Uiso   1.00
C413   C     0.36962   0.31797   0.40994   0.00000  Uiso   1.00
C414   C     0.40599   0.32564   0.37171   0.00000  Uiso   1.00
C415   C     0.38706   0.32530   0.65272   0.00000  Uiso   1.00
C416   C     0.12614   0.18480   0.40721   0.00000  Uiso   1.00
C417   C     0.08696   0.17989   0.37119   0.00000  Uiso   1.00
C418   C     0.21772   0.39528   0.47525   0.00000  Uiso   1.00
C419   C     0.10223   0.18082   0.65109   0.00000  Uiso   1.00
C420   C     0.23259   0.10459   0.46096   0.00000  Uiso   1.00
C421   C     0.28228   0.39529   0.52475   0.00000  Uiso   1.00
C422   C     0.26757   0.05384   0.53988   0.00000  Uiso   1.00
C423   C     0.21699   0.44603   0.47497   0.00000  Uiso   1.00
C424   C     0.23243   0.05384   0.46012   0.00000  Uiso   1.00
Cu425  Cu    0.25000   0.29821   0.50000   0.00000  Uiso   1.00
Cu426  Cu    0.25000   0.20178   0.50000   0.00000  Uiso   1.00
H427   H     0.28114   0.12405   0.57003   0.00000  Uiso   1.00
H428   H     0.19026   0.46411   0.45576   0.00000  Uiso   1.00
H429   H     0.21915   0.03576   0.42794   0.00000  Uiso   1.00
H430   H     0.30974   0.46411   0.54424   0.00000  Uiso   1.00
H431   H     0.15746   0.34331   0.59836   0.00000  Uiso   1.00
H432   H     0.14428   0.28097   0.59336   0.00000  Uiso   1.00
H433   H     0.07657   0.36024   0.62117   0.00000  Uiso   1.00
H434   H     0.06859   0.29584   0.62429   0.00000  Uiso   1.00
H435   H     0.13110   0.29138   0.35402   0.00000  Uiso   1.00
H436   H     0.08455   0.32684   0.37385   0.00000  Uiso   1.00
H437   H     0.13412   0.35643   0.35296   0.00000  Uiso   1.00
H438   H     0.19220   0.37561   0.45565   0.00000  Uiso   1.00
H439   H     0.34789   0.15926   0.60370   0.00000  Uiso   1.00
H440   H     0.35962   0.22156   0.59553   0.00000  Uiso   1.00
H441   H     0.43040   0.14438   0.62153   0.00000  Uiso   1.00
H442   H     0.43743   0.20900   0.62247   0.00000  Uiso   1.00
H443   H     0.38011   0.21451   0.35604   0.00000  Uiso   1.00
H444   H     0.42765   0.17904   0.37354   0.00000  Uiso   1.00
H445   H     0.37662   0.14945   0.35654   0.00000  Uiso   1.00
H446   H     0.34201   0.34326   0.40183   0.00000  Uiso   1.00
H447   H     0.35554   0.28098   0.40650   0.00000  Uiso   1.00
H448   H     0.42263   0.36079   0.37848   0.00000  Uiso   1.00
H449   H     0.21888   0.12404   0.42997   0.00000  Uiso   1.00
H450   H     0.43101   0.29646   0.37518   0.00000  Uiso   1.00
H451   H     0.36812   0.29169   0.64587   0.00000  Uiso   1.00
H452   H     0.41439   0.32744   0.62577   0.00000  Uiso   1.00
H453   H     0.36480   0.35671   0.64704   0.00000  Uiso   1.00
H454   H     0.15221   0.15895   0.39610   0.00000  Uiso   1.00
H455   H     0.14116   0.22137   0.40445   0.00000  Uiso   1.00
H456   H     0.06940   0.14537   0.37811   0.00000  Uiso   1.00
H457   H     0.06345   0.21012   0.37693   0.00000  Uiso   1.00
H458   H     0.12144   0.21405   0.64371   0.00000  Uiso   1.00
H459   H     0.07305   0.18005   0.62600   0.00000  Uiso   1.00
H460   H     0.30780   0.37561   0.54435   0.00000  Uiso   1.00
H461   H     0.12324   0.14891   0.64328   0.00000  Uiso   1.00
H462   H     0.02952   0.31953   0.53548   0.00000  Uiso   1.00
H463   H     0.47126   0.18117   0.53555   0.00000  Uiso   1.00
H464   H     0.47038   0.31953   0.46397   0.00000  Uiso   1.00
H465   H     0.02883   0.18123   0.46380   0.00000  Uiso   1.00
H466   H     0.28086   0.03577   0.57206   0.00000  Uiso   1.00
N467   N     0.25000   0.12934   0.50000   0.00000  Uiso   1.00
N468   N     0.25000   0.37065   0.50000   0.00000  Uiso   1.00
O469   O     0.18573   0.29071   0.50000   0.00000  Uiso   1.00
O470   O     0.38623   0.17289   0.54374   0.00000  Uiso   1.00
O471   O     0.38517   0.32856   0.45810   0.00000  Uiso   1.00
O472   O     0.11388   0.17290   0.45597   0.00000  Uiso   1.00
O473   O     0.31427   0.20928   0.50000   0.00000  Uiso   1.00
O474   O     0.31427   0.29071   0.50000   0.00000  Uiso   1.00
O475   O     0.18573   0.20928   0.50000   0.00000  Uiso   1.00
O476   O     0.25000   0.29071   0.42946   0.00000  Uiso   1.00
O477   O     0.25000   0.20929   0.57054   0.00000  Uiso   1.00
O478   O     0.25000   0.29071   0.57054   0.00000  Uiso   1.00
O479   O     0.25000   0.20929   0.42946   0.00000  Uiso   1.00
O480   O     0.11471   0.32853   0.54173   0.00000  Uiso   1.00
C481   C     0.66492   0.25003   0.49981   0.00000  Uiso   1.00
C482   C     0.78301   0.44603   0.52503   0.00000  Uiso   1.00
C483   C     0.74995   0.25000   0.40685   0.00000  Uiso   1.00
C484   C     0.75005   0.25000   0.59315   0.00000  Uiso   1.00
C485   C     0.75000   0.02725   0.50000   0.00000  Uiso   1.00
C486   C     0.75000   0.47261   0.50000   0.00000  Uiso   1.00
C487   C     0.74998   0.25000   0.35519   0.00000  Uiso   1.00
C488   C     0.75002   0.25000   0.64481   0.00000  Uiso   1.00
C489   C     0.54724   0.28928   0.51987   0.00000  Uiso   1.00
C490   C     0.95320   0.21129   0.51978   0.00000  Uiso   1.00
C491   C     0.95270   0.28926   0.47960   0.00000  Uiso   1.00
C492   C     0.83508   0.25003   0.50015   0.00000  Uiso   1.00
C493   C     0.54685   0.21134   0.47963   0.00000  Uiso   1.00
C494   C     0.59323   0.28890   0.52168   0.00000  Uiso   1.00
C495   C     0.90727   0.21167   0.52194   0.00000  Uiso   1.00
C496   C     0.90670   0.28890   0.47800   0.00000  Uiso   1.00
C497   C     0.59279   0.21171   0.47767   0.00000  Uiso   1.00
C498   C     0.61651   0.25017   0.49980   0.00000  Uiso   1.00
C499   C     0.88349   0.25017   0.49996   0.00000  Uiso   1.00
C500   C     0.52409   0.25032   0.49974   0.00000  Uiso   1.00
C501   C     0.97590   0.25029   0.49963   0.00000  Uiso   1.00
C502   C     0.63002   0.31788   0.58997   0.00000  Uiso   1.00
C503   C     0.76742   0.10459   0.53904   0.00000  Uiso   1.00
C504   C     0.59340   0.32520   0.62798   0.00000  Uiso   1.00
C505   C     0.61205   0.32490   0.34709   0.00000  Uiso   1.00
C506   C     0.87422   0.18481   0.59258   0.00000  Uiso   1.00
C507   C     0.91345   0.17926   0.62842   0.00000  Uiso   1.00
C508   C     0.89841   0.18068   0.34859   0.00000  Uiso   1.00
C509   C     0.86962   0.31797   0.40994   0.00000  Uiso   1.00
C510   C     0.90599   0.32564   0.37171   0.00000  Uiso   1.00
C511   C     0.88706   0.32530   0.65272   0.00000  Uiso   1.00
C512   C     0.62614   0.18480   0.40721   0.00000  Uiso   1.00
C513   C     0.58696   0.17989   0.37119   0.00000  Uiso   1.00
C514   C     0.71772   0.39528   0.47525   0.00000  Uiso   1.00
C515   C     0.60223   0.18082   0.65109   0.00000  Uiso   1.00
C516   C     0.73259   0.10459   0.46096   0.00000  Uiso   1.00
C517   C     0.78228   0.39529   0.52475   0.00000  Uiso   1.00
C518   C     0.76757   0.05384   0.53988   0.00000  Uiso   1.00
C519   C     0.71699   0.44603   0.47497   0.00000  Uiso   1.00
C520   C     0.73243   0.05384   0.46012   0.00000  Uiso   1.00
Cu521  Cu    0.75000   0.29821   0.50000   0.00000  Uiso   1.00
Cu522  Cu    0.75000   0.20178   0.50000   0.00000  Uiso   1.00
H523   H     0.78114   0.12405   0.57003   0.00000  Uiso   1.00
H524   H     0.69026   0.46411   0.45576   0.00000  Uiso   1.00
H525   H     0.71915   0.03576   0.42794   0.00000  Uiso   1.00
H526   H     0.80974   0.46411   0.54424   0.00000  Uiso   1.00
H527   H     0.65746   0.34331   0.59836   0.00000  Uiso   1.00
H528   H     0.64428   0.28097   0.59336   0.00000  Uiso   1.00
H529   H     0.57657   0.36024   0.62117   0.00000  Uiso   1.00
H530   H     0.56859   0.29584   0.62429   0.00000  Uiso   1.00
H531   H     0.63110   0.29138   0.35402   0.00000  Uiso   1.00
H532   H     0.58455   0.32684   0.37385   0.00000  Uiso   1.00
H533   H     0.63412   0.35643   0.35296   0.00000  Uiso   1.00
H534   H     0.69220   0.37561   0.45565   0.00000  Uiso   1.00
H535   H     0.84789   0.15926   0.60370   0.00000  Uiso   1.00
H536   H     0.85962   0.22156   0.59553   0.00000  Uiso   1.00
H537   H     0.93040   0.14438   0.62153   0.00000  Uiso   1.00
H538   H     0.93743   0.20900   0.62247   0.00000  Uiso   1.00
H539   H     0.88011   0.21451   0.35604   0.00000  Uiso   1.00
H540   H     0.92765   0.17904   0.37354   0.00000  Uiso   1.00
H541   H     0.87662   0.14945   0.35654   0.00000  Uiso   1.00
H542   H     0.84201   0.34326   0.40183   0.00000  Uiso   1.00
H543   H     0.85554   0.28098   0.40650   0.00000  Uiso   1.00
H544   H     0.92263   0.36079   0.37848   0.00000  Uiso   1.00
H545   H     0.71888   0.12404   0.42997   0.00000  Uiso   1.00
H546   H     0.93101   0.29646   0.37518   0.00000  Uiso   1.00
H547   H     0.86812   0.29169   0.64587   0.00000  Uiso   1.00
H548   H     0.91439   0.32744   0.62577   0.00000  Uiso   1.00
H549   H     0.86480   0.35671   0.64704   0.00000  Uiso   1.00
H550   H     0.65221   0.15895   0.39610   0.00000  Uiso   1.00
H551   H     0.64116   0.22137   0.40445   0.00000  Uiso   1.00
H552   H     0.56940   0.14537   0.37811   0.00000  Uiso   1.00
H553   H     0.56345   0.21012   0.37693   0.00000  Uiso   1.00
H554   H     0.62144   0.21405   0.64371   0.00000  Uiso   1.00
H555   H     0.57305   0.18005   0.62600   0.00000  Uiso   1.00
H556   H     0.80780   0.37561   0.54435   0.00000  Uiso   1.00
H557   H     0.62324   0.14891   0.64328   0.00000  Uiso   1.00
H558   H     0.52952   0.31953   0.53548   0.00000  Uiso   1.00
H559   H     0.97126   0.18117   0.53555   0.00000  Uiso   1.00
H560   H     0.97038   0.31953   0.46397   0.00000  Uiso   1.00
H561   H     0.52883   0.18123   0.46380   0.00000  Uiso   1.00
H562   H     0.78086   0.03577   0.57206   0.00000  Uiso   1.00
N563   N     0.75000   0.12934   0.50000   0.00000  Uiso   1.00
N564   N     0.75000   0.37065   0.50000   0.00000  Uiso   1.00
O565   O     0.68573   0.29071   0.50000   0.00000  Uiso   1.00
O566   O     0.88623   0.17289   0.54374   0.00000  Uiso   1.00
O567   O     0.88517   0.32856   0.45810   0.00000  Uiso   1.00
O568   O     0.61388   0.17290   0.45597   0.00000  Uiso   1.00
O569   O     0.81427   0.20928   0.50000   0.00000  Uiso   1.00
O570   O     0.81427   0.29071   0.50000   0.00000  Uiso   1.00
O571   O     0.68573   0.20928   0.50000   0.00000  Uiso   1.00
O572   O     0.75000   0.29071   0.42946   0.00000  Uiso   1.00
O573   O     0.75000   0.20929   0.57054   0.00000  Uiso   1.00
O574   O     0.75000   0.29071   0.57054   0.00000  Uiso   1.00
O575   O     0.75000   0.20929   0.42946   0.00000  Uiso   1.00
O576   O     0.61471   0.32853   0.54173   0.00000  Uiso   1.00
C577   C     0.16492   0.75003   0.49981   0.00000  Uiso   1.00
C578   C     0.28301   0.94603   0.52503   0.00000  Uiso   1.00
C579   C     0.24995   0.75000   0.40685   0.00000  Uiso   1.00
C580   C     0.25005   0.75000   0.59315   0.00000  Uiso   1.00
C581   C     0.25000   0.52725   0.50000   0.00000  Uiso   1.00
C582   C     0.25000   0.97261   0.50000   0.00000  Uiso   1.00
C583   C     0.24998   0.75000   0.35519   0.00000  Uiso   1.00
C584   C     0.25002   0.75000   0.64481   0.00000  Uiso   1.00
C585   C     0.04724   0.78928   0.51987   0.00000  Uiso   1.00
C586   C     0.45320   0.71129   0.51978   0.00000  Uiso   1.00
C587   C     0.45270   0.78926   0.47960   0.00000  Uiso   1.00
C588   C     0.33508   0.75003   0.50015   0.00000  Uiso   1.00
C589   C     0.04685   0.71134   0.47963   0.00000  Uiso   1.00
C590   C     0.09323   0.78890   0.52168   0.00000  Uiso   1.00
C591   C     0.40727   0.71167   0.52194   0.00000  Uiso   1.00
C592   C     0.40670   0.78890   0.47800   0.00000  Uiso   1.00
C593   C     0.09279   0.71171   0.47767   0.00000  Uiso   1.00
C594   C     0.11651   0.75017   0.49980   0.00000  Uiso   1.00
C595   C     0.38349   0.75017   0.49996   0.00000  Uiso   1.00
C596   C     0.02409   0.75032   0.49974   0.00000  Uiso   1.00
C597   C     0.47590   0.75029   0.49963   0.00000  Uiso   1.00
C598   C     0.13002   0.81788   0.58997   0.00000  Uiso   1.00
C599   C     0.26742   0.60459   0.53904   0.00000  Uiso   1.00
C600   C     0.09340   0.82520   0.62798   0.00000  Uiso   1.00
C601   C     0.11205   0.82490   0.34709   0.00000  Uiso   1.00
C602   C     0.37422   0.68481   0.59258   0.00000  Uiso   1.00
C603   C     0.41345   0.67926   0.62842   0.00000  Uiso   1.00
C604   C     0.39841   0.68068   0.34859   0.00000  Uiso   1.00
C605   C     0.36962   0.81797   0.40994   0.00000  Uiso   1.00
C606   C     0.40599   0.82564   0.37171   0.00000  Uiso   1.00
C607   C     0.38706   0.82530   0.65272   0.00000  Uiso   1.00
C608   C     0.12614   0.68480   0.40721   0.00000  Uiso   1.00
C609   C     0.08696   0.67989   0.37119   0.00000  Uiso   1.00
C610   C     0.21772   0.89528   0.47525   0.00000  Uiso   1.00
C611   C     0.10223   0.68082   0.65109   0.00000  Uiso   1.00
C612   C     0.23259   0.60459   0.46096   0.00000  Uiso   1.00
C613   C     0.28228   0.89529   0.52475   0.00000  Uiso   1.00
C614   C     0.26757   0.55384   0.53988   0.00000  Uiso   1.00
C615   C     0.21699   0.94603   0.47497   0.00000  Uiso   1.00
C616   C     0.23243   0.55384   0.46012   0.00000  Uiso   1.00
Cu617  Cu    0.25000   0.79821   0.50000   0.00000  Uiso   1.00
Cu618  Cu    0.25000   0.70178   0.50000   0.00000  Uiso   1.00
H619   H     0.28114   0.62405   0.57003   0.00000  Uiso   1.00
H620   H     0.19026   0.96411   0.45576   0.00000  Uiso   1.00
H621   H     0.21915   0.53576   0.42794   0.00000  Uiso   1.00
H622   H     0.30974   0.96411   0.54424   0.00000  Uiso   1.00
H623   H     0.15746   0.84331   0.59836   0.00000  Uiso   1.00
H624   H     0.14428   0.78097   0.59336   0.00000  Uiso   1.00
H625   H     0.07657   0.86024   0.62117   0.00000  Uiso   1.00
H626   H     0.06859   0.79584   0.62429   0.00000  Uiso   1.00
H627   H     0.13110   0.79138   0.35402   0.00000  Uiso   1.00
H628   H     0.08455   0.82684   0.37385   0.00000  Uiso   1.00
H629   H     0.13412   0.85643   0.35296   0.00000  Uiso   1.00
H630   H     0.19220   0.87561   0.45565   0.00000  Uiso   1.00
H631   H     0.34789   0.65926   0.60370   0.00000  Uiso   1.00
H632   H     0.35962   0.72156   0.59553   0.00000  Uiso   1.00
H633   H     0.43040   0.64438   0.62153   0.00000  Uiso   1.00
H634   H     0.43743   0.70900   0.62247   0.00000  Uiso   1.00
H635   H     0.38011   0.71451   0.35604   0.00000  Uiso   1.00
H636   H     0.42765   0.67904   0.37354   0.00000  Uiso   1.00
H637   H     0.37662   0.64945   0.35654   0.00000  Uiso   1.00
H638   H     0.34201   0.84326   0.40183   0.00000  Uiso   1.00
H639   H     0.35554   0.78098   0.40650   0.00000  Uiso   1.00
H640   H     0.42263   0.86079   0.37848   0.00000  Uiso   1.00
H641   H     0.21888   0.62404   0.42997   0.00000  Uiso   1.00
H642   H     0.43101   0.79646   0.37518   0.00000  Uiso   1.00
H643   H     0.36812   0.79169   0.64587   0.00000  Uiso   1.00
H644   H     0.41439   0.82744   0.62577   0.00000  Uiso   1.00
H645   H     0.36480   0.85671   0.64704   0.00000  Uiso   1.00
H646   H     0.15221   0.65895   0.39610   0.00000  Uiso   1.00
H647   H     0.14116   0.72137   0.40445   0.00000  Uiso   1.00
H648   H     0.06940   0.64537   0.37811   0.00000  Uiso   1.00
H649   H     0.06345   0.71012   0.37693   0.00000  Uiso   1.00
H650   H     0.12144   0.71405   0.64371   0.00000  Uiso   1.00
H651   H     0.07305   0.68005   0.62600   0.00000  Uiso   1.00
H652   H     0.30780   0.87561   0.54435   0.00000  Uiso   1.00
H653   H     0.12324   0.64891   0.64328   0.00000  Uiso   1.00
H654   H     0.02952   0.81953   0.53548   0.00000  Uiso   1.00
H655   H     0.47126   0.68117   0.53555   0.00000  Uiso   1.00
H656   H     0.47038   0.81953   0.46397   0.00000  Uiso   1.00
H657   H     0.02883   0.68123   0.46380   0.00000  Uiso   1.00
H658   H     0.28086   0.53577   0.57206   0.00000  Uiso   1.00
N659   N     0.25000   0.62934   0.50000   0.00000  Uiso   1.00
N660   N     0.25000   0.87065   0.50000   0.00000  Uiso   1.00
O661   O     0.18573   0.79071   0.50000   0.00000  Uiso   1.00
O662   O     0.38623   0.67289   0.54374   0.00000  Uiso   1.00
O663   O     0.38517   0.82856   0.45810   0.00000  Uiso   1.00
O664   O     0.11388   0.67290   0.45597   0.00000  Uiso   1.00
O665   O     0.31427   0.70928   0.50000   0.00000  Uiso   1.00
O666   O     0.31427   0.79071   0.50000   0.00000  Uiso   1.00
O667   O     0.18573   0.70928   0.50000   0.00000  Uiso   1.00
O668   O     0.25000   0.79071   0.42946   0.00000  Uiso   1.00
O669   O     0.25000   0.70929   0.57054   0.00000  Uiso   1.00
O670   O     0.25000   0.79071   0.57054   0.00000  Uiso   1.00
O671   O     0.25000   0.70929   0.42946   0.00000  Uiso   1.00
O672   O     0.11471   0.82853   0.54173   0.00000  Uiso   1.00
C673   C     0.66492   0.75003   0.49981   0.00000  Uiso   1.00
C674   C     0.78301   0.94603   0.52503   0.00000  Uiso   1.00
C675   C     0.74995   0.75000   0.40685   0.00000  Uiso   1.00
C676   C     0.75005   0.75000   0.59315   0.00000  Uiso   1.00
C677   C     0.75000   0.52725   0.50000   0.00000  Uiso   1.00
C678   C     0.75000   0.97261   0.50000   0.00000  Uiso   1.00
C679   C     0.74998   0.75000   0.35519   0.00000  Uiso   1.00
C680   C     0.75002   0.75000   0.64481   0.00000  Uiso   1.00
C681   C     0.54724   0.78928   0.51987   0.00000  Uiso   1.00
C682   C     0.95320   0.71129   0.51978   0.00000  Uiso   1.00
C683   C     0.95270   0.78926   0.47960   0.00000  Uiso   1.00
C684   C     0.83508   0.75003   0.50015   0.00000  Uiso   1.00
C685   C     0.54685   0.71134   0.47963   0.00000  Uiso   1.00
C686   C     0.59323   0.78890   0.52168   0.00000  Uiso   1.00
C687   C     0.90727   0.71167   0.52194   0.00000  Uiso   1.00
C688   C     0.90670   0.78890   0.47800   0.00000  Uiso   1.00
C689   C     0.59279   0.71171   0.47767   0.00000  Uiso   1.00
C690   C     0.61651   0.75017   0.49980   0.00000  Uiso   1.00
C691   C     0.88349   0.75017   0.49996   0.00000  Uiso   1.00
C692   C     0.52409   0.75032   0.49974   0.00000  Uiso   1.00
C693   C     0.97590   0.75029   0.49963   0.00000  Uiso   1.00
C694   C     0.63002   0.81788   0.58997   0.00000  Uiso   1.00
C695   C     0.76742   0.60459   0.53904   0.00000  Uiso   1.00
C696   C     0.59340   0.82520   0.62798   0.00000  Uiso   1.00
C697   C     0.61205   0.82490   0.34709   0.00000  Uiso   1.00
C698   C     0.87422   0.68481   0.59258   0.00000  Uiso   1.00
C699   C     0.91345   0.67926   0.62842   0.00000  Uiso   1.00
C700   C     0.89841   0.68068   0.34859   0.00000  Uiso   1.00
C701   C     0.86962   0.81797   0.40994   0.00000  Uiso   1.00
C702   C     0.90599   0.82564   0.37171   0.00000  Uiso   1.00
C703   C     0.88706   0.82530   0.65272   0.00000  Uiso   1.00
C704   C     0.62614   0.68480   0.40721   0.00000  Uiso   1.00
C705   C     0.58696   0.67989   0.37119   0.00000  Uiso   1.00
C706   C     0.71772   0.89528   0.47525   0.00000  Uiso   1.00
C707   C     0.60223   0.68082   0.65109   0.00000  Uiso   1.00
C708   C     0.73259   0.60459   0.46096   0.00000  Uiso   1.00
C709   C     0.78228   0.89529   0.52475   0.00000  Uiso   1.00
C710   C     0.76757   0.55384   0.53988   0.00000  Uiso   1.00
C711   C     0.71699   0.94603   0.47497   0.00000  Uiso   1.00
C712   C     0.73243   0.55384   0.46012   0.00000  Uiso   1.00
Cu713  Cu    0.75000   0.79821   0.50000   0.00000  Uiso   1.00
Cu714  Cu    0.75000   0.70178   0.50000   0.00000  Uiso   1.00
H715   H     0.78114   0.62405   0.57003   0.00000  Uiso   1.00
H716   H     0.69026   0.96411   0.45576   0.00000  Uiso   1.00
H717   H     0.71915   0.53576   0.42794   0.00000  Uiso   1.00
H718   H     0.80974   0.96411   0.54424   0.00000  Uiso   1.00
H719   H     0.65746   0.84331   0.59836   0.00000  Uiso   1.00
H720   H     0.64428   0.78097   0.59336   0.00000  Uiso   1.00
H721   H     0.57657   0.86024   0.62117   0.00000  Uiso   1.00
H722   H     0.56859   0.79584   0.62429   0.00000  Uiso   1.00
H723   H     0.63110   0.79138   0.35402   0.00000  Uiso   1.00
H724   H     0.58455   0.82684   0.37385   0.00000  Uiso   1.00
H725   H     0.63412   0.85643   0.35296   0.00000  Uiso   1.00
H726   H     0.69220   0.87561   0.45565   0.00000  Uiso   1.00
H727   H     0.84789   0.65926   0.60370   0.00000  Uiso   1.00
H728   H     0.85962   0.72156   0.59553   0.00000  Uiso   1.00
H729   H     0.93040   0.64438   0.62153   0.00000  Uiso   1.00
H730   H     0.93743   0.70900   0.62247   0.00000  Uiso   1.00
H731   H     0.88011   0.71451   0.35604   0.00000  Uiso   1.00
H732   H     0.92765   0.67904   0.37354   0.00000  Uiso   1.00
H733   H     0.87662   0.64945   0.35654   0.00000  Uiso   1.00
H734   H     0.84201   0.84326   0.40183   0.00000  Uiso   1.00
H735   H     0.85554   0.78098   0.40650   0.00000  Uiso   1.00
H736   H     0.92263   0.86079   0.37848   0.00000  Uiso   1.00
H737   H     0.71888   0.62404   0.42997   0.00000  Uiso   1.00
H738   H     0.93101   0.79646   0.37518   0.00000  Uiso   1.00
H739   H     0.86812   0.79169   0.64587   0.00000  Uiso   1.00
H740   H     0.91439   0.82744   0.62577   0.00000  Uiso   1.00
H741   H     0.86480   0.85671   0.64704   0.00000  Uiso   1.00
H742   H     0.65221   0.65895   0.39610   0.00000  Uiso   1.00
H743   H     0.64116   0.72137   0.40445   0.00000  Uiso   1.00
H744   H     0.56940   0.64537   0.37811   0.00000  Uiso   1.00
H745   H     0.56345   0.71012   0.37693   0.00000  Uiso   1.00
H746   H     0.62144   0.71405   0.64371   0.00000  Uiso   1.00
H747   H     0.57305   0.68005   0.62600   0.00000  Uiso   1.00
H748   H     0.80780   0.87561   0.54435   0.00000  Uiso   1.00
H749   H     0.62324   0.64891   0.64328   0.00000  Uiso   1.00
H750   H     0.52952   0.81953   0.53548   0.00000  Uiso   1.00
H751   H     0.97126   0.68117   0.53555   0.00000  Uiso   1.00
H752   H     0.97038   0.81953   0.46397   0.00000  Uiso   1.00
H753   H     0.52883   0.68123   0.46380   0.00000  Uiso   1.00
H754   H     0.78086   0.53577   0.57206   0.00000  Uiso   1.00
N755   N     0.75000   0.62934   0.50000   0.00000  Uiso   1.00
N756   N     0.75000   0.87065   0.50000   0.00000  Uiso   1.00
O757   O     0.68573   0.79071   0.50000   0.00000  Uiso   1.00
O758   O     0.88623   0.67289   0.54374   0.00000  Uiso   1.00
O759   O     0.88517   0.82856   0.45810   0.00000  Uiso   1.00
O760   O     0.61388   0.67290   0.45597   0.00000  Uiso   1.00
O761   O     0.81427   0.70928   0.50000   0.00000  Uiso   1.00
O762   O     0.81427   0.79071   0.50000   0.00000  Uiso   1.00
O763   O     0.68573   0.70928   0.50000   0.00000  Uiso   1.00
O764   O     0.75000   0.79071   0.42946   0.00000  Uiso   1.00
O765   O     0.75000   0.70929   0.57054   0.00000  Uiso   1.00
O766   O     0.75000   0.79071   0.57054   0.00000  Uiso   1.00
O767   O     0.75000   0.70929   0.42946   0.00000  Uiso   1.00
O768   O     0.61471   0.82853   0.54173   0.00000  Uiso   1.00
C769   C     0.16492   0.25003   0.83314   0.00000  Uiso   1.00
C770   C     0.28301   0.44603   0.85836   0.00000  Uiso   1.00
C771   C     0.24995   0.25000   0.74019   0.00000  Uiso   1.00
C772   C     0.25005   0.25000   0.92648   0.00000  Uiso   1.00
C773   C     0.25000   0.02725   0.83333   0.00000  Uiso   1.00
C774   C     0.25000   0.47261   0.83333   0.00000  Uiso   1.00
C775   C     0.24998   0.25000   0.68852   0.00000  Uiso   1.00
C776   C     0.25002   0.25000   0.97814   0.00000  Uiso   1.00
C777   C     0.04724   0.28928   0.85321   0.00000  Uiso   1.00
C778   C     0.45320   0.21129   0.85312   0.00000  Uiso   1.00
C779   C     0.45270   0.28926   0.81294   0.00000  Uiso   1.00
C780   C     0.33508   0.25003   0.83348   0.00000  Uiso   1.00
C781   C     0.04685   0.21134   0.81297   0.00000  Uiso   1.00
C782   C     0.09323   0.28890   0.85501   0.00000  Uiso   1.00
C783   C     0.40727   0.21167   0.85527   0.00000  Uiso   1.00
C784   C     0.40670   0.28890   0.81133   0.00000  Uiso   1.00
C785   C     0.09279   0.21171   0.81101   0.00000  Uiso   1.00
C786   C     0.11651   0.25017   0.83313   0.00000  Uiso   1.00
C787   C     0.38349   0.25017   0.83330   0.00000  Uiso   1.00
C788   C     0.02409   0.25032   0.83307   0.00000  Uiso   1.00
C789   C     0.47590   0.25029   0.83296   0.00000  Uiso   1.00
C790   C     0.13002   0.31788   0.92330   0.00000  Uiso   1.00
C791   C     0.26742   0.10459   0.87237   0.00000  Uiso   1.00
C792   C     0.09340   0.32520   0.96131   0.00000  Uiso   1.00
C793   C     0.11205   0.32490   0.68043   0.00000  Uiso   1.00
C794   C     0.37422   0.18481   0.92591   0.00000  Uiso   1.00
C795   C     0.41345   0.17926   0.96176   0.00000  Uiso   1.00
C796   C     0.39841   0.18068   0.68193   0.00000  Uiso   1.00
C797   C     0.36962   0.31797   0.74328   0.00000  Uiso   1.00
C798   C     0.40599   0.32564   0.70504   0.00000  Uiso   1.00
C799   C     0.38706   0.32530   0.98605   0.00000  Uiso   1.00
C800   C     0.12614   0.18480   0.74055   0.00000  Uiso   1.00
C801   C     0.08696   0.17989   0.70452   0.00000  Uiso   1.00
C802   C     0.21772   0.39528   0.80858   0.00000  Uiso   1.00
C803   C     0.10223   0.18082   0.98442   0.00000  Uiso   1.00
C804   C     0.23259   0.10459   0.79430   0.00000  Uiso   1.00
C805   C     0.28228   0.39529   0.85809   0.00000  Uiso   1.00
C806   C     0.26757   0.05384   0.87321   0.00000  Uiso   1.00
C807   C     0.21699   0.44603   0.80831   0.00000  Uiso   1.00
C808   C     0.23243   0.05384   0.79346   0.00000  Uiso   1.00
Cu809  Cu    0.25000   0.29821   0.83333   0.00000  Uiso   1.00
Cu810  Cu    0.25000   0.20178   0.83333   0.00000  Uiso   1.00
H811   H     0.28114   0.12405   0.90336   0.00000  Uiso   1.00
H812   H     0.19026   0.46411   0.78909   0.00000  Uiso   1.00
H813   H     0.21915   0.03576   0.76127   0.00000  Uiso   1.00
H814   H     0.30974   0.46411   0.87757   0.00000  Uiso   1.00
H815   H     0.15746   0.34331   0.93169   0.00000  Uiso   1.00
H816   H     0.14428   0.28097   0.92669   0.00000  Uiso   1.00
H817   H     0.07657   0.36024   0.95451   0.00000  Uiso   1.00
H818   H     0.06859   0.29584   0.95762   0.00000  Uiso   1.00
H819   H     0.13110   0.29138   0.68735   0.00000  Uiso   1.00
H820   H     0.08455   0.32684   0.70719   0.00000  Uiso   1.00
H821   H     0.13412   0.35643   0.68630   0.00000  Uiso   1.00
H822   H     0.19220   0.37561   0.78898   0.00000  Uiso   1.00
H823   H     0.34789   0.15926   0.93703   0.00000  Uiso   1.00
H824   H     0.35962   0.22156   0.92886   0.00000  Uiso   1.00
H825   H     0.43040   0.14438   0.95487   0.00000  Uiso   1.00
H826   H     0.43743   0.20900   0.95581   0.00000  Uiso   1.00
H827   H     0.38011   0.21451   0.68938   0.00000  Uiso   1.00
H828   H     0.42765   0.17904   0.70688   0.00000  Uiso   1.00
H829   H     0.37662   0.14945   0.68987   0.00000  Uiso   1.00
H830   H     0.34201   0.34326   0.73516   0.00000  Uiso   1.00
H831   H     0.35554   0.28098   0.73984   0.00000  Uiso   1.00
H832   H     0.42263   0.36079   0.71181   0.00000  Uiso   1.00
H833   H     0.21888   0.12404   0.76330   0.00000  Uiso   1.00
H834   H     0.43101   0.29646   0.70851   0.00000  Uiso   1.00
H835   H     0.36812   0.29169   0.97921   0.00000  Uiso   1.00
H836   H     0.41439   0.32744   0.95911   0.00000  Uiso   1.00
H837   H     0.36480   0.35671   0.98038   0.00000  Uiso   1.00
H838   H     0.15221   0.15895   0.72944   0.00000  Uiso   1.00
H839   H     0.14116   0.22137   0.73778   0.00000  Uiso   1.00
H840   H     0.06940   0.14537   0.71144   0.00000  Uiso   1.00
H841   H     0.06345   0.21012   0.71026   0.00000  Uiso   1.00
H842   H     0.12144   0.21405   0.97705   0.00000  Uiso   1.00
H843   H     0.07305   0.18005   0.95933   0.00000  Uiso   1.00
H844   H     0.30780   0.37561   0.87769   0.00000  Uiso   1.00
H845   H     0.12324   0.14891   0.97661   0.00000  Uiso   1.00
H846   H     0.02952   0.31953   0.86881   0.00000  Uiso   1.00
H847   H     0.47126   0.18117   0.86888   0.00000  Uiso   1.00
H848   H     0.47038   0.31953   0.79731   0.00000  Uiso   1.00
H849   H     0.02883   0.18123   0.79714   0.00000  Uiso   1.00
H850   H     0.28086   0.03577   0.90539   0.00000  Uiso   1.00
N851   N     0.25000   0.12934   0.83333   0.00000  Uiso   1.00
N852   N     0.25000   0.37065   0.83333   0.00000  Uiso   1.00
O853   O     0.18573   0.29071   0.83334   0.00000  Uiso   1.00
O854   O     0.38623   0.17289   0.87707   0.00000  Uiso   1.00
O855   O     0.38517   0.32856   0.79144   0.00000  Uiso   1.00
O856   O     0.11388   0.17290   0.78931   0.00000  Uiso   1.00
O857   O     0.31427   0.20928   0.83333   0.00000  Uiso   1.00
O858   O     0.31427   0.29071   0.83333   0.00000  Uiso   1.00
O859   O     0.18573   0.20928   0.83334   0.00000  Uiso   1.00
O860   O     0.25000   0.29071   0.76280   0.00000  Uiso   1.00
O861   O     0.25000   0.20929   0.90387   0.00000  Uiso   1.00
O862   O     0.25000   0.29071   0.90387   0.00000  Uiso   1.00
O863   O     0.25000   0.20929   0.76280   0.00000  Uiso   1.00
O864   O     0.11471   0.32853   0.87506   0.00000  Uiso   1.00
C865   C     0.66492   0.25003   0.83314   0.00000  Uiso   1.00
C866   C     0.78301   0.44603   0.85836   0.00000  Uiso   1.00
C867   C     0.74995   0.25000   0.74019   0.00000  Uiso   1.00
C868   C     0.75005   0.25000   0.92648   0.00000  Uiso   1.00
C869   C     0.75000   0.02725   0.83333   0.00000  Uiso   1.00
C870   C     0.75000   0.47261   0.83333   0.00000  Uiso   1.00
C871   C     0.74998   0.25000   0.68852   0.00000  Uiso   1.00
C872   C     0.75002   0.25000   0.97814   0.00000  Uiso   1.00
C873   C     0.54724   0.28928   0.85321   0.00000  Uiso   1.00
C874   C     0.95320   0.21129   0.85312   0.00000  Uiso   1.00
C875   C     0.95270   0.28926   0.81294   0.00000  Uiso   1.00
C876   C     0.83508   0.25003   0.83348   0.00000  Uiso   1.00
C877   C     0.54685   0.21134   0.81297   0.00000  Uiso   1.00
C878   C     0.59323   0.28890   0.85501   0.00000  Uiso   1.00
C879   C     0.90727   0.21167   0.85527   0.00000  Uiso   1.00
C880   C     0.90670   0.28890   0.81133   0.00000  Uiso   1.00
C881   C     0.59279   0.21171   0.81101   0.00000  Uiso   1.00
C882   C     0.61651   0.25017   0.83313   0.00000  Uiso   1.00
C883   C     0.88349   0.25017   0.83330   0.00000  Uiso   1.00
C884   C     0.52409   0.25032   0.83307   0.00000  Uiso   1.00
C885   C     0.97590   0.25029   0.83296   0.00000  Uiso   1.00
C886   C     0.63002   0.31788   0.92330   0.00000  Uiso   1.00
C887   C     0.76742   0.10459   0.87237   0.00000  Uiso   1.00
C888   C     0.59340   0.32520   0.96131   0.00000  Uiso   1.00
C889   C     0.61205   0.32490   0.68043   0.00000  Uiso   1.00
C890   C     0.87422   0.18481   0.92591   0.00000  Uiso   1.00
C891   C     0.91345   0.17926   0.96176   0.00000  Uiso   1.00
C892   C     0.89841   0.18068   0.68193   0.00000  Uiso   1.00
C893   C     0.86962   0.31797   0.74328   0.00000  Uiso   1.00
C894   C     0.90599   0.32564   0.70504   0.00000  Uiso   1.00
C895   C     0.88706   0.32530   0.98605   0.00000  Uiso   1.00
C896   C     0.62614   0.18480   0.74055   0.00000  Uiso   1.00
C897   C     0.58696   0.17989   0.70452   0.00000  Uiso   1.00
C898   C     0.71772   0.39528   0.80858   0.00000  Uiso   1.00
C899   C     0.60223   0.18082   0.98442   0.00000  Uiso   1.00
C900   C     0.73259   0.10459   0.79430   0.00000  Uiso   1.00
C901   C     0.78228   0.39529   0.85809   0.00000  Uiso   1.00
C902   C     0.76757   0.05384   0.87321   0.00000  Uiso   1.00
C903   C     0.71699   0.44603   0.80831   0.00000  Uiso   1.00
C904   C     0.73243   0.05384   0.79346   0.00000  Uiso   1.00
Cu905  Cu    0.75000   0.29821   0.83333   0.00000  Uiso   1.00
Cu906  Cu    0.75000   0.20178   0.83333   0.00000  Uiso   1.00
H907   H     0.78114   0.12405   0.90336   0.00000  Uiso   1.00
H908   H     0.69026   0.46411   0.78909   0.00000  Uiso   1.00
H909   H     0.71915   0.03576   0.76127   0.00000  Uiso   1.00
H910   H     0.80974   0.46411   0.87757   0.00000  Uiso   1.00
H911   H     0.65746   0.34331   0.93169   0.00000  Uiso   1.00
H912   H     0.64428   0.28097   0.92669   0.00000  Uiso   1.00
H913   H     0.57657   0.36024   0.95451   0.00000  Uiso   1.00
H914   H     0.56859   0.29584   0.95762   0.00000  Uiso   1.00
H915   H     0.63110   0.29138   0.68735   0.00000  Uiso   1.00
H916   H     0.58455   0.32684   0.70719   0.00000  Uiso   1.00
H917   H     0.63412   0.35643   0.68630   0.00000  Uiso   1.00
H918   H     0.69220   0.37561   0.78898   0.00000  Uiso   1.00
H919   H     0.84789   0.15926   0.93703   0.00000  Uiso   1.00
H920   H     0.85962   0.22156   0.92886   0.00000  Uiso   1.00
H921   H     0.93040   0.14438   0.95487   0.00000  Uiso   1.00
H922   H     0.93743   0.20900   0.95581   0.00000  Uiso   1.00
H923   H     0.88011   0.21451   0.68938   0.00000  Uiso   1.00
H924   H     0.92765   0.17904   0.70688   0.00000  Uiso   1.00
H925   H     0.87662   0.14945   0.68987   0.00000  Uiso   1.00
H926   H     0.84201   0.34326   0.73516   0.00000  Uiso   1.00
H927   H     0.85554   0.28098   0.73984   0.00000  Uiso   1.00
H928   H     0.92263   0.36079   0.71181   0.00000  Uiso   1.00
H929   H     0.71888   0.12404   0.76330   0.00000  Uiso   1.00
H930   H     0.93101   0.29646   0.70851   0.00000  Uiso   1.00
H931   H     0.86812   0.29169   0.97921   0.00000  Uiso   1.00
H932   H     0.91439   0.32744   0.95911   0.00000  Uiso   1.00
H933   H     0.86480   0.35671   0.98038   0.00000  Uiso   1.00
H934   H     0.65221   0.15895   0.72944   0.00000  Uiso   1.00
H935   H     0.64116   0.22137   0.73778   0.00000  Uiso   1.00
H936   H     0.56940   0.14537   0.71144   0.00000  Uiso   1.00
H937   H     0.56345   0.21012   0.71026   0.00000  Uiso   1.00
H938   H     0.62144   0.21405   0.97705   0.00000  Uiso   1.00
H939   H     0.57305   0.18005   0.95933   0.00000  Uiso   1.00
H940   H     0.80780   0.37561   0.87769   0.00000  Uiso   1.00
H941   H     0.62324   0.14891   0.97661   0.00000  Uiso   1.00
H942   H     0.52952   0.31953   0.86881   0.00000  Uiso   1.00
H943   H     0.97126   0.18117   0.86888   0.00000  Uiso   1.00
H944   H     0.97038   0.31953   0.79731   0.00000  Uiso   1.00
H945   H     0.52883   0.18123   0.79714   0.00000  Uiso   1.00
H946   H     0.78086   0.03577   0.90539   0.00000  Uiso   1.00
N947   N     0.75000   0.12934   0.83333   0.00000  Uiso   1.00
N948   N     0.75000   0.37065   0.83333   0.00000  Uiso   1.00
O949   O     0.68573   0.29071   0.83334   0.00000  Uiso   1.00
O950   O     0.88623   0.17289   0.87707   0.00000  Uiso   1.00
O951   O     0.88517   0.32856   0.79144   0.00000  Uiso   1.00
O952   O     0.61388   0.17290   0.78931   0.00000  Uiso   1.00
O953   O     0.81427   0.20928   0.83333   0.00000  Uiso   1.00
O954   O     0.81427   0.29071   0.83333   0.00000  Uiso   1.00
O955   O     0.68573   0.20928   0.83334   0.00000  Uiso   1.00
O956   O     0.75000   0.29071   0.76280   0.00000  Uiso   1.00
O957   O     0.75000   0.20929   0.90387   0.00000  Uiso   1.00
O958   O     0.75000   0.29071   0.90387   0.00000  Uiso   1.00
O959   O     0.75000   0.20929   0.76280   0.00000  Uiso   1.00
O960   O     0.61471   0.32853   0.87506   0.00000  Uiso   1.00
C961   C     0.16492   0.75003   0.83314   0.00000  Uiso   1.00
C962   C     0.28301   0.94603   0.85836   0.00000  Uiso   1.00
C963   C     0.24995   0.75000   0.74019   0.00000  Uiso   1.00
C964   C     0.25005   0.75000   0.92648   0.00000  Uiso   1.00
C965   C     0.25000   0.52725   0.83333   0.00000  Uiso   1.00
C966   C     0.25000   0.97261   0.83333   0.00000  Uiso   1.00
C967   C     0.24998   0.75000   0.68852   0.00000  Uiso   1.00
C968   C     0.25002   0.75000   0.97814   0.00000  Uiso   1.00
C969   C     0.04724   0.78928   0.85321   0.00000  Uiso   1.00
C970   C     0.45320   0.71129   0.85312   0.00000  Uiso   1.00
C971   C     0.45270   0.78926   0.81294   0.00000  Uiso   1.00
C972   C     0.33508   0.75003   0.83348   0.00000  Uiso   1.00
C973   C     0.04685   0.71134   0.81297   0.00000  Uiso   1.00
C974   C     0.09323   0.78890   0.85501   0.00000  Uiso   1.00
C975   C     0.40727   0.71167   0.85527   0.00000  Uiso   1.00
C976   C     0.40670   0.78890   0.81133   0.00000  Uiso   1.00
C977   C     0.09279   0.71171   0.81101   0.00000  Uiso   1.00
C978   C     0.11651   0.75017   0.83313   0.00000  Uiso   1.00
C979   C     0.38349   0.75017   0.83330   0.00000  Uiso   1.00
C980   C     0.02409   0.75032   0.83307   0.00000  Uiso   1.00
C981   C     0.47590   0.75029   0.83296   0.00000  Uiso   1.00
C982   C     0.13002   0.81788   0.92330   0.00000  Uiso   1.00
C983   C     0.26742   0.60459   0.87237   0.00000  Uiso   1.00
C984   C     0.09340   0.82520   0.96131   0.00000  Uiso   1.00
C985   C     0.11205   0.82490   0.68043   0.00000  Uiso   1.00
C986   C     0.37422   0.68481   0.92591   0.00000  Uiso   1.00
C987   C     0.41345   0.67926   0.96176   0.00000  Uiso   1.00
C988   C     0.39841   0.68068   0.68193   0.00000  Uiso   1.00
C989   C     0.36962   0.81797   0.74328   0.00000  Uiso   1.00
C990   C     0.40599   0.82564   0.70504   0.00000  Uiso   1.00
C991   C     0.38706   0.82530   0.98605   0.00000  Uiso   1.00
C992   C     0.12614   0.68480   0.74055   0.00000  Uiso   1.00
C993   C     0.08696   0.67989   0.70452   0.00000  Uiso   1.00
C994   C     0.21772   0.89528   0.80858   0.00000  Uiso   1.00
C995   C     0.10223   0.68082   0.98442   0.00000  Uiso   1.00
C996   C     0.23259   0.60459   0.79430   0.00000  Uiso   1.00
C997   C     0.28228   0.89529   0.85809   0.00000  Uiso   1.00
C998   C     0.26757   0.55384   0.87321   0.00000  Uiso   1.00
C999   C     0.21699   0.94603   0.80831   0.00000  Uiso   1.00
C1000  C     0.23243   0.55384   0.79346   0.00000  Uiso   1.00
Cu1001 Cu    0.25000   0.79821   0.83333   0.00000  Uiso   1.00
Cu1002 Cu    0.25000   0.70178   0.83333   0.00000  Uiso   1.00
H1003  H     0.28114   0.62405   0.90336   0.00000  Uiso   1.00
H1004  H     0.19026   0.96411   0.78909   0.00000  Uiso   1.00
H1005  H     0.21915   0.53576   0.76127   0.00000  Uiso   1.00
H1006  H     0.30974   0.96411   0.87757   0.00000  Uiso   1.00
H1007  H     0.15746   0.84331   0.93169   0.00000  Uiso   1.00
H1008  H     0.14428   0.78097   0.92669   0.00000  Uiso   1.00
H1009  H     0.07657   0.86024   0.95451   0.00000  Uiso   1.00
H1010  H     0.06859   0.79584   0.95762   0.00000  Uiso   1.00
H1011  H     0.13110   0.79138   0.68735   0.00000  Uiso   1.00
H1012  H     0.08455   0.82684   0.70719   0.00000  Uiso   1.00
H1013  H     0.13412   0.85643   0.68630   0.00000  Uiso   1.00
H1014  H     0.19220   0.87561   0.78898   0.00000  Uiso   1.00
H1015  H     0.34789   0.65926   0.93703   0.00000  Uiso   1.00
H1016  H     0.35962   0.72156   0.92886   0.00000  Uiso   1.00
H1017  H     0.43040   0.64438   0.95487   0.00000  Uiso   1.00
H1018  H     0.43743   0.70900   0.95581   0.00000  Uiso   1.00
H1019  H     0.38011   0.71451   0.68938   0.00000  Uiso   1.00
H1020  H     0.42765   0.67904   0.70688   0.00000  Uiso   1.00
H1021  H     0.37662   0.64945   0.68987   0.00000  Uiso   1.00
H1022  H     0.34201   0.84326   0.73516   0.00000  Uiso   1.00
H1023  H     0.35554   0.78098   0.73984   0.00000  Uiso   1.00
H1024  H     0.42263   0.86079   0.71181   0.00000  Uiso   1.00
H1025  H     0.21888   0.62404   0.76330   0.00000  Uiso   1.00
H1026  H     0.43101   0.79646   0.70851   0.00000  Uiso   1.00
H1027  H     0.36812   0.79169   0.97921   0.00000  Uiso   1.00
H1028  H     0.41439   0.82744   0.95911   0.00000  Uiso   1.00
H1029  H     0.36480   0.85671   0.98038   0.00000  Uiso   1.00
H1030  H     0.15221   0.65895   0.72944   0.00000  Uiso   1.00
H1031  H     0.14116   0.72137   0.73778   0.00000  Uiso   1.00
H1032  H     0.06940   0.64537   0.71144   0.00000  Uiso   1.00
H1033  H     0.06345   0.71012   0.71026   0.00000  Uiso   1.00
H1034  H     0.12144   0.71405   0.97705   0.00000  Uiso   1.00
H1035  H     0.07305   0.68005   0.95933   0.00000  Uiso   1.00
H1036  H     0.30780   0.87561   0.87769   0.00000  Uiso   1.00
H1037  H     0.12324   0.64891   0.97661   0.00000  Uiso   1.00
H1038  H     0.02952   0.81953   0.86881   0.00000  Uiso   1.00
H1039  H     0.47126   0.68117   0.86888   0.00000  Uiso   1.00
H1040  H     0.47038   0.81953   0.79731   0.00000  Uiso   1.00
H1041  H     0.02883   0.68123   0.79714   0.00000  Uiso   1.00
H1042  H     0.28086   0.53577   0.90539   0.00000  Uiso   1.00
N1043  N     0.25000   0.62934   0.83333   0.00000  Uiso   1.00
N1044  N     0.25000   0.87065   0.83333   0.00000  Uiso   1.00
O1045  O     0.18573   0.79071   0.83334   0.00000  Uiso   1.00
O1046  O     0.38623   0.67289   0.87707   0.00000  Uiso   1.00
O1047  O     0.38517   0.82856   0.79144   0.00000  Uiso   1.00
O1048  O     0.11388   0.67290   0.78931   0.00000  Uiso   1.00
O1049  O     0.31427   0.70928   0.83333   0.00000  Uiso   1.00
O1050  O     0.31427   0.79071   0.83333   0.00000  Uiso   1.00
O1051  O     0.18573   0.70928   0.83334   0.00000  Uiso   1.00
O1052  O     0.25000   0.79071   0.76280   0.00000  Uiso   1.00
O1053  O     0.25000   0.70929   0.90387   0.00000  Uiso   1.00
O1054  O     0.25000   0.79071   0.90387   0.00000  Uiso   1.00
O1055  O     0.25000   0.70929   0.76280   0.00000  Uiso   1.00
O1056  O     0.11471   0.82853   0.87506   0.00000  Uiso   1.00
C1057  C     0.66492   0.75003   0.83314   0.00000  Uiso   1.00
C1058  C     0.78301   0.94603   0.85836   0.00000  Uiso   1.00
C1059  C     0.74995   0.75000   0.74019   0.00000  Uiso   1.00
C1060  C     0.75005   0.75000   0.92648   0.00000  Uiso   1.00
C1061  C     0.75000   0.52725   0.83333   0.00000  Uiso   1.00
C1062  C     0.75000   0.97261   0.83333   0.00000  Uiso   1.00
C1063  C     0.74998   0.75000   0.68852   0.00000  Uiso   1.00
C1064  C     0.75002   0.75000   0.97814   0.00000  Uiso   1.00
C1065  C     0.54724   0.78928   0.85321   0.00000  Uiso   1.00
C1066  C     0.95320   0.71129   0.85312   0.00000  Uiso   1.00
C1067  C     0.95270   0.78926   0.81294   0.00000  Uiso   1.00
C1068  C     0.83508   0.75003   0.83348   0.00000  Uiso   1.00
C1069  C     0.54685   0.71134   0.81297   0.00000  Uiso   1.00
C1070  C     0.59323   0.78890   0.85501   0.00000  Uiso   1.00
C1071  C     0.90727   0.71167   0.85527   0.00000  Uiso   1.00
C1072  C     0.90670   0.78890   0.81133   0.00000  Uiso   1.00
C1073  C     0.59279   0.71171   0.81101   0.00000  Uiso   1.00
C1074  C     0.61651   0.75017   0.83313   0.00000  Uiso   1.00
C1075  C     0.88349   0.75017   0.83330   0.00000  Uiso   1.00
C1076  C     0.52409   0.75032   0.83307   0.00000  Uiso   1.00
C1077  C     0.97590   0.75029   0.83296   0.00000  Uiso   1.00
C1078  C     0.63002   0.81788   0.92330   0.00000  Uiso   1.00
C1079  C     0.76742   0.60459   0.87237   0.00000  Uiso   1.00
C1080  C     0.59340   0.82520   0.96131   0.00000  Uiso   1.00
C1081  C     0.61205   0.82490   0.68043   0.00000  Uiso   1.00
C1082  C     0.87422   0.68481   0.92591   0.00000  Uiso   1.00
C1083  C     0.91345   0.67926   0.96176   0.00000  Uiso   1.00
C1084  C     0.89841   0.68068   0.68193   0.00000  Uiso   1.00
C1085  C     0.86962   0.81797   0.74328   0.00000  Uiso   1.00
C1086  C     0.90599   0.82564   0.70504   0.00000  Uiso   1.00
C1087  C     0.88706   0.82530   0.98605   0.00000  Uiso   1.00
C1088  C     0.62614   0.68480   0.74055   0.00000  Uiso   1.00
C1089  C     0.58696   0.67989   0.70452   0.00000  Uiso   1.00
C1090  C     0.71772   0.89528   0.80858   0.00000  Uiso   1.00
C1091  C     0.60223   0.68082   0.98442   0.00000  Uiso   1.00
C1092  C     0.73259   0.60459   0.79430   0.00000  Uiso   1.00
C1093  C     0.78228   0.89529   0.85809   0.00000  Uiso   1.00
C1094  C     0.76757   0.55384   0.87321   0.00000  Uiso   1.00
C1095  C     0.71699   0.94603   0.80831   0.00000  Uiso   1.00
C1096  C     0.73243   0.55384   0.79346   0.00000  Uiso   1.00
Cu1097 Cu    0.75000   0.79821   0.83333   0.00000  Uiso   1.00
Cu1098 Cu    0.75000   0.70178   0.83333   0.00000  Uiso   1.00
H1099  H     0.78114   0.62405   0.90336   0.00000  Uiso   1.00
H1100  H     0.69026   0.96411   0.78909   0.00000  Uiso   1.00
H1101  H     0.71915   0.53576   0.76127   0.00000  Uiso   1.00
H1102  H     0.80974   0.96411   0.87757   0.00000  Uiso   1.00
H1103  H     0.65746   0.84331   0.93169   0.00000  Uiso   1.00
H1104  H     0.64428   0.78097   0.92669   0.00000  Uiso   1.00
H1105  H     0.57657   0.86024   0.95451   0.00000  Uiso   1.00
H1106  H     0.56859   0.79584   0.95762   0.00000  Uiso   1.00
H1107  H     0.63110   0.79138   0.68735   0.00000  Uiso   1.00
H1108  H     0.58455   0.82684   0.70719   0.00000  Uiso   1.00
H1109  H     0.63412   0.85643   0.68630   0.00000  Uiso   1.00
H1110  H     0.69220   0.87561   0.78898   0.00000  Uiso   1.00
H1111  H     0.84789   0.65926   0.93703   0.00000  Uiso   1.00
H1112  H     0.85962   0.72156   0.92886   0.00000  Uiso   1.00
H1113  H     0.93040   0.64438   0.95487   0.00000  Uiso   1.00
H1114  H     0.93743   0.70900   0.95581   0.00000  Uiso   1.00
H1115  H     0.88011   0.71451   0.68938   0.00000  Uiso   1.00
H1116  H     0.92765   0.67904   0.70688   0.00000  Uiso   1.00
H1117  H     0.87662   0.64945   0.68987   0.00000  Uiso   1.00
H1118  H     0.84201   0.84326   0.73516   0.00000  Uiso   1.00
H1119  H     0.85554   0.78098   0.73984   0.00000  Uiso   1.00
H1120  H     0.92263   0.86079   0.71181   0.00000  Uiso   1.00
H1121  H     0.71888   0.62404   0.76330   0.00000  Uiso   1.00
H1122  H     0.93101   0.79646   0.70851   0.00000  Uiso   1.00
H1123  H     0.86812   0.79169   0.97921   0.00000  Uiso   1.00
H1124  H     0.91439   0.82744   0.95911   0.00000  Uiso   1.00
H1125  H     0.86480   0.85671   0.98038   0.00000  Uiso   1.00
H1126  H     0.65221   0.65895   0.72944   0.00000  Uiso   1.00
H1127  H     0.64116   0.72137   0.73778   0.00000  Uiso   1.00
H1128  H     0.56940   0.64537   0.71144   0.00000  Uiso   1.00
H1129  H     0.56345   0.71012   0.71026   0.00000  Uiso   1.00
H1130  H     0.62144   0.71405   0.97705   0.00000  Uiso   1.00
H1131  H     0.57305   0.68005   0.95933   0.00000  Uiso   1.00
H1132  H     0.80780   0.87561   0.87769   0.00000  Uiso   1.00
H1133  H     0.62324   0.64891   0.97661   0.00000  Uiso   1.00
H1134  H     0.52952   0.81953   0.86881   0.00000  Uiso   1.00
H1135  H     0.97126   0.68117   0.86888   0.00000  Uiso   1.00
H1136  H     0.97038   0.81953   0.79731   0.00000  Uiso   1.00
H1137  H     0.52883   0.68123   0.79714   0.00000  Uiso   1.00
H1138  H     0.78086   0.53577   0.90539   0.00000  Uiso   1.00
N1139  N     0.75000   0.62934   0.83333   0.00000  Uiso   1.00
N1140  N     0.75000   0.87065   0.83333   0.00000  Uiso   1.00
O1141  O     0.68573   0.79071   0.83334   0.00000  Uiso   1.00
O1142  O     0.88623   0.67289   0.87707   0.00000  Uiso   1.00
O1143  O     0.88517   0.82856   0.79144   0.00000  Uiso   1.00
O1144  O     0.61388   0.67290   0.78931   0.00000  Uiso   1.00
O1145  O     0.81427   0.70928   0.83333   0.00000  Uiso   1.00
O1146  O     0.81427   0.79071   0.83333   0.00000  Uiso   1.00
O1147  O     0.68573   0.70928   0.83334   0.00000  Uiso   1.00
O1148  O     0.75000   0.79071   0.76280   0.00000  Uiso   1.00
O1149  O     0.75000   0.70929   0.90387   0.00000  Uiso   1.00
O1150  O     0.75000   0.79071   0.90387   0.00000  Uiso   1.00
O1151  O     0.75000   0.70929   0.76280   0.00000  Uiso   1.00
O1152  O     0.61471   0.82853   0.87506   0.00000  Uiso   1.00
loop_
_geom_bond_atom_site_label_1
_geom_bond_atom_site_label_2
_geom_bond_distance
_geom_bond_site_symmetry_2
_ccdc_geom_bond_type
C1     O91     1.293   .     A
C1     O85     1.292   .     A
C1     C18     1.465   .     S
C2     H46     1.082   .     S
C2     C6      1.411   .     A
C2     C37     1.407   .     A
C3     C7      1.403   .     S
C3     O92     1.285   .     A
C3     O95     1.285   .     A
C4     C8      1.403   .     S
C4     O94     1.285   .     A
C4     O93     1.285   .     A
C5     C38     1.410   .     A
C5     C40     1.410   .     A
C5     C198    1.515   1_545 S
C6     C39     1.411   .     A
C6     C197    1.515   .     S
C7     C776    1.187   1_554 S
C8     C391    1.187   .     S
C9     C14     1.392   .     A
C9     C20     1.396   .     A
C9     H78     1.084   .     S
C10    C15     1.391   .     A
C10    C21     1.395   .     A
C10    H79     1.084   .     S
C11    C16     1.392   .     A
C11    C21     1.396   .     A
C11    H80     1.084   .     S
C12    O90     1.292   .     A
C12    O89     1.293   .     A
C12    C19     1.465   .     S
C13    H81     1.084   .     S
C13    C20     1.395   .     A
C13    C17     1.391   .     A
C14    C18     1.418   .     A
C14    O96     1.385   .     S
C15    C19     1.416   .     A
C15    O86     1.385   .     S
C16    O87     1.385   .     S
C16    C19     1.418   .     A
C17    O88     1.385   .     S
C17    C18     1.416   .     A
C20    C117    1.458   1_455 S
C21    C116    1.458   .     S
C22    H48     1.114   .     S
C22    H47     1.111   .     S
C22    C24     1.534   .     S
C22    O96     1.417   .     S
C23    N83     1.365   .     A
C23    H43     1.080   .     S
C23    C38     1.407   .     A
C24    H50     1.111   .     S
C24    H49     1.111   .     S
C24    C409    1.527   .     S
C25    H53     1.111   .     S
C25    H51     1.109   .     S
C25    H52     1.111   .     S
C25    C792    1.527   1_554 S
C26    H55     1.110   .     S
C26    C27     1.536   .     S
C26    O86     1.417   .     S
C26    H56     1.114   .     S
C27    H57     1.111   .     S
C27    H58     1.111   .     S
C27    C412    1.527   .     S
C28    H61     1.111   .     S
C28    H60     1.111   .     S
C28    H59     1.108   .     S
C28    C795    1.527   1_554 S
C29    H63     1.114   .     S
C29    C30     1.534   .     S
C29    H62     1.111   .     S
C29    O87     1.417   .     S
C30    H64     1.111   .     S
C30    H66     1.111   .     S
C30    C799    1.527   1_554 S
C31    H68     1.111   .     S
C31    H67     1.109   .     S
C31    H69     1.111   .     S
C31    C414    1.527   .     S
C32    H71     1.114   .     S
C32    H70     1.110   .     S
C32    C33     1.536   .     S
C32    O88     1.417   .     S
C33    H72     1.111   .     S
C33    H73     1.111   .     S
C33    C803    1.527   1_554 S
C34    N84     1.364   .     A
C34    C39     1.407   .     A
C34    H54     1.082   .     S
C35    H74     1.108   .     S
C35    H75     1.111   .     S
C35    H77     1.111   .     S
C35    C417    1.527   .     S
C36    N83     1.365   .     A
C36    C40     1.407   .     A
C36    H65     1.080   .     S
C37    N84     1.364   .     A
C37    H76     1.082   .     S
C38    H82     1.082   .     S
C39    H44     1.082   .     S
C40    H45     1.082   .     S
Cu41   Cu42    2.674   .     S
Cu41   N84     2.009   .     S
Cu41   O94     1.927   .     S
Cu41   O85     1.956   .     S
Cu41   O90     1.956   .     S
Cu41   O92     1.927   .     S
Cu42   O93     1.927   .     S
Cu42   O91     1.956   .     S
Cu42   O95     1.927   .     S
Cu42   N83     2.009   .     S
Cu42   O89     1.956   .     S
C97    O187    1.293   .     A
C97    O181    1.292   .     A
C97    C114    1.465   .     S
C98    H142    1.082   .     S
C98    C102    1.411   .     A
C98    C133    1.407   .     A
C99    C103    1.403   .     S
C99    O188    1.285   .     A
C99    O191    1.285   .     A
C100   C104    1.403   .     S
C100   O190    1.285   .     A
C100   O189    1.285   .     A
C101   C134    1.410   .     A
C101   C136    1.410   .     A
C101   C294    1.515   1_545 S
C102   C135    1.411   .     A
C102   C293    1.515   .     S
C103   C872    1.187   1_554 S
C104   C487    1.187   .     S
C105   C110    1.392   .     A
C105   C116    1.396   .     A
C105   H174    1.084   .     S
C106   C111    1.391   .     A
C106   C117    1.395   .     A
C106   H175    1.084   .     S
C107   C112    1.392   .     A
C107   C117    1.396   .     A
C107   H176    1.084   .     S
C108   O186    1.292   .     A
C108   O185    1.293   .     A
C108   C115    1.465   .     S
C109   H177    1.084   .     S
C109   C116    1.395   .     A
C109   C113    1.391   .     A
C110   C114    1.418   .     A
C110   O192    1.385   .     S
C111   C115    1.416   .     A
C111   O182    1.385   .     S
C112   O183    1.385   .     S
C112   C115    1.418   .     A
C113   O184    1.385   .     S
C113   C114    1.416   .     A
C117   C20     1.458   1_655 S
C118   H144    1.114   .     S
C118   H143    1.111   .     S
C118   C120    1.534   .     S
C118   O192    1.417   .     S
C119   N179    1.365   .     A
C119   H139    1.080   .     S
C119   C134    1.407   .     A
C120   H146    1.111   .     S
C120   H145    1.111   .     S
C120   C505    1.527   .     S
C121   H149    1.111   .     S
C121   H147    1.109   .     S
C121   H148    1.111   .     S
C121   C888    1.527   1_554 S
C122   H151    1.110   .     S
C122   C123    1.536   .     S
C122   O182    1.417   .     S
C122   H152    1.114   .     S
C123   H153    1.111   .     S
C123   H154    1.111   .     S
C123   C508    1.527   .     S
C124   H157    1.111   .     S
C124   H156    1.111   .     S
C124   H155    1.108   .     S
C124   C891    1.527   1_554 S
C125   H159    1.114   .     S
C125   C126    1.534   .     S
C125   H158    1.111   .     S
C125   O183    1.417   .     S
C126   H160    1.111   .     S
C126   H162    1.111   .     S
C126   C895    1.527   1_554 S
C127   H164    1.111   .     S
C127   H163    1.109   .     S
C127   H165    1.111   .     S
C127   C510    1.527   .     S
C128   H167    1.114   .     S
C128   H166    1.110   .     S
C128   C129    1.536   .     S
C128   O184    1.417   .     S
C129   H168    1.111   .     S
C129   H169    1.111   .     S
C129   C899    1.527   1_554 S
C130   N180    1.364   .     A
C130   C135    1.407   .     A
C130   H150    1.082   .     S
C131   H170    1.108   .     S
C131   H171    1.111   .     S
C131   H173    1.111   .     S
C131   C513    1.527   .     S
C132   N179    1.365   .     A
C132   C136    1.407   .     A
C132   H161    1.080   .     S
C133   N180    1.364   .     A
C133   H172    1.082   .     S
C134   H178    1.082   .     S
C135   H140    1.082   .     S
C136   H141    1.082   .     S
Cu137  Cu138   2.674   .     S
Cu137  N180    2.009   .     S
Cu137  O190    1.927   .     S
Cu137  O181    1.956   .     S
Cu137  O186    1.956   .     S
Cu137  O188    1.927   .     S
Cu138  O189    1.927   .     S
Cu138  O187    1.956   .     S
Cu138  O191    1.927   .     S
Cu138  N179    2.009   .     S
Cu138  O185    1.956   .     S
C193   O283    1.293   .     A
C193   O277    1.292   .     A
C193   C210    1.465   .     S
C194   H238    1.082   .     S
C194   C198    1.411   .     A
C194   C229    1.407   .     A
C195   C199    1.403   .     S
C195   O284    1.285   .     A
C195   O287    1.285   .     A
C196   C200    1.403   .     S
C196   O286    1.285   .     A
C196   O285    1.285   .     A
C197   C230    1.410   .     A
C197   C232    1.410   .     A
C198   C231    1.411   .     A
C198   C5      1.515   1_565 S
C199   C968    1.187   1_554 S
C200   C583    1.187   .     S
C201   C206    1.392   .     A
C201   C212    1.396   .     A
C201   H270    1.084   .     S
C202   C207    1.391   .     A
C202   C213    1.395   .     A
C202   H271    1.084   .     S
C203   C208    1.392   .     A
C203   C213    1.396   .     A
C203   H272    1.084   .     S
C204   O282    1.292   .     A
C204   O281    1.293   .     A
C204   C211    1.465   .     S
C205   H273    1.084   .     S
C205   C212    1.395   .     A
C205   C209    1.391   .     A
C206   C210    1.418   .     A
C206   O288    1.385   .     S
C207   C211    1.416   .     A
C207   O278    1.385   .     S
C208   O279    1.385   .     S
C208   C211    1.418   .     A
C209   O280    1.385   .     S
C209   C210    1.416   .     A
C212   C309    1.458   1_455 S
C213   C308    1.458   .     S
C214   H240    1.114   .     S
C214   H239    1.111   .     S
C214   C216    1.534   .     S
C214   O288    1.417   .     S
C215   N275    1.365   .     A
C215   H235    1.080   .     S
C215   C230    1.407   .     A
C216   H242    1.111   .     S
C216   H241    1.111   .     S
C216   C601    1.527   .     S
C217   H245    1.111   .     S
C217   H243    1.109   .     S
C217   H244    1.111   .     S
C217   C984    1.527   1_554 S
C218   H247    1.110   .     S
C218   C219    1.536   .     S
C218   O278    1.417   .     S
C218   H248    1.114   .     S
C219   H249    1.111   .     S
C219   H250    1.111   .     S
C219   C604    1.527   .     S
C220   H253    1.111   .     S
C220   H252    1.111   .     S
C220   H251    1.108   .     S
C220   C987    1.527   1_554 S
C221   H255    1.114   .     S
C221   C222    1.534   .     S
C221   H254    1.111   .     S
C221   O279    1.417   .     S
C222   H256    1.111   .     S
C222   H258    1.111   .     S
C222   C991    1.527   1_554 S
C223   H260    1.111   .     S
C223   H259    1.109   .     S
C223   H261    1.111   .     S
C223   C606    1.527   .     S
C224   H263    1.114   .     S
C224   H262    1.110   .     S
C224   C225    1.536   .     S
C224   O280    1.417   .     S
C225   H264    1.111   .     S
C225   H265    1.111   .     S
C225   C995    1.527   1_554 S
C226   N276    1.364   .     A
C226   C231    1.407   .     A
C226   H246    1.082   .     S
C227   H266    1.108   .     S
C227   H267    1.111   .     S
C227   H269    1.111   .     S
C227   C609    1.527   .     S
C228   N275    1.365   .     A
C228   C232    1.407   .     A
C228   H257    1.080   .     S
C229   N276    1.364   .     A
C229   H268    1.082   .     S
C230   H274    1.082   .     S
C231   H236    1.082   .     S
C232   H237    1.082   .     S
Cu233  Cu234   2.674   .     S
Cu233  N276    2.009   .     S
Cu233  O286    1.927   .     S
Cu233  O277    1.956   .     S
Cu233  O282    1.956   .     S
Cu233  O284    1.927   .     S
Cu234  O285    1.927   .     S
Cu234  O283    1.956   .     S
Cu234  O287    1.927   .     S
Cu234  N275    2.009   .     S
Cu234  O281    1.956   .     S
C289   O379    1.293   .     A
C289   O373    1.292   .     A
C289   C306    1.465   .     S
C290   H334    1.082   .     S
C290   C294    1.411   .     A
C290   C325    1.407   .     A
C291   C295    1.403   .     S
C291   O380    1.285   .     A
C291   O383    1.285   .     A
C292   C296    1.403   .     S
C292   O382    1.285   .     A
C292   O381    1.285   .     A
C293   C326    1.410   .     A
C293   C328    1.410   .     A
C294   C327    1.411   .     A
C294   C101    1.515   1_565 S
C295   C1064   1.187   1_554 S
C296   C679    1.187   .     S
C297   C302    1.392   .     A
C297   C308    1.396   .     A
C297   H366    1.084   .     S
C298   C303    1.391   .     A
C298   C309    1.395   .     A
C298   H367    1.084   .     S
C299   C304    1.392   .     A
C299   C309    1.396   .     A
C299   H368    1.084   .     S
C300   O378    1.292   .     A
C300   O377    1.293   .     A
C300   C307    1.465   .     S
C301   H369    1.084   .     S
C301   C308    1.395   .     A
C301   C305    1.391   .     A
C302   C306    1.418   .     A
C302   O384    1.385   .     S
C303   C307    1.416   .     A
C303   O374    1.385   .     S
C304   O375    1.385   .     S
C304   C307    1.418   .     A
C305   O376    1.385   .     S
C305   C306    1.416   .     A
C309   C212    1.458   1_655 S
C310   H336    1.114   .     S
C310   H335    1.111   .     S
C310   C312    1.534   .     S
C310   O384    1.417   .     S
C311   N371    1.365   .     A
C311   H331    1.080   .     S
C311   C326    1.407   .     A
C312   H338    1.111   .     S
C312   H337    1.111   .     S
C312   C697    1.527   .     S
C313   H341    1.111   .     S
C313   H339    1.109   .     S
C313   H340    1.111   .     S
C313   C1080   1.527   1_554 S
C314   H343    1.110   .     S
C314   C315    1.536   .     S
C314   O374    1.417   .     S
C314   H344    1.114   .     S
C315   H345    1.111   .     S
C315   H346    1.111   .     S
C315   C700    1.527   .     S
C316   H349    1.111   .     S
C316   H348    1.111   .     S
C316   H347    1.108   .     S
C316   C1083   1.527   1_554 S
C317   H351    1.114   .     S
C317   C318    1.534   .     S
C317   H350    1.111   .     S
C317   O375    1.417   .     S
C318   H352    1.111   .     S
C318   H354    1.111   .     S
C318   C1087   1.527   1_554 S
C319   H356    1.111   .     S
C319   H355    1.109   .     S
C319   H357    1.111   .     S
C319   C702    1.527   .     S
C320   H359    1.114   .     S
C320   H358    1.110   .     S
C320   C321    1.536   .     S
C320   O376    1.417   .     S
C321   H360    1.111   .     S
C321   H361    1.111   .     S
C321   C1091   1.527   1_554 S
C322   N372    1.364   .     A
C322   C327    1.407   .     A
C322   H342    1.082   .     S
C323   H362    1.108   .     S
C323   H363    1.111   .     S
C323   H365    1.111   .     S
C323   C705    1.527   .     S
C324   N371    1.365   .     A
C324   C328    1.407   .     A
C324   H353    1.080   .     S
C325   N372    1.364   .     A
C325   H364    1.082   .     S
C326   H370    1.082   .     S
C327   H332    1.082   .     S
C328   H333    1.082   .     S
Cu329  Cu330   2.674   .     S
Cu329  N372    2.009   .     S
Cu329  O382    1.927   .     S
Cu329  O373    1.956   .     S
Cu329  O378    1.956   .     S
Cu329  O380    1.927   .     S
Cu330  O381    1.927   .     S
Cu330  O379    1.956   .     S
Cu330  O383    1.927   .     S
Cu330  N371    2.009   .     S
Cu330  O377    1.956   .     S
C385   O475    1.293   .     A
C385   O469    1.292   .     A
C385   C402    1.465   .     S
C386   H430    1.082   .     S
C386   C390    1.411   .     A
C386   C421    1.407   .     A
C387   C391    1.403   .     S
C387   O476    1.285   .     A
C387   O479    1.285   .     A
C388   C392    1.403   .     S
C388   O478    1.285   .     A
C388   O477    1.285   .     A
C389   C422    1.410   .     A
C389   C424    1.410   .     A
C389   C582    1.515   1_545 S
C390   C423    1.411   .     A
C390   C581    1.515   .     S
C392   C775    1.187   .     S
C393   C398    1.392   .     A
C393   C404    1.396   .     A
C393   H462    1.084   .     S
C394   C399    1.391   .     A
C394   C405    1.395   .     A
C394   H463    1.084   .     S
C395   C400    1.392   .     A
C395   C405    1.396   .     A
C395   H464    1.084   .     S
C396   O474    1.292   .     A
C396   O473    1.293   .     A
C396   C403    1.465   .     S
C397   H465    1.084   .     S
C397   C404    1.395   .     A
C397   C401    1.391   .     A
C398   C402    1.418   .     A
C398   O480    1.385   .     S
C399   C403    1.416   .     A
C399   O470    1.385   .     S
C400   O471    1.385   .     S
C400   C403    1.418   .     A
C401   O472    1.385   .     S
C401   C402    1.416   .     A
C404   C501    1.458   1_455 S
C405   C500    1.458   .     S
C406   H432    1.114   .     S
C406   H431    1.111   .     S
C406   C408    1.534   .     S
C406   O480    1.417   .     S
C407   N467    1.365   .     A
C407   H427    1.080   .     S
C407   C422    1.407   .     A
C408   H434    1.111   .     S
C408   H433    1.111   .     S
C408   C793    1.527   .     S
C409   H437    1.111   .     S
C409   H435    1.109   .     S
C409   H436    1.111   .     S
C410   H439    1.110   .     S
C410   C411    1.536   .     S
C410   O470    1.417   .     S
C410   H440    1.114   .     S
C411   H441    1.111   .     S
C411   H442    1.111   .     S
C411   C796    1.527   .     S
C412   H445    1.111   .     S
C412   H444    1.111   .     S
C412   H443    1.108   .     S
C413   H447    1.114   .     S
C413   C414    1.534   .     S
C413   H446    1.111   .     S
C413   O471    1.417   .     S
C414   H448    1.111   .     S
C414   H450    1.111   .     S
C415   H452    1.111   .     S
C415   H451    1.109   .     S
C415   H453    1.111   .     S
C415   C798    1.527   .     S
C416   H455    1.114   .     S
C416   H454    1.110   .     S
C416   C417    1.536   .     S
C416   O472    1.417   .     S
C417   H456    1.111   .     S
C417   H457    1.111   .     S
C418   N468    1.364   .     A
C418   C423    1.407   .     A
C418   H438    1.082   .     S
C419   H458    1.108   .     S
C419   H459    1.111   .     S
C419   H461    1.111   .     S
C419   C801    1.527   .     S
C420   N467    1.365   .     A
C420   C424    1.407   .     A
C420   H449    1.080   .     S
C421   N468    1.364   .     A
C421   H460    1.082   .     S
C422   H466    1.082   .     S
C423   H428    1.082   .     S
C424   H429    1.082   .     S
Cu425  Cu426   2.674   .     S
Cu425  N468    2.009   .     S
Cu425  O478    1.927   .     S
Cu425  O469    1.956   .     S
Cu425  O474    1.956   .     S
Cu425  O476    1.927   .     S
Cu426  O477    1.927   .     S
Cu426  O475    1.956   .     S
Cu426  O479    1.927   .     S
Cu426  N467    2.009   .     S
Cu426  O473    1.956   .     S
C481   O571    1.293   .     A
C481   O565    1.292   .     A
C481   C498    1.465   .     S
C482   H526    1.082   .     S
C482   C486    1.411   .     A
C482   C517    1.407   .     A
C483   C487    1.403   .     S
C483   O572    1.285   .     A
C483   O575    1.285   .     A
C484   C488    1.403   .     S
C484   O574    1.285   .     A
C484   O573    1.285   .     A
C485   C518    1.410   .     A
C485   C520    1.410   .     A
C485   C678    1.515   1_545 S
C486   C519    1.411   .     A
C486   C677    1.515   .     S
C488   C871    1.187   .     S
C489   C494    1.392   .     A
C489   C500    1.396   .     A
C489   H558    1.084   .     S
C490   C495    1.391   .     A
C490   C501    1.395   .     A
C490   H559    1.084   .     S
C491   C496    1.392   .     A
C491   C501    1.396   .     A
C491   H560    1.084   .     S
C492   O570    1.292   .     A
C492   O569    1.293   .     A
C492   C499    1.465   .     S
C493   H561    1.084   .     S
C493   C500    1.395   .     A
C493   C497    1.391   .     A
C494   C498    1.418   .     A
C494   O576    1.385   .     S
C495   C499    1.416   .     A
C495   O566    1.385   .     S
C496   O567    1.385   .     S
C496   C499    1.418   .     A
C497   O568    1.385   .     S
C497   C498    1.416   .     A
C501   C404    1.458   1_655 S
C502   H528    1.114   .     S
C502   H527    1.111   .     S
C502   C504    1.534   .     S
C502   O576    1.417   .     S
C503   N563    1.365   .     A
C503   H523    1.080   .     S
C503   C518    1.407   .     A
C504   H530    1.111   .     S
C504   H529    1.111   .     S
C504   C889    1.527   .     S
C505   H533    1.111   .     S
C505   H531    1.109   .     S
C505   H532    1.111   .     S
C506   H535    1.110   .     S
C506   C507    1.536   .     S
C506   O566    1.417   .     S
C506   H536    1.114   .     S
C507   H537    1.111   .     S
C507   H538    1.111   .     S
C507   C892    1.527   .     S
C508   H541    1.111   .     S
C508   H540    1.111   .     S
C508   H539    1.108   .     S
C509   H543    1.114   .     S
C509   C510    1.534   .     S
C509   H542    1.111   .     S
C509   O567    1.417   .     S
C510   H544    1.111   .     S
C510   H546    1.111   .     S
C511   H548    1.111   .     S
C511   H547    1.109   .     S
C511   H549    1.111   .     S
C511   C894    1.527   .     S
C512   H551    1.114   .     S
C512   H550    1.110   .     S
C512   C513    1.536   .     S
C512   O568    1.417   .     S
C513   H552    1.111   .     S
C513   H553    1.111   .     S
C514   N564    1.364   .     A
C514   C519    1.407   .     A
C514   H534    1.082   .     S
C515   H554    1.108   .     S
C515   H555    1.111   .     S
C515   H557    1.111   .     S
C515   C897    1.527   .     S
C516   N563    1.365   .     A
C516   C520    1.407   .     A
C516   H545    1.080   .     S
C517   N564    1.364   .     A
C517   H556    1.082   .     S
C518   H562    1.082   .     S
C519   H524    1.082   .     S
C520   H525    1.082   .     S
Cu521  Cu522   2.674   .     S
Cu521  N564    2.009   .     S
Cu521  O574    1.927   .     S
Cu521  O565    1.956   .     S
Cu521  O570    1.956   .     S
Cu521  O572    1.927   .     S
Cu522  O573    1.927   .     S
Cu522  O571    1.956   .     S
Cu522  O575    1.927   .     S
Cu522  N563    2.009   .     S
Cu522  O569    1.956   .     S
C577   O667    1.293   .     A
C577   O661    1.292   .     A
C577   C594    1.465   .     S
C578   H622    1.082   .     S
C578   C582    1.411   .     A
C578   C613    1.407   .     A
C579   C583    1.403   .     S
C579   O668    1.285   .     A
C579   O671    1.285   .     A
C580   C584    1.403   .     S
C580   O670    1.285   .     A
C580   O669    1.285   .     A
C581   C614    1.410   .     A
C581   C616    1.410   .     A
C582   C615    1.411   .     A
C582   C389    1.515   1_565 S
C584   C967    1.187   .     S
C585   C590    1.392   .     A
C585   C596    1.396   .     A
C585   H654    1.084   .     S
C586   C591    1.391   .     A
C586   C597    1.395   .     A
C586   H655    1.084   .     S
C587   C592    1.392   .     A
C587   C597    1.396   .     A
C587   H656    1.084   .     S
C588   O666    1.292   .     A
C588   O665    1.293   .     A
C588   C595    1.465   .     S
C589   H657    1.084   .     S
C589   C596    1.395   .     A
C589   C593    1.391   .     A
C590   C594    1.418   .     A
C590   O672    1.385   .     S
C591   C595    1.416   .     A
C591   O662    1.385   .     S
C592   O663    1.385   .     S
C592   C595    1.418   .     A
C593   O664    1.385   .     S
C593   C594    1.416   .     A
C596   C693    1.458   1_455 S
C597   C692    1.458   .     S
C598   H624    1.114   .     S
C598   H623    1.111   .     S
C598   C600    1.534   .     S
C598   O672    1.417   .     S
C599   N659    1.365   .     A
C599   H619    1.080   .     S
C599   C614    1.407   .     A
C600   H626    1.111   .     S
C600   H625    1.111   .     S
C600   C985    1.527   .     S
C601   H629    1.111   .     S
C601   H627    1.109   .     S
C601   H628    1.111   .     S
C602   H631    1.110   .     S
C602   C603    1.536   .     S
C602   O662    1.417   .     S
C602   H632    1.114   .     S
C603   H633    1.111   .     S
C603   H634    1.111   .     S
C603   C988    1.527   .     S
C604   H637    1.111   .     S
C604   H636    1.111   .     S
C604   H635    1.108   .     S
C605   H639    1.114   .     S
C605   C606    1.534   .     S
C605   H638    1.111   .     S
C605   O663    1.417   .     S
C606   H640    1.111   .     S
C606   H642    1.111   .     S
C607   H644    1.111   .     S
C607   H643    1.109   .     S
C607   H645    1.111   .     S
C607   C990    1.527   .     S
C608   H647    1.114   .     S
C608   H646    1.110   .     S
C608   C609    1.536   .     S
C608   O664    1.417   .     S
C609   H648    1.111   .     S
C609   H649    1.111   .     S
C610   N660    1.364   .     A
C610   C615    1.407   .     A
C610   H630    1.082   .     S
C611   H650    1.108   .     S
C611   H651    1.111   .     S
C611   H653    1.111   .     S
C611   C993    1.527   .     S
C612   N659    1.365   .     A
C612   C616    1.407   .     A
C612   H641    1.080   .     S
C613   N660    1.364   .     A
C613   H652    1.082   .     S
C614   H658    1.082   .     S
C615   H620    1.082   .     S
C616   H621    1.082   .     S
Cu617  Cu618   2.674   .     S
Cu617  N660    2.009   .     S
Cu617  O670    1.927   .     S
Cu617  O661    1.956   .     S
Cu617  O666    1.956   .     S
Cu617  O668    1.927   .     S
Cu618  O669    1.927   .     S
Cu618  O667    1.956   .     S
Cu618  O671    1.927   .     S
Cu618  N659    2.009   .     S
Cu618  O665    1.956   .     S
C673   O763    1.293   .     A
C673   O757    1.292   .     A
C673   C690    1.465   .     S
C674   H718    1.082   .     S
C674   C678    1.411   .     A
C674   C709    1.407   .     A
C675   C679    1.403   .     S
C675   O764    1.285   .     A
C675   O767    1.285   .     A
C676   C680    1.403   .     S
C676   O766    1.285   .     A
C676   O765    1.285   .     A
C677   C710    1.410   .     A
C677   C712    1.410   .     A
C678   C711    1.411   .     A
C678   C485    1.515   1_565 S
C680   C1063   1.187   .     S
C681   C686    1.392   .     A
C681   C692    1.396   .     A
C681   H750    1.084   .     S
C682   C687    1.391   .     A
C682   C693    1.395   .     A
C682   H751    1.084   .     S
C683   C688    1.392   .     A
C683   C693    1.396   .     A
C683   H752    1.084   .     S
C684   O762    1.292   .     A
C684   O761    1.293   .     A
C684   C691    1.465   .     S
C685   H753    1.084   .     S
C685   C692    1.395   .     A
C685   C689    1.391   .     A
C686   C690    1.418   .     A
C686   O768    1.385   .     S
C687   C691    1.416   .     A
C687   O758    1.385   .     S
C688   O759    1.385   .     S
C688   C691    1.418   .     A
C689   O760    1.385   .     S
C689   C690    1.416   .     A
C693   C596    1.458   1_655 S
C694   H720    1.114   .     S
C694   H719    1.111   .     S
C694   C696    1.534   .     S
C694   O768    1.417   .     S
C695   N755    1.365   .     A
C695   H715    1.080   .     S
C695   C710    1.407   .     A
C696   H722    1.111   .     S
C696   H721    1.111   .     S
C696   C1081   1.527   .     S
C697   H725    1.111   .     S
C697   H723    1.109   .     S
C697   H724    1.111   .     S
C698   H727    1.110   .     S
C698   C699    1.536   .     S
C698   O758    1.417   .     S
C698   H728    1.114   .     S
C699   H729    1.111   .     S
C699   H730    1.111   .     S
C699   C1084   1.527   .     S
C700   H733    1.111   .     S
C700   H732    1.111   .     S
C700   H731    1.108   .     S
C701   H735    1.114   .     S
C701   C702    1.534   .     S
C701   H734    1.111   .     S
C701   O759    1.417   .     S
C702   H736    1.111   .     S
C702   H738    1.111   .     S
C703   H740    1.111   .     S
C703   H739    1.109   .     S
C703   H741    1.111   .     S
C703   C1086   1.527   .     S
C704   H743    1.114   .     S
C704   H742    1.110   .     S
C704   C705    1.536   .     S
C704   O760    1.417   .     S
C705   H744    1.111   .     S
C705   H745    1.111   .     S
C706   N756    1.364   .     A
C706   C711    1.407   .     A
C706   H726    1.082   .     S
C707   H746    1.108   .     S
C707   H747    1.111   .     S
C707   H749    1.111   .     S
C707   C1089   1.527   .     S
C708   N755    1.365   .     A
C708   C712    1.407   .     A
C708   H737    1.080   .     S
C709   N756    1.364   .     A
C709   H748    1.082   .     S
C710   H754    1.082   .     S
C711   H716    1.082   .     S
C712   H717    1.082   .     S
Cu713  Cu714   2.674   .     S
Cu713  N756    2.009   .     S
Cu713  O766    1.927   .     S
Cu713  O757    1.956   .     S
Cu713  O762    1.956   .     S
Cu713  O764    1.927   .     S
Cu714  O765    1.927   .     S
Cu714  O763    1.956   .     S
Cu714  O767    1.927   .     S
Cu714  N755    2.009   .     S
Cu714  O761    1.956   .     S
C769   O859    1.293   .     A
C769   O853    1.292   .     A
C769   C786    1.465   .     S
C770   H814    1.082   .     S
C770   C774    1.411   .     A
C770   C805    1.407   .     A
C771   C775    1.403   .     S
C771   O860    1.285   .     A
C771   O863    1.285   .     A
C772   C776    1.403   .     S
C772   O862    1.285   .     A
C772   O861    1.285   .     A
C773   C806    1.410   .     A
C773   C808    1.410   .     A
C773   C966    1.515   1_545 S
C774   C807    1.411   .     A
C774   C965    1.515   .     S
C776   C7      1.187   1_556 S
C777   C782    1.392   .     A
C777   C788    1.396   .     A
C777   H846    1.084   .     S
C778   C783    1.391   .     A
C778   C789    1.395   .     A
C778   H847    1.084   .     S
C779   C784    1.392   .     A
C779   C789    1.396   .     A
C779   H848    1.084   .     S
C780   O858    1.292   .     A
C780   O857    1.293   .     A
C780   C787    1.465   .     S
C781   H849    1.084   .     S
C781   C788    1.395   .     A
C781   C785    1.391   .     A
C782   C786    1.418   .     A
C782   O864    1.385   .     S
C783   C787    1.416   .     A
C783   O854    1.385   .     S
C784   O855    1.385   .     S
C784   C787    1.418   .     A
C785   O856    1.385   .     S
C785   C786    1.416   .     A
C788   C885    1.458   1_455 S
C789   C884    1.458   .     S
C790   H816    1.114   .     S
C790   H815    1.111   .     S
C790   C792    1.534   .     S
C790   O864    1.417   .     S
C791   N851    1.365   .     A
C791   H811    1.080   .     S
C791   C806    1.407   .     A
C792   H818    1.111   .     S
C792   H817    1.111   .     S
C792   C25     1.527   1_556 S
C793   H821    1.111   .     S
C793   H819    1.109   .     S
C793   H820    1.111   .     S
C794   H823    1.110   .     S
C794   C795    1.536   .     S
C794   O854    1.417   .     S
C794   H824    1.114   .     S
C795   H825    1.111   .     S
C795   H826    1.111   .     S
C795   C28     1.527   1_556 S
C796   H829    1.111   .     S
C796   H828    1.111   .     S
C796   H827    1.108   .     S
C797   H831    1.114   .     S
C797   C798    1.534   .     S
C797   H830    1.111   .     S
C797   O855    1.417   .     S
C798   H832    1.111   .     S
C798   H834    1.111   .     S
C799   H836    1.111   .     S
C799   H835    1.109   .     S
C799   H837    1.111   .     S
C799   C30     1.527   1_556 S
C800   H839    1.114   .     S
C800   H838    1.110   .     S
C800   C801    1.536   .     S
C800   O856    1.417   .     S
C801   H840    1.111   .     S
C801   H841    1.111   .     S
C802   N852    1.364   .     A
C802   C807    1.407   .     A
C802   H822    1.082   .     S
C803   H842    1.108   .     S
C803   H843    1.111   .     S
C803   H845    1.111   .     S
C803   C33     1.527   1_556 S
C804   N851    1.365   .     A
C804   C808    1.407   .     A
C804   H833    1.080   .     S
C805   N852    1.364   .     A
C805   H844    1.082   .     S
C806   H850    1.082   .     S
C807   H812    1.082   .     S
C808   H813    1.082   .     S
Cu809  Cu810   2.674   .     S
Cu809  N852    2.009   .     S
Cu809  O862    1.927   .     S
Cu809  O853    1.956   .     S
Cu809  O858    1.956   .     S
Cu809  O860    1.927   .     S
Cu810  O861    1.927   .     S
Cu810  O859    1.956   .     S
Cu810  O863    1.927   .     S
Cu810  N851    2.009   .     S
Cu810  O857    1.956   .     S
C865   O955    1.293   .     A
C865   O949    1.292   .     A
C865   C882    1.465   .     S
C866   H910    1.082   .     S
C866   C870    1.411   .     A
C866   C901    1.407   .     A
C867   C871    1.403   .     S
C867   O956    1.285   .     A
C867   O959    1.285   .     A
C868   C872    1.403   .     S
C868   O958    1.285   .     A
C868   O957    1.285   .     A
C869   C902    1.410   .     A
C869   C904    1.410   .     A
C869   C1062   1.515   1_545 S
C870   C903    1.411   .     A
C870   C1061   1.515   .     S
C872   C103    1.187   1_556 S
C873   C878    1.392   .     A
C873   C884    1.396   .     A
C873   H942    1.084   .     S
C874   C879    1.391   .     A
C874   C885    1.395   .     A
C874   H943    1.084   .     S
C875   C880    1.392   .     A
C875   C885    1.396   .     A
C875   H944    1.084   .     S
C876   O954    1.292   .     A
C876   O953    1.293   .     A
C876   C883    1.465   .     S
C877   H945    1.084   .     S
C877   C884    1.395   .     A
C877   C881    1.391   .     A
C878   C882    1.418   .     A
C878   O960    1.385   .     S
C879   C883    1.416   .     A
C879   O950    1.385   .     S
C880   O951    1.385   .     S
C880   C883    1.418   .     A
C881   O952    1.385   .     S
C881   C882    1.416   .     A
C885   C788    1.458   1_655 S
C886   H912    1.114   .     S
C886   H911    1.111   .     S
C886   C888    1.534   .     S
C886   O960    1.417   .     S
C887   N947    1.365   .     A
C887   H907    1.080   .     S
C887   C902    1.407   .     A
C888   H914    1.111   .     S
C888   H913    1.111   .     S
C888   C121    1.527   1_556 S
C889   H917    1.111   .     S
C889   H915    1.109   .     S
C889   H916    1.111   .     S
C890   H919    1.110   .     S
C890   C891    1.536   .     S
C890   O950    1.417   .     S
C890   H920    1.114   .     S
C891   H921    1.111   .     S
C891   H922    1.111   .     S
C891   C124    1.527   1_556 S
C892   H925    1.111   .     S
C892   H924    1.111   .     S
C892   H923    1.108   .     S
C893   H927    1.114   .     S
C893   C894    1.534   .     S
C893   H926    1.111   .     S
C893   O951    1.417   .     S
C894   H928    1.111   .     S
C894   H930    1.111   .     S
C895   H932    1.111   .     S
C895   H931    1.109   .     S
C895   H933    1.111   .     S
C895   C126    1.527   1_556 S
C896   H935    1.114   .     S
C896   H934    1.110   .     S
C896   C897    1.536   .     S
C896   O952    1.417   .     S
C897   H936    1.111   .     S
C897   H937    1.111   .     S
C898   N948    1.364   .     A
C898   C903    1.407   .     A
C898   H918    1.082   .     S
C899   H938    1.108   .     S
C899   H939    1.111   .     S
C899   H941    1.111   .     S
C899   C129    1.527   1_556 S
C900   N947    1.365   .     A
C900   C904    1.407   .     A
C900   H929    1.080   .     S
C901   N948    1.364   .     A
C901   H940    1.082   .     S
C902   H946    1.082   .     S
C903   H908    1.082   .     S
C904   H909    1.082   .     S
Cu905  Cu906   2.674   .     S
Cu905  N948    2.009   .     S
Cu905  O958    1.927   .     S
Cu905  O949    1.956   .     S
Cu905  O954    1.956   .     S
Cu905  O956    1.927   .     S
Cu906  O957    1.927   .     S
Cu906  O955    1.956   .     S
Cu906  O959    1.927   .     S
Cu906  N947    2.009   .     S
Cu906  O953    1.956   .     S
C961   O1051   1.293   .     A
C961   O1045   1.292   .     A
C961   C978    1.465   .     S
C962   H1006   1.082   .     S
C962   C966    1.411   .     A
C962   C997    1.407   .     A
C963   C967    1.403   .     S
C963   O1052   1.285   .     A
C963   O1055   1.285   .     A
C964   C968    1.403   .     S
C964   O1054   1.285   .     A
C964   O1053   1.285   .     A
C965   C998    1.410   .     A
C965   C1000   1.410   .     A
C966   C999    1.411   .     A
C966   C773    1.515   1_565 S
C968   C199    1.187   1_556 S
C969   C974    1.392   .     A
C969   C980    1.396   .     A
C969   H1038   1.084   .     S
C970   C975    1.391   .     A
C970   C981    1.395   .     A
C970   H1039   1.084   .     S
C971   C976    1.392   .     A
C971   C981    1.396   .     A
C971   H1040   1.084   .     S
C972   O1050   1.292   .     A
C972   O1049   1.293   .     A
C972   C979    1.465   .     S
C973   H1041   1.084   .     S
C973   C980    1.395   .     A
C973   C977    1.391   .     A
C974   C978    1.418   .     A
C974   O1056   1.385   .     S
C975   C979    1.416   .     A
C975   O1046   1.385   .     S
C976   O1047   1.385   .     S
C976   C979    1.418   .     A
C977   O1048   1.385   .     S
C977   C978    1.416   .     A
C980   C1077   1.458   1_455 S
C981   C1076   1.458   .     S
C982   H1008   1.114   .     S
C982   H1007   1.111   .     S
C982   C984    1.534   .     S
C982   O1056   1.417   .     S
C983   N1043   1.365   .     A
C983   H1003   1.080   .     S
C983   C998    1.407   .     A
C984   H1010   1.111   .     S
C984   H1009   1.111   .     S
C984   C217    1.527   1_556 S
C985   H1013   1.111   .     S
C985   H1011   1.109   .     S
C985   H1012   1.111   .     S
C986   H1015   1.110   .     S
C986   C987    1.536   .     S
C986   O1046   1.417   .     S
C986   H1016   1.114   .     S
C987   H1017   1.111   .     S
C987   H1018   1.111   .     S
C987   C220    1.527   1_556 S
C988   H1021   1.111   .     S
C988   H1020   1.111   .     S
C988   H1019   1.108   .     S
C989   H1023   1.114   .     S
C989   C990    1.534   .     S
C989   H1022   1.111   .     S
C989   O1047   1.417   .     S
C990   H1024   1.111   .     S
C990   H1026   1.111   .     S
C991   H1028   1.111   .     S
C991   H1027   1.109   .     S
C991   H1029   1.111   .     S
C991   C222    1.527   1_556 S
C992   H1031   1.114   .     S
C992   H1030   1.110   .     S
C992   C993    1.536   .     S
C992   O1048   1.417   .     S
C993   H1032   1.111   .     S
C993   H1033   1.111   .     S
C994   N1044   1.364   .     A
C994   C999    1.407   .     A
C994   H1014   1.082   .     S
C995   H1034   1.108   .     S
C995   H1035   1.111   .     S
C995   H1037   1.111   .     S
C995   C225    1.527   1_556 S
C996   N1043   1.365   .     A
C996   C1000   1.407   .     A
C996   H1025   1.080   .     S
C997   N1044   1.364   .     A
C997   H1036   1.082   .     S
C998   H1042   1.082   .     S
C999   H1004   1.082   .     S
C1000  H1005   1.082   .     S
Cu1001 Cu1002  2.674   .     S
Cu1001 N1044   2.009   .     S
Cu1001 O1054   1.927   .     S
Cu1001 O1045   1.956   .     S
Cu1001 O1050   1.956   .     S
Cu1001 O1052   1.927   .     S
Cu1002 O1053   1.927   .     S
Cu1002 O1051   1.956   .     S
Cu1002 O1055   1.927   .     S
Cu1002 N1043   2.009   .     S
Cu1002 O1049   1.956   .     S
C1057  O1147   1.293   .     A
C1057  O1141   1.292   .     A
C1057  C1074   1.465   .     S
C1058  H1102   1.082   .     S
C1058  C1062   1.411   .     A
C1058  C1093   1.407   .     A
C1059  C1063   1.403   .     S
C1059  O1148   1.285   .     A
C1059  O1151   1.285   .     A
C1060  C1064   1.403   .     S
C1060  O1150   1.285   .     A
C1060  O1149   1.285   .     A
C1061  C1094   1.410   .     A
C1061  C1096   1.410   .     A
C1062  C1095   1.411   .     A
C1062  C869    1.515   1_565 S
C1064  C295    1.187   1_556 S
C1065  C1070   1.392   .     A
C1065  C1076   1.396   .     A
C1065  H1134   1.084   .     S
C1066  C1071   1.391   .     A
C1066  C1077   1.395   .     A
C1066  H1135   1.084   .     S
C1067  C1072   1.392   .     A
C1067  C1077   1.396   .     A
C1067  H1136   1.084   .     S
C1068  O1146   1.292   .     A
C1068  O1145   1.293   .     A
C1068  C1075   1.465   .     S
C1069  H1137   1.084   .     S
C1069  C1076   1.395   .     A
C1069  C1073   1.391   .     A
C1070  C1074   1.418   .     A
C1070  O1152   1.385   .     S
C1071  C1075   1.416   .     A
C1071  O1142   1.385   .     S
C1072  O1143   1.385   .     S
C1072  C1075   1.418   .     A
C1073  O1144   1.385   .     S
C1073  C1074   1.416   .     A
C1077  C980    1.458   1_655 S
C1078  H1104   1.114   .     S
C1078  H1103   1.111   .     S
C1078  C1080   1.534   .     S
C1078  O1152   1.417   .     S
C1079  N1139   1.365   .     A
C1079  H1099   1.080   .     S
C1079  C1094   1.407   .     A
C1080  H1106   1.111   .     S
C1080  H1105   1.111   .     S
C1080  C313    1.527   1_556 S
C1081  H1109   1.111   .     S
C1081  H1107   1.109   .     S
C1081  H1108   1.111   .     S
C1082  H1111   1.110   .     S
C1082  C1083   1.536   .     S
C1082  O1142   1.417   .     S
C1082  H1112   1.114   .     S
C1083  H1113   1.111   .     S
C1083  H1114   1.111   .     S
C1083  C316    1.527   1_556 S
C1084  H1117   1.111   .     S
C1084  H1116   1.111   .     S
C1084  H1115   1.108   .     S
C1085  H1119   1.114   .     S
C1085  C1086   1.534   .     S
C1085  H1118   1.111   .     S
C1085  O1143   1.417   .     S
C1086  H1120   1.111   .     S
C1086  H1122   1.111   .     S
C1087  H1124   1.111   .     S
C1087  H1123   1.109   .     S
C1087  H1125   1.111   .     S
C1087  C318    1.527   1_556 S
C1088  H1127   1.114   .     S
C1088  H1126   1.110   .     S
C1088  C1089   1.536   .     S
C1088  O1144   1.417   .     S
C1089  H1128   1.111   .     S
C1089  H1129   1.111   .     S
C1090  N1140   1.364   .     A
C1090  C1095   1.407   .     A
C1090  H1110   1.082   .     S
C1091  H1130   1.108   .     S
C1091  H1131   1.111   .     S
C1091  H1133   1.111   .     S
C1091  C321    1.527   1_556 S
C1092  N1139   1.365   .     A
C1092  C1096   1.407   .     A
C1092  H1121   1.080   .     S
C1093  N1140   1.364   .     A
C1093  H1132   1.082   .     S
C1094  H1138   1.082   .     S
C1095  H1100   1.082   .     S
C1096  H1101   1.082   .     S
Cu1097 Cu1098  2.674   .     S
Cu1097 N1140   2.009   .     S
Cu1097 O1150   1.927   .     S
Cu1097 O1141   1.956   .     S
Cu1097 O1146   1.956   .     S
Cu1097 O1148   1.927   .     S
Cu1098 O1149   1.927   .     S
Cu1098 O1147   1.956   .     S
Cu1098 O1151   1.927   .     S
Cu1098 N1139   2.009   .     S
Cu1098 O1145   1.956   .     S
