data_str_m2_o1_o2_pcu_sym.65
_audit_creation_date              2020-01-03
_audit_creation_method            'Materials Studio'
_symmetry_space_group_name_H-M    'P1'
_symmetry_Int_Tables_number       1
_symmetry_cell_setting            triclinic
loop_
_symmetry_equiv_pos_as_xyz
  x,y,z
_cell_length_a                    32.4728
_cell_length_b                    28.9643
_cell_length_c                    29.8089
_cell_angle_alpha                 90.0103
_cell_angle_beta                  93.9140
_cell_angle_gamma                 90.0000
loop_
_atom_site_label
_atom_site_type_symbol
_atom_site_fract_x
_atom_site_fract_y
_atom_site_fract_z
_atom_site_U_iso_or_equiv
_atom_site_adp_type
_atom_site_occupancy
C1     C     0.08749   0.16667   0.25012   0.00000  Uiso   1.00
C2     C     0.31202   0.20860   0.24972   0.00000  Uiso   1.00
C3     C     0.31202   0.12473   0.24973   0.00000  Uiso   1.00
C4     C     0.02131   0.20860   0.25027   0.00000  Uiso   1.00
C5     C     0.18793   0.20764   0.04697   0.00000  Uiso   1.00
C6     C     0.14541   0.12569   0.45303   0.00000  Uiso   1.00
C7     C     0.14546   0.20768   0.45306   0.00000  Uiso   1.00
C8     C     0.18787   0.12565   0.04694   0.00000  Uiso   1.00
C9     C     0.18938   0.20820   0.09427   0.00000  Uiso   1.00
C10    C     0.14396   0.12514   0.40573   0.00000  Uiso   1.00
C11    C     0.14402   0.20825   0.40576   0.00000  Uiso   1.00
C12    C     0.24584   0.16667   0.24988   0.00000  Uiso   1.00
C13    C     0.18931   0.12509   0.09424   0.00000  Uiso   1.00
C14    C     0.18174   0.16665   0.11739   0.00000  Uiso   1.00
C15    C     0.15159   0.16669   0.38261   0.00000  Uiso   1.00
C16    C     0.17582   0.16666   0.02400   0.00000  Uiso   1.00
C17    C     0.15751   0.16667   0.47600   0.00000  Uiso   1.00
C18    C     0.29051   0.16667   0.24968   0.00000  Uiso   1.00
C19    C     0.04282   0.16667   0.25032   0.00000  Uiso   1.00
C20    C     0.17183   0.16666   0.16544   0.00000  Uiso   1.00
C21    C     0.16151   0.16667   0.33456   0.00000  Uiso   1.00
C22    C     0.13999   0.02468   0.22099   0.00000  Uiso   1.00
C23    C     0.19335   0.30865   0.27901   0.00000  Uiso   1.00
C24    C     0.19335   0.02469   0.27901   0.00000  Uiso   1.00
C25    C     0.13999   0.30864   0.22099   0.00000  Uiso   1.00
C26    C     0.02131   0.12473   0.25028   0.00000  Uiso   1.00
Cl27   Cl    0.21261   0.25227   0.01816   0.00000  Uiso   1.00
Cl28   Cl    0.12072   0.08106   0.48184   0.00000  Uiso   1.00
Cl29   Cl    0.12082   0.25234   0.48189   0.00000  Uiso   1.00
Cl30   Cl    0.21251   0.08100   0.01811   0.00000  Uiso   1.00
Cu31   Cu    0.16667   0.21355   0.25000   0.00000  Uiso   1.00
Cu32   Cu    0.16667   0.11978   0.25000   0.00000  Uiso   1.00
H33    H     0.03727   0.09191   0.25066   0.00000  Uiso   1.00
H34    H     0.29606   0.24143   0.24934   0.00000  Uiso   1.00
H35    H     0.29606   0.09191   0.24938   0.00000  Uiso   1.00
H36    H     0.03727   0.24143   0.25062   0.00000  Uiso   1.00
I37    I     0.09726   0.05943   0.17412   0.00000  Uiso   1.00
I38    I     0.23607   0.27391   0.32588   0.00000  Uiso   1.00
I39    I     0.23606   0.05945   0.32589   0.00000  Uiso   1.00
I40    I     0.09727   0.27388   0.17410   0.00000  Uiso   1.00
I41    I     0.21419   0.26769   0.12896   0.00000  Uiso   1.00
I42    I     0.11914   0.06564   0.37104   0.00000  Uiso   1.00
I43    I     0.11934   0.26782   0.37112   0.00000  Uiso   1.00
I44    I     0.21399   0.06552   0.12888   0.00000  Uiso   1.00
N45    N     0.16667   0.28402   0.25000   0.00000  Uiso   1.00
N46    N     0.16667   0.04931   0.25000   0.00000  Uiso   1.00
O47    O     0.10655   0.20625   0.24999   0.00000  Uiso   1.00
O48    O     0.22679   0.12709   0.25000   0.00000  Uiso   1.00
O49    O     0.22679   0.20625   0.25000   0.00000  Uiso   1.00
O50    O     0.10655   0.12709   0.24999   0.00000  Uiso   1.00
O51    O     0.16666   0.20626   0.18573   0.00000  Uiso   1.00
O52    O     0.16667   0.12707   0.31427   0.00000  Uiso   1.00
O53    O     0.16667   0.20626   0.31427   0.00000  Uiso   1.00
O54    O     0.16666   0.12707   0.18573   0.00000  Uiso   1.00
C55    C     0.42082   0.16667   0.25012   0.00000  Uiso   1.00
C56    C     0.64536   0.20860   0.24972   0.00000  Uiso   1.00
C57    C     0.64536   0.12473   0.24973   0.00000  Uiso   1.00
C58    C     0.35464   0.20860   0.25027   0.00000  Uiso   1.00
C59    C     0.52126   0.20764   0.04697   0.00000  Uiso   1.00
C60    C     0.47874   0.12569   0.45303   0.00000  Uiso   1.00
C61    C     0.47879   0.20768   0.45306   0.00000  Uiso   1.00
C62    C     0.52120   0.12565   0.04694   0.00000  Uiso   1.00
C63    C     0.52271   0.20820   0.09427   0.00000  Uiso   1.00
C64    C     0.47729   0.12514   0.40573   0.00000  Uiso   1.00
C65    C     0.47736   0.20825   0.40576   0.00000  Uiso   1.00
C66    C     0.57918   0.16667   0.24988   0.00000  Uiso   1.00
C67    C     0.52264   0.12509   0.09424   0.00000  Uiso   1.00
C68    C     0.51508   0.16665   0.11739   0.00000  Uiso   1.00
C69    C     0.48492   0.16669   0.38261   0.00000  Uiso   1.00
C70    C     0.50916   0.16666   0.02400   0.00000  Uiso   1.00
C71    C     0.49084   0.16667   0.47600   0.00000  Uiso   1.00
C72    C     0.62385   0.16667   0.24968   0.00000  Uiso   1.00
C73    C     0.37615   0.16667   0.25032   0.00000  Uiso   1.00
C74    C     0.50516   0.16666   0.16544   0.00000  Uiso   1.00
C75    C     0.49484   0.16667   0.33456   0.00000  Uiso   1.00
C76    C     0.47332   0.02468   0.22099   0.00000  Uiso   1.00
C77    C     0.52668   0.30865   0.27901   0.00000  Uiso   1.00
C78    C     0.52668   0.02469   0.27901   0.00000  Uiso   1.00
C79    C     0.47332   0.30864   0.22099   0.00000  Uiso   1.00
C80    C     0.35464   0.12473   0.25028   0.00000  Uiso   1.00
Cl81   Cl    0.54594   0.25227   0.01816   0.00000  Uiso   1.00
Cl82   Cl    0.45405   0.08106   0.48184   0.00000  Uiso   1.00
Cl83   Cl    0.45415   0.25234   0.48189   0.00000  Uiso   1.00
Cl84   Cl    0.54585   0.08100   0.01811   0.00000  Uiso   1.00
Cu85   Cu    0.50000   0.21355   0.25000   0.00000  Uiso   1.00
Cu86   Cu    0.50000   0.11978   0.25000   0.00000  Uiso   1.00
H87    H     0.37061   0.09191   0.25066   0.00000  Uiso   1.00
H88    H     0.62939   0.24143   0.24934   0.00000  Uiso   1.00
H89    H     0.62939   0.09191   0.24938   0.00000  Uiso   1.00
H90    H     0.37061   0.24143   0.25062   0.00000  Uiso   1.00
I91    I     0.43060   0.05943   0.17412   0.00000  Uiso   1.00
I92    I     0.56940   0.27391   0.32588   0.00000  Uiso   1.00
I93    I     0.56940   0.05945   0.32589   0.00000  Uiso   1.00
I94    I     0.43060   0.27388   0.17410   0.00000  Uiso   1.00
I95    I     0.54753   0.26769   0.12896   0.00000  Uiso   1.00
I96    I     0.45248   0.06564   0.37104   0.00000  Uiso   1.00
I97    I     0.45267   0.26782   0.37112   0.00000  Uiso   1.00
I98    I     0.54733   0.06552   0.12888   0.00000  Uiso   1.00
N99    N     0.50000   0.28402   0.25000   0.00000  Uiso   1.00
N100   N     0.50000   0.04931   0.25000   0.00000  Uiso   1.00
O101   O     0.43988   0.20625   0.24999   0.00000  Uiso   1.00
O102   O     0.56012   0.12709   0.25000   0.00000  Uiso   1.00
O103   O     0.56012   0.20625   0.25000   0.00000  Uiso   1.00
O104   O     0.43988   0.12709   0.24999   0.00000  Uiso   1.00
O105   O     0.50000   0.20626   0.18573   0.00000  Uiso   1.00
O106   O     0.50000   0.12707   0.31427   0.00000  Uiso   1.00
O107   O     0.50000   0.20626   0.31427   0.00000  Uiso   1.00
O108   O     0.50000   0.12707   0.18573   0.00000  Uiso   1.00
C109   C     0.75416   0.16667   0.25012   0.00000  Uiso   1.00
C110   C     0.97869   0.20860   0.24972   0.00000  Uiso   1.00
C111   C     0.97869   0.12473   0.24973   0.00000  Uiso   1.00
C112   C     0.68798   0.20860   0.25027   0.00000  Uiso   1.00
C113   C     0.85459   0.20764   0.04697   0.00000  Uiso   1.00
C114   C     0.81207   0.12569   0.45303   0.00000  Uiso   1.00
C115   C     0.81213   0.20768   0.45306   0.00000  Uiso   1.00
C116   C     0.85454   0.12565   0.04694   0.00000  Uiso   1.00
C117   C     0.85604   0.20820   0.09427   0.00000  Uiso   1.00
C118   C     0.81062   0.12514   0.40573   0.00000  Uiso   1.00
C119   C     0.81069   0.20825   0.40576   0.00000  Uiso   1.00
C120   C     0.91251   0.16667   0.24988   0.00000  Uiso   1.00
C121   C     0.85598   0.12509   0.09424   0.00000  Uiso   1.00
C122   C     0.84841   0.16665   0.11739   0.00000  Uiso   1.00
C123   C     0.81826   0.16669   0.38261   0.00000  Uiso   1.00
C124   C     0.84249   0.16666   0.02400   0.00000  Uiso   1.00
C125   C     0.82417   0.16667   0.47600   0.00000  Uiso   1.00
C126   C     0.95718   0.16667   0.24968   0.00000  Uiso   1.00
C127   C     0.70949   0.16667   0.25032   0.00000  Uiso   1.00
C128   C     0.83849   0.16666   0.16544   0.00000  Uiso   1.00
C129   C     0.82817   0.16667   0.33456   0.00000  Uiso   1.00
C130   C     0.80665   0.02468   0.22099   0.00000  Uiso   1.00
C131   C     0.86001   0.30865   0.27901   0.00000  Uiso   1.00
C132   C     0.86001   0.02469   0.27901   0.00000  Uiso   1.00
C133   C     0.80665   0.30864   0.22099   0.00000  Uiso   1.00
C134   C     0.68798   0.12473   0.25028   0.00000  Uiso   1.00
Cl135  Cl    0.87928   0.25227   0.01816   0.00000  Uiso   1.00
Cl136  Cl    0.78739   0.08106   0.48184   0.00000  Uiso   1.00
Cl137  Cl    0.78749   0.25234   0.48189   0.00000  Uiso   1.00
Cl138  Cl    0.87918   0.08100   0.01811   0.00000  Uiso   1.00
Cu139  Cu    0.83333   0.21355   0.25000   0.00000  Uiso   1.00
Cu140  Cu    0.83333   0.11978   0.25000   0.00000  Uiso   1.00
H141   H     0.70394   0.09191   0.25066   0.00000  Uiso   1.00
H142   H     0.96273   0.24143   0.24934   0.00000  Uiso   1.00
H143   H     0.96273   0.09191   0.24938   0.00000  Uiso   1.00
H144   H     0.70394   0.24143   0.25062   0.00000  Uiso   1.00
I145   I     0.76393   0.05943   0.17412   0.00000  Uiso   1.00
I146   I     0.90274   0.27391   0.32588   0.00000  Uiso   1.00
I147   I     0.90273   0.05945   0.32589   0.00000  Uiso   1.00
I148   I     0.76394   0.27388   0.17410   0.00000  Uiso   1.00
I149   I     0.88086   0.26769   0.12896   0.00000  Uiso   1.00
I150   I     0.78581   0.06564   0.37104   0.00000  Uiso   1.00
I151   I     0.78601   0.26782   0.37112   0.00000  Uiso   1.00
I152   I     0.88066   0.06552   0.12888   0.00000  Uiso   1.00
N153   N     0.83333   0.28402   0.25000   0.00000  Uiso   1.00
N154   N     0.83333   0.04931   0.25000   0.00000  Uiso   1.00
O155   O     0.77321   0.20625   0.24999   0.00000  Uiso   1.00
O156   O     0.89345   0.12709   0.25000   0.00000  Uiso   1.00
O157   O     0.89345   0.20625   0.25000   0.00000  Uiso   1.00
O158   O     0.77321   0.12709   0.24999   0.00000  Uiso   1.00
O159   O     0.83333   0.20626   0.18573   0.00000  Uiso   1.00
O160   O     0.83334   0.12707   0.31427   0.00000  Uiso   1.00
O161   O     0.83334   0.20626   0.31427   0.00000  Uiso   1.00
O162   O     0.83333   0.12707   0.18573   0.00000  Uiso   1.00
C163   C     0.08749   0.50000   0.25012   0.00000  Uiso   1.00
C164   C     0.31202   0.54193   0.24972   0.00000  Uiso   1.00
C165   C     0.31202   0.45807   0.24973   0.00000  Uiso   1.00
C166   C     0.02131   0.54193   0.25027   0.00000  Uiso   1.00
C167   C     0.18793   0.54098   0.04697   0.00000  Uiso   1.00
C168   C     0.14541   0.45902   0.45303   0.00000  Uiso   1.00
C169   C     0.14546   0.54101   0.45306   0.00000  Uiso   1.00
C170   C     0.18787   0.45899   0.04694   0.00000  Uiso   1.00
C171   C     0.18938   0.54153   0.09427   0.00000  Uiso   1.00
C172   C     0.14396   0.45847   0.40573   0.00000  Uiso   1.00
C173   C     0.14402   0.54158   0.40576   0.00000  Uiso   1.00
C174   C     0.24584   0.50000   0.24988   0.00000  Uiso   1.00
C175   C     0.18931   0.45842   0.09424   0.00000  Uiso   1.00
C176   C     0.18174   0.49998   0.11739   0.00000  Uiso   1.00
C177   C     0.15159   0.50002   0.38261   0.00000  Uiso   1.00
C178   C     0.17582   0.49999   0.02400   0.00000  Uiso   1.00
C179   C     0.15751   0.50001   0.47600   0.00000  Uiso   1.00
C180   C     0.29051   0.50000   0.24968   0.00000  Uiso   1.00
C181   C     0.04282   0.50000   0.25032   0.00000  Uiso   1.00
C182   C     0.17183   0.49999   0.16544   0.00000  Uiso   1.00
C183   C     0.16151   0.50001   0.33456   0.00000  Uiso   1.00
C184   C     0.13999   0.35802   0.22099   0.00000  Uiso   1.00
C185   C     0.19335   0.64198   0.27901   0.00000  Uiso   1.00
C186   C     0.19335   0.35803   0.27901   0.00000  Uiso   1.00
C187   C     0.13999   0.64197   0.22099   0.00000  Uiso   1.00
C188   C     0.02131   0.45807   0.25028   0.00000  Uiso   1.00
Cl189  Cl    0.21261   0.58561   0.01816   0.00000  Uiso   1.00
Cl190  Cl    0.12072   0.41439   0.48184   0.00000  Uiso   1.00
Cl191  Cl    0.12082   0.58567   0.48189   0.00000  Uiso   1.00
Cl192  Cl    0.21251   0.41433   0.01811   0.00000  Uiso   1.00
Cu193  Cu    0.16667   0.54689   0.25000   0.00000  Uiso   1.00
Cu194  Cu    0.16667   0.45311   0.25000   0.00000  Uiso   1.00
H195   H     0.03727   0.42524   0.25066   0.00000  Uiso   1.00
H196   H     0.29606   0.57476   0.24934   0.00000  Uiso   1.00
H197   H     0.29606   0.42524   0.24938   0.00000  Uiso   1.00
H198   H     0.03727   0.57476   0.25062   0.00000  Uiso   1.00
I199   I     0.09726   0.39276   0.17412   0.00000  Uiso   1.00
I200   I     0.23607   0.60724   0.32588   0.00000  Uiso   1.00
I201   I     0.23606   0.39279   0.32589   0.00000  Uiso   1.00
I202   I     0.09727   0.60722   0.17410   0.00000  Uiso   1.00
I203   I     0.21419   0.60102   0.12896   0.00000  Uiso   1.00
I204   I     0.11914   0.39898   0.37104   0.00000  Uiso   1.00
I205   I     0.11934   0.60115   0.37112   0.00000  Uiso   1.00
I206   I     0.21399   0.39885   0.12888   0.00000  Uiso   1.00
N207   N     0.16667   0.61736   0.25000   0.00000  Uiso   1.00
N208   N     0.16667   0.38264   0.25000   0.00000  Uiso   1.00
O209   O     0.10655   0.53958   0.24999   0.00000  Uiso   1.00
O210   O     0.22679   0.46042   0.25000   0.00000  Uiso   1.00
O211   O     0.22679   0.53958   0.25000   0.00000  Uiso   1.00
O212   O     0.10655   0.46042   0.24999   0.00000  Uiso   1.00
O213   O     0.16666   0.53959   0.18573   0.00000  Uiso   1.00
O214   O     0.16667   0.46041   0.31427   0.00000  Uiso   1.00
O215   O     0.16667   0.53959   0.31427   0.00000  Uiso   1.00
O216   O     0.16666   0.46041   0.18573   0.00000  Uiso   1.00
C217   C     0.42082   0.50000   0.25012   0.00000  Uiso   1.00
C218   C     0.64536   0.54193   0.24972   0.00000  Uiso   1.00
C219   C     0.64536   0.45807   0.24973   0.00000  Uiso   1.00
C220   C     0.35464   0.54193   0.25027   0.00000  Uiso   1.00
C221   C     0.52126   0.54098   0.04697   0.00000  Uiso   1.00
C222   C     0.47874   0.45902   0.45303   0.00000  Uiso   1.00
C223   C     0.47879   0.54101   0.45306   0.00000  Uiso   1.00
C224   C     0.52120   0.45899   0.04694   0.00000  Uiso   1.00
C225   C     0.52271   0.54153   0.09427   0.00000  Uiso   1.00
C226   C     0.47729   0.45847   0.40573   0.00000  Uiso   1.00
C227   C     0.47736   0.54158   0.40576   0.00000  Uiso   1.00
C228   C     0.57918   0.50000   0.24988   0.00000  Uiso   1.00
C229   C     0.52264   0.45842   0.09424   0.00000  Uiso   1.00
C230   C     0.51508   0.49998   0.11739   0.00000  Uiso   1.00
C231   C     0.48492   0.50002   0.38261   0.00000  Uiso   1.00
C232   C     0.50916   0.49999   0.02400   0.00000  Uiso   1.00
C233   C     0.49084   0.50001   0.47600   0.00000  Uiso   1.00
C234   C     0.62385   0.50000   0.24968   0.00000  Uiso   1.00
C235   C     0.37615   0.50000   0.25032   0.00000  Uiso   1.00
C236   C     0.50516   0.49999   0.16544   0.00000  Uiso   1.00
C237   C     0.49484   0.50001   0.33456   0.00000  Uiso   1.00
C238   C     0.47332   0.35802   0.22099   0.00000  Uiso   1.00
C239   C     0.52668   0.64198   0.27901   0.00000  Uiso   1.00
C240   C     0.52668   0.35803   0.27901   0.00000  Uiso   1.00
C241   C     0.47332   0.64197   0.22099   0.00000  Uiso   1.00
C242   C     0.35464   0.45807   0.25028   0.00000  Uiso   1.00
Cl243  Cl    0.54594   0.58561   0.01816   0.00000  Uiso   1.00
Cl244  Cl    0.45405   0.41439   0.48184   0.00000  Uiso   1.00
Cl245  Cl    0.45415   0.58567   0.48189   0.00000  Uiso   1.00
Cl246  Cl    0.54585   0.41433   0.01811   0.00000  Uiso   1.00
Cu247  Cu    0.50000   0.54689   0.25000   0.00000  Uiso   1.00
Cu248  Cu    0.50000   0.45311   0.25000   0.00000  Uiso   1.00
H249   H     0.37061   0.42524   0.25066   0.00000  Uiso   1.00
H250   H     0.62939   0.57476   0.24934   0.00000  Uiso   1.00
H251   H     0.62939   0.42524   0.24938   0.00000  Uiso   1.00
H252   H     0.37061   0.57476   0.25062   0.00000  Uiso   1.00
I253   I     0.43060   0.39276   0.17412   0.00000  Uiso   1.00
I254   I     0.56940   0.60724   0.32588   0.00000  Uiso   1.00
I255   I     0.56940   0.39279   0.32589   0.00000  Uiso   1.00
I256   I     0.43060   0.60722   0.17410   0.00000  Uiso   1.00
I257   I     0.54753   0.60102   0.12896   0.00000  Uiso   1.00
I258   I     0.45248   0.39898   0.37104   0.00000  Uiso   1.00
I259   I     0.45267   0.60115   0.37112   0.00000  Uiso   1.00
I260   I     0.54733   0.39885   0.12888   0.00000  Uiso   1.00
N261   N     0.50000   0.61736   0.25000   0.00000  Uiso   1.00
N262   N     0.50000   0.38264   0.25000   0.00000  Uiso   1.00
O263   O     0.43988   0.53958   0.24999   0.00000  Uiso   1.00
O264   O     0.56012   0.46042   0.25000   0.00000  Uiso   1.00
O265   O     0.56012   0.53958   0.25000   0.00000  Uiso   1.00
O266   O     0.43988   0.46042   0.24999   0.00000  Uiso   1.00
O267   O     0.50000   0.53959   0.18573   0.00000  Uiso   1.00
O268   O     0.50000   0.46041   0.31427   0.00000  Uiso   1.00
O269   O     0.50000   0.53959   0.31427   0.00000  Uiso   1.00
O270   O     0.50000   0.46041   0.18573   0.00000  Uiso   1.00
C271   C     0.75416   0.50000   0.25012   0.00000  Uiso   1.00
C272   C     0.97869   0.54193   0.24972   0.00000  Uiso   1.00
C273   C     0.97869   0.45807   0.24973   0.00000  Uiso   1.00
C274   C     0.68798   0.54193   0.25027   0.00000  Uiso   1.00
C275   C     0.85459   0.54098   0.04697   0.00000  Uiso   1.00
C276   C     0.81207   0.45902   0.45303   0.00000  Uiso   1.00
C277   C     0.81213   0.54101   0.45306   0.00000  Uiso   1.00
C278   C     0.85454   0.45899   0.04694   0.00000  Uiso   1.00
C279   C     0.85604   0.54153   0.09427   0.00000  Uiso   1.00
C280   C     0.81062   0.45847   0.40573   0.00000  Uiso   1.00
C281   C     0.81069   0.54158   0.40576   0.00000  Uiso   1.00
C282   C     0.91251   0.50000   0.24988   0.00000  Uiso   1.00
C283   C     0.85598   0.45842   0.09424   0.00000  Uiso   1.00
C284   C     0.84841   0.49998   0.11739   0.00000  Uiso   1.00
C285   C     0.81826   0.50002   0.38261   0.00000  Uiso   1.00
C286   C     0.84249   0.49999   0.02400   0.00000  Uiso   1.00
C287   C     0.82417   0.50001   0.47600   0.00000  Uiso   1.00
C288   C     0.95718   0.50000   0.24968   0.00000  Uiso   1.00
C289   C     0.70949   0.50000   0.25032   0.00000  Uiso   1.00
C290   C     0.83849   0.49999   0.16544   0.00000  Uiso   1.00
C291   C     0.82817   0.50001   0.33456   0.00000  Uiso   1.00
C292   C     0.80665   0.35802   0.22099   0.00000  Uiso   1.00
C293   C     0.86001   0.64198   0.27901   0.00000  Uiso   1.00
C294   C     0.86001   0.35803   0.27901   0.00000  Uiso   1.00
C295   C     0.80665   0.64197   0.22099   0.00000  Uiso   1.00
C296   C     0.68798   0.45807   0.25028   0.00000  Uiso   1.00
Cl297  Cl    0.87928   0.58561   0.01816   0.00000  Uiso   1.00
Cl298  Cl    0.78739   0.41439   0.48184   0.00000  Uiso   1.00
Cl299  Cl    0.78749   0.58567   0.48189   0.00000  Uiso   1.00
Cl300  Cl    0.87918   0.41433   0.01811   0.00000  Uiso   1.00
Cu301  Cu    0.83333   0.54689   0.25000   0.00000  Uiso   1.00
Cu302  Cu    0.83333   0.45311   0.25000   0.00000  Uiso   1.00
H303   H     0.70394   0.42524   0.25066   0.00000  Uiso   1.00
H304   H     0.96273   0.57476   0.24934   0.00000  Uiso   1.00
H305   H     0.96273   0.42524   0.24938   0.00000  Uiso   1.00
H306   H     0.70394   0.57476   0.25062   0.00000  Uiso   1.00
I307   I     0.76393   0.39276   0.17412   0.00000  Uiso   1.00
I308   I     0.90274   0.60724   0.32588   0.00000  Uiso   1.00
I309   I     0.90273   0.39279   0.32589   0.00000  Uiso   1.00
I310   I     0.76394   0.60722   0.17410   0.00000  Uiso   1.00
I311   I     0.88086   0.60102   0.12896   0.00000  Uiso   1.00
I312   I     0.78581   0.39898   0.37104   0.00000  Uiso   1.00
I313   I     0.78601   0.60115   0.37112   0.00000  Uiso   1.00
I314   I     0.88066   0.39885   0.12888   0.00000  Uiso   1.00
N315   N     0.83333   0.61736   0.25000   0.00000  Uiso   1.00
N316   N     0.83333   0.38264   0.25000   0.00000  Uiso   1.00
O317   O     0.77321   0.53958   0.24999   0.00000  Uiso   1.00
O318   O     0.89345   0.46042   0.25000   0.00000  Uiso   1.00
O319   O     0.89345   0.53958   0.25000   0.00000  Uiso   1.00
O320   O     0.77321   0.46042   0.24999   0.00000  Uiso   1.00
O321   O     0.83333   0.53959   0.18573   0.00000  Uiso   1.00
O322   O     0.83334   0.46041   0.31427   0.00000  Uiso   1.00
O323   O     0.83334   0.53959   0.31427   0.00000  Uiso   1.00
O324   O     0.83333   0.46041   0.18573   0.00000  Uiso   1.00
C325   C     0.08749   0.83333   0.25012   0.00000  Uiso   1.00
C326   C     0.31202   0.87527   0.24972   0.00000  Uiso   1.00
C327   C     0.31202   0.79140   0.24973   0.00000  Uiso   1.00
C328   C     0.02131   0.87527   0.25027   0.00000  Uiso   1.00
C329   C     0.18793   0.87431   0.04697   0.00000  Uiso   1.00
C330   C     0.14541   0.79236   0.45303   0.00000  Uiso   1.00
C331   C     0.14546   0.87435   0.45306   0.00000  Uiso   1.00
C332   C     0.18787   0.79232   0.04694   0.00000  Uiso   1.00
C333   C     0.18938   0.87486   0.09427   0.00000  Uiso   1.00
C334   C     0.14396   0.79180   0.40573   0.00000  Uiso   1.00
C335   C     0.14402   0.87491   0.40576   0.00000  Uiso   1.00
C336   C     0.24584   0.83333   0.24988   0.00000  Uiso   1.00
C337   C     0.18931   0.79175   0.09424   0.00000  Uiso   1.00
C338   C     0.18174   0.83332   0.11739   0.00000  Uiso   1.00
C339   C     0.15159   0.83335   0.38261   0.00000  Uiso   1.00
C340   C     0.17582   0.83333   0.02400   0.00000  Uiso   1.00
C341   C     0.15751   0.83334   0.47600   0.00000  Uiso   1.00
C342   C     0.29051   0.83333   0.24968   0.00000  Uiso   1.00
C343   C     0.04282   0.83333   0.25032   0.00000  Uiso   1.00
C344   C     0.17183   0.83333   0.16544   0.00000  Uiso   1.00
C345   C     0.16151   0.83334   0.33456   0.00000  Uiso   1.00
C346   C     0.13999   0.69135   0.22099   0.00000  Uiso   1.00
C347   C     0.19335   0.97532   0.27901   0.00000  Uiso   1.00
C348   C     0.19335   0.69136   0.27901   0.00000  Uiso   1.00
C349   C     0.13999   0.97531   0.22099   0.00000  Uiso   1.00
C350   C     0.02131   0.79140   0.25028   0.00000  Uiso   1.00
Cl351  Cl    0.21261   0.91894   0.01816   0.00000  Uiso   1.00
Cl352  Cl    0.12072   0.74773   0.48184   0.00000  Uiso   1.00
Cl353  Cl    0.12082   0.91900   0.48189   0.00000  Uiso   1.00
Cl354  Cl    0.21251   0.74766   0.01811   0.00000  Uiso   1.00
Cu355  Cu    0.16667   0.88022   0.25000   0.00000  Uiso   1.00
Cu356  Cu    0.16667   0.78645   0.25000   0.00000  Uiso   1.00
H357   H     0.03727   0.75857   0.25066   0.00000  Uiso   1.00
H358   H     0.29606   0.90809   0.24934   0.00000  Uiso   1.00
H359   H     0.29606   0.75857   0.24938   0.00000  Uiso   1.00
H360   H     0.03727   0.90809   0.25062   0.00000  Uiso   1.00
I361   I     0.09726   0.72609   0.17412   0.00000  Uiso   1.00
I362   I     0.23607   0.94057   0.32588   0.00000  Uiso   1.00
I363   I     0.23606   0.72612   0.32589   0.00000  Uiso   1.00
I364   I     0.09727   0.94055   0.17410   0.00000  Uiso   1.00
I365   I     0.21419   0.93436   0.12896   0.00000  Uiso   1.00
I366   I     0.11914   0.73231   0.37104   0.00000  Uiso   1.00
I367   I     0.11934   0.93448   0.37112   0.00000  Uiso   1.00
I368   I     0.21399   0.73218   0.12888   0.00000  Uiso   1.00
N369   N     0.16667   0.95069   0.25000   0.00000  Uiso   1.00
N370   N     0.16667   0.71598   0.25000   0.00000  Uiso   1.00
O371   O     0.10655   0.87291   0.24999   0.00000  Uiso   1.00
O372   O     0.22679   0.79375   0.25000   0.00000  Uiso   1.00
O373   O     0.22679   0.87291   0.25000   0.00000  Uiso   1.00
O374   O     0.10655   0.79375   0.24999   0.00000  Uiso   1.00
O375   O     0.16666   0.87293   0.18573   0.00000  Uiso   1.00
O376   O     0.16667   0.79374   0.31427   0.00000  Uiso   1.00
O377   O     0.16667   0.87293   0.31427   0.00000  Uiso   1.00
O378   O     0.16666   0.79374   0.18573   0.00000  Uiso   1.00
C379   C     0.42082   0.83333   0.25012   0.00000  Uiso   1.00
C380   C     0.64536   0.87527   0.24972   0.00000  Uiso   1.00
C381   C     0.64536   0.79140   0.24973   0.00000  Uiso   1.00
C382   C     0.35464   0.87527   0.25027   0.00000  Uiso   1.00
C383   C     0.52126   0.87431   0.04697   0.00000  Uiso   1.00
C384   C     0.47874   0.79236   0.45303   0.00000  Uiso   1.00
C385   C     0.47879   0.87435   0.45306   0.00000  Uiso   1.00
C386   C     0.52120   0.79232   0.04694   0.00000  Uiso   1.00
C387   C     0.52271   0.87486   0.09427   0.00000  Uiso   1.00
C388   C     0.47729   0.79180   0.40573   0.00000  Uiso   1.00
C389   C     0.47736   0.87491   0.40576   0.00000  Uiso   1.00
C390   C     0.57918   0.83333   0.24988   0.00000  Uiso   1.00
C391   C     0.52264   0.79175   0.09424   0.00000  Uiso   1.00
C392   C     0.51508   0.83332   0.11739   0.00000  Uiso   1.00
C393   C     0.48492   0.83335   0.38261   0.00000  Uiso   1.00
C394   C     0.50916   0.83333   0.02400   0.00000  Uiso   1.00
C395   C     0.49084   0.83334   0.47600   0.00000  Uiso   1.00
C396   C     0.62385   0.83333   0.24968   0.00000  Uiso   1.00
C397   C     0.37615   0.83333   0.25032   0.00000  Uiso   1.00
C398   C     0.50516   0.83333   0.16544   0.00000  Uiso   1.00
C399   C     0.49484   0.83334   0.33456   0.00000  Uiso   1.00
C400   C     0.47332   0.69135   0.22099   0.00000  Uiso   1.00
C401   C     0.52668   0.97532   0.27901   0.00000  Uiso   1.00
C402   C     0.52668   0.69136   0.27901   0.00000  Uiso   1.00
C403   C     0.47332   0.97531   0.22099   0.00000  Uiso   1.00
C404   C     0.35464   0.79140   0.25028   0.00000  Uiso   1.00
Cl405  Cl    0.54594   0.91894   0.01816   0.00000  Uiso   1.00
Cl406  Cl    0.45405   0.74773   0.48184   0.00000  Uiso   1.00
Cl407  Cl    0.45415   0.91900   0.48189   0.00000  Uiso   1.00
Cl408  Cl    0.54585   0.74766   0.01811   0.00000  Uiso   1.00
Cu409  Cu    0.50000   0.88022   0.25000   0.00000  Uiso   1.00
Cu410  Cu    0.50000   0.78645   0.25000   0.00000  Uiso   1.00
H411   H     0.37061   0.75857   0.25066   0.00000  Uiso   1.00
H412   H     0.62939   0.90809   0.24934   0.00000  Uiso   1.00
H413   H     0.62939   0.75857   0.24938   0.00000  Uiso   1.00
H414   H     0.37061   0.90809   0.25062   0.00000  Uiso   1.00
I415   I     0.43060   0.72609   0.17412   0.00000  Uiso   1.00
I416   I     0.56940   0.94057   0.32588   0.00000  Uiso   1.00
I417   I     0.56940   0.72612   0.32589   0.00000  Uiso   1.00
I418   I     0.43060   0.94055   0.17410   0.00000  Uiso   1.00
I419   I     0.54753   0.93436   0.12896   0.00000  Uiso   1.00
I420   I     0.45248   0.73231   0.37104   0.00000  Uiso   1.00
I421   I     0.45267   0.93448   0.37112   0.00000  Uiso   1.00
I422   I     0.54733   0.73218   0.12888   0.00000  Uiso   1.00
N423   N     0.50000   0.95069   0.25000   0.00000  Uiso   1.00
N424   N     0.50000   0.71598   0.25000   0.00000  Uiso   1.00
O425   O     0.43988   0.87291   0.24999   0.00000  Uiso   1.00
O426   O     0.56012   0.79375   0.25000   0.00000  Uiso   1.00
O427   O     0.56012   0.87291   0.25000   0.00000  Uiso   1.00
O428   O     0.43988   0.79375   0.24999   0.00000  Uiso   1.00
O429   O     0.50000   0.87293   0.18573   0.00000  Uiso   1.00
O430   O     0.50000   0.79374   0.31427   0.00000  Uiso   1.00
O431   O     0.50000   0.87293   0.31427   0.00000  Uiso   1.00
O432   O     0.50000   0.79374   0.18573   0.00000  Uiso   1.00
C433   C     0.75416   0.83333   0.25012   0.00000  Uiso   1.00
C434   C     0.97869   0.87527   0.24972   0.00000  Uiso   1.00
C435   C     0.97869   0.79140   0.24973   0.00000  Uiso   1.00
C436   C     0.68798   0.87527   0.25027   0.00000  Uiso   1.00
C437   C     0.85459   0.87431   0.04697   0.00000  Uiso   1.00
C438   C     0.81207   0.79236   0.45303   0.00000  Uiso   1.00
C439   C     0.81213   0.87435   0.45306   0.00000  Uiso   1.00
C440   C     0.85454   0.79232   0.04694   0.00000  Uiso   1.00
C441   C     0.85604   0.87486   0.09427   0.00000  Uiso   1.00
C442   C     0.81062   0.79180   0.40573   0.00000  Uiso   1.00
C443   C     0.81069   0.87491   0.40576   0.00000  Uiso   1.00
C444   C     0.91251   0.83333   0.24988   0.00000  Uiso   1.00
C445   C     0.85598   0.79175   0.09424   0.00000  Uiso   1.00
C446   C     0.84841   0.83332   0.11739   0.00000  Uiso   1.00
C447   C     0.81826   0.83335   0.38261   0.00000  Uiso   1.00
C448   C     0.84249   0.83333   0.02400   0.00000  Uiso   1.00
C449   C     0.82417   0.83334   0.47600   0.00000  Uiso   1.00
C450   C     0.95718   0.83333   0.24968   0.00000  Uiso   1.00
C451   C     0.70949   0.83333   0.25032   0.00000  Uiso   1.00
C452   C     0.83849   0.83333   0.16544   0.00000  Uiso   1.00
C453   C     0.82817   0.83334   0.33456   0.00000  Uiso   1.00
C454   C     0.80665   0.69135   0.22099   0.00000  Uiso   1.00
C455   C     0.86001   0.97532   0.27901   0.00000  Uiso   1.00
C456   C     0.86001   0.69136   0.27901   0.00000  Uiso   1.00
C457   C     0.80665   0.97531   0.22099   0.00000  Uiso   1.00
C458   C     0.68798   0.79140   0.25028   0.00000  Uiso   1.00
Cl459  Cl    0.87928   0.91894   0.01816   0.00000  Uiso   1.00
Cl460  Cl    0.78739   0.74773   0.48184   0.00000  Uiso   1.00
Cl461  Cl    0.78749   0.91900   0.48189   0.00000  Uiso   1.00
Cl462  Cl    0.87918   0.74766   0.01811   0.00000  Uiso   1.00
Cu463  Cu    0.83333   0.88022   0.25000   0.00000  Uiso   1.00
Cu464  Cu    0.83333   0.78645   0.25000   0.00000  Uiso   1.00
H465   H     0.70394   0.75857   0.25066   0.00000  Uiso   1.00
H466   H     0.96273   0.90809   0.24934   0.00000  Uiso   1.00
H467   H     0.96273   0.75857   0.24938   0.00000  Uiso   1.00
H468   H     0.70394   0.90809   0.25062   0.00000  Uiso   1.00
I469   I     0.76393   0.72609   0.17412   0.00000  Uiso   1.00
I470   I     0.90274   0.94057   0.32588   0.00000  Uiso   1.00
I471   I     0.90273   0.72612   0.32589   0.00000  Uiso   1.00
I472   I     0.76394   0.94055   0.17410   0.00000  Uiso   1.00
I473   I     0.88086   0.93436   0.12896   0.00000  Uiso   1.00
I474   I     0.78581   0.73231   0.37104   0.00000  Uiso   1.00
I475   I     0.78601   0.93448   0.37112   0.00000  Uiso   1.00
I476   I     0.88066   0.73218   0.12888   0.00000  Uiso   1.00
N477   N     0.83333   0.95069   0.25000   0.00000  Uiso   1.00
N478   N     0.83333   0.71598   0.25000   0.00000  Uiso   1.00
O479   O     0.77321   0.87291   0.24999   0.00000  Uiso   1.00
O480   O     0.89345   0.79375   0.25000   0.00000  Uiso   1.00
O481   O     0.89345   0.87291   0.25000   0.00000  Uiso   1.00
O482   O     0.77321   0.79375   0.24999   0.00000  Uiso   1.00
O483   O     0.83333   0.87293   0.18573   0.00000  Uiso   1.00
O484   O     0.83334   0.79374   0.31427   0.00000  Uiso   1.00
O485   O     0.83334   0.87293   0.31427   0.00000  Uiso   1.00
O486   O     0.83333   0.79374   0.18573   0.00000  Uiso   1.00
C487   C     0.08749   0.16667   0.75012   0.00000  Uiso   1.00
C488   C     0.31202   0.20860   0.74972   0.00000  Uiso   1.00
C489   C     0.31202   0.12473   0.74973   0.00000  Uiso   1.00
C490   C     0.02131   0.20860   0.75027   0.00000  Uiso   1.00
C491   C     0.18793   0.20764   0.54697   0.00000  Uiso   1.00
C492   C     0.14541   0.12569   0.95303   0.00000  Uiso   1.00
C493   C     0.14546   0.20768   0.95306   0.00000  Uiso   1.00
C494   C     0.18787   0.12565   0.54694   0.00000  Uiso   1.00
C495   C     0.18938   0.20820   0.59427   0.00000  Uiso   1.00
C496   C     0.14396   0.12514   0.90573   0.00000  Uiso   1.00
C497   C     0.14402   0.20825   0.90576   0.00000  Uiso   1.00
C498   C     0.24584   0.16667   0.74988   0.00000  Uiso   1.00
C499   C     0.18931   0.12509   0.59424   0.00000  Uiso   1.00
C500   C     0.18174   0.16665   0.61739   0.00000  Uiso   1.00
C501   C     0.15159   0.16669   0.88261   0.00000  Uiso   1.00
C502   C     0.17582   0.16666   0.52400   0.00000  Uiso   1.00
C503   C     0.15751   0.16667   0.97600   0.00000  Uiso   1.00
C504   C     0.29051   0.16667   0.74968   0.00000  Uiso   1.00
C505   C     0.04282   0.16667   0.75032   0.00000  Uiso   1.00
C506   C     0.17183   0.16666   0.66544   0.00000  Uiso   1.00
C507   C     0.16151   0.16667   0.83456   0.00000  Uiso   1.00
C508   C     0.13999   0.02468   0.72099   0.00000  Uiso   1.00
C509   C     0.19335   0.30865   0.77901   0.00000  Uiso   1.00
C510   C     0.19335   0.02469   0.77901   0.00000  Uiso   1.00
C511   C     0.13999   0.30864   0.72099   0.00000  Uiso   1.00
C512   C     0.02131   0.12473   0.75028   0.00000  Uiso   1.00
Cl513  Cl    0.21261   0.25227   0.51816   0.00000  Uiso   1.00
Cl514  Cl    0.12072   0.08106   0.98184   0.00000  Uiso   1.00
Cl515  Cl    0.12082   0.25234   0.98189   0.00000  Uiso   1.00
Cl516  Cl    0.21251   0.08100   0.51811   0.00000  Uiso   1.00
Cu517  Cu    0.16667   0.21355   0.75000   0.00000  Uiso   1.00
Cu518  Cu    0.16667   0.11978   0.75000   0.00000  Uiso   1.00
H519   H     0.03727   0.09191   0.75066   0.00000  Uiso   1.00
H520   H     0.29606   0.24143   0.74934   0.00000  Uiso   1.00
H521   H     0.29606   0.09191   0.74938   0.00000  Uiso   1.00
H522   H     0.03727   0.24143   0.75062   0.00000  Uiso   1.00
I523   I     0.09726   0.05943   0.67412   0.00000  Uiso   1.00
I524   I     0.23607   0.27391   0.82588   0.00000  Uiso   1.00
I525   I     0.23606   0.05945   0.82589   0.00000  Uiso   1.00
I526   I     0.09727   0.27388   0.67410   0.00000  Uiso   1.00
I527   I     0.21419   0.26769   0.62896   0.00000  Uiso   1.00
I528   I     0.11914   0.06564   0.87104   0.00000  Uiso   1.00
I529   I     0.11934   0.26782   0.87112   0.00000  Uiso   1.00
I530   I     0.21399   0.06552   0.62888   0.00000  Uiso   1.00
N531   N     0.16667   0.28402   0.75000   0.00000  Uiso   1.00
N532   N     0.16667   0.04931   0.75000   0.00000  Uiso   1.00
O533   O     0.10655   0.20625   0.74999   0.00000  Uiso   1.00
O534   O     0.22679   0.12709   0.75000   0.00000  Uiso   1.00
O535   O     0.22679   0.20625   0.75000   0.00000  Uiso   1.00
O536   O     0.10655   0.12709   0.74999   0.00000  Uiso   1.00
O537   O     0.16666   0.20626   0.68573   0.00000  Uiso   1.00
O538   O     0.16667   0.12707   0.81427   0.00000  Uiso   1.00
O539   O     0.16667   0.20626   0.81427   0.00000  Uiso   1.00
O540   O     0.16666   0.12707   0.68573   0.00000  Uiso   1.00
C541   C     0.42082   0.16667   0.75012   0.00000  Uiso   1.00
C542   C     0.64536   0.20860   0.74972   0.00000  Uiso   1.00
C543   C     0.64536   0.12473   0.74973   0.00000  Uiso   1.00
C544   C     0.35464   0.20860   0.75027   0.00000  Uiso   1.00
C545   C     0.52126   0.20764   0.54697   0.00000  Uiso   1.00
C546   C     0.47874   0.12569   0.95303   0.00000  Uiso   1.00
C547   C     0.47879   0.20768   0.95306   0.00000  Uiso   1.00
C548   C     0.52120   0.12565   0.54694   0.00000  Uiso   1.00
C549   C     0.52271   0.20820   0.59427   0.00000  Uiso   1.00
C550   C     0.47729   0.12514   0.90573   0.00000  Uiso   1.00
C551   C     0.47736   0.20825   0.90576   0.00000  Uiso   1.00
C552   C     0.57918   0.16667   0.74988   0.00000  Uiso   1.00
C553   C     0.52264   0.12509   0.59424   0.00000  Uiso   1.00
C554   C     0.51508   0.16665   0.61739   0.00000  Uiso   1.00
C555   C     0.48492   0.16669   0.88261   0.00000  Uiso   1.00
C556   C     0.50916   0.16666   0.52400   0.00000  Uiso   1.00
C557   C     0.49084   0.16667   0.97600   0.00000  Uiso   1.00
C558   C     0.62385   0.16667   0.74968   0.00000  Uiso   1.00
C559   C     0.37615   0.16667   0.75032   0.00000  Uiso   1.00
C560   C     0.50516   0.16666   0.66544   0.00000  Uiso   1.00
C561   C     0.49484   0.16667   0.83456   0.00000  Uiso   1.00
C562   C     0.47332   0.02468   0.72099   0.00000  Uiso   1.00
C563   C     0.52668   0.30865   0.77901   0.00000  Uiso   1.00
C564   C     0.52668   0.02469   0.77901   0.00000  Uiso   1.00
C565   C     0.47332   0.30864   0.72099   0.00000  Uiso   1.00
C566   C     0.35464   0.12473   0.75028   0.00000  Uiso   1.00
Cl567  Cl    0.54594   0.25227   0.51816   0.00000  Uiso   1.00
Cl568  Cl    0.45405   0.08106   0.98184   0.00000  Uiso   1.00
Cl569  Cl    0.45415   0.25234   0.98189   0.00000  Uiso   1.00
Cl570  Cl    0.54585   0.08100   0.51811   0.00000  Uiso   1.00
Cu571  Cu    0.50000   0.21355   0.75000   0.00000  Uiso   1.00
Cu572  Cu    0.50000   0.11978   0.75000   0.00000  Uiso   1.00
H573   H     0.37061   0.09191   0.75066   0.00000  Uiso   1.00
H574   H     0.62939   0.24143   0.74934   0.00000  Uiso   1.00
H575   H     0.62939   0.09191   0.74938   0.00000  Uiso   1.00
H576   H     0.37061   0.24143   0.75062   0.00000  Uiso   1.00
I577   I     0.43060   0.05943   0.67412   0.00000  Uiso   1.00
I578   I     0.56940   0.27391   0.82588   0.00000  Uiso   1.00
I579   I     0.56940   0.05945   0.82589   0.00000  Uiso   1.00
I580   I     0.43060   0.27388   0.67410   0.00000  Uiso   1.00
I581   I     0.54753   0.26769   0.62896   0.00000  Uiso   1.00
I582   I     0.45248   0.06564   0.87104   0.00000  Uiso   1.00
I583   I     0.45267   0.26782   0.87112   0.00000  Uiso   1.00
I584   I     0.54733   0.06552   0.62888   0.00000  Uiso   1.00
N585   N     0.50000   0.28402   0.75000   0.00000  Uiso   1.00
N586   N     0.50000   0.04931   0.75000   0.00000  Uiso   1.00
O587   O     0.43988   0.20625   0.74999   0.00000  Uiso   1.00
O588   O     0.56012   0.12709   0.75000   0.00000  Uiso   1.00
O589   O     0.56012   0.20625   0.75000   0.00000  Uiso   1.00
O590   O     0.43988   0.12709   0.74999   0.00000  Uiso   1.00
O591   O     0.50000   0.20626   0.68573   0.00000  Uiso   1.00
O592   O     0.50000   0.12707   0.81427   0.00000  Uiso   1.00
O593   O     0.50000   0.20626   0.81427   0.00000  Uiso   1.00
O594   O     0.50000   0.12707   0.68573   0.00000  Uiso   1.00
C595   C     0.75416   0.16667   0.75012   0.00000  Uiso   1.00
C596   C     0.97869   0.20860   0.74972   0.00000  Uiso   1.00
C597   C     0.97869   0.12473   0.74973   0.00000  Uiso   1.00
C598   C     0.68798   0.20860   0.75027   0.00000  Uiso   1.00
C599   C     0.85459   0.20764   0.54697   0.00000  Uiso   1.00
C600   C     0.81207   0.12569   0.95303   0.00000  Uiso   1.00
C601   C     0.81213   0.20768   0.95306   0.00000  Uiso   1.00
C602   C     0.85454   0.12565   0.54694   0.00000  Uiso   1.00
C603   C     0.85604   0.20820   0.59427   0.00000  Uiso   1.00
C604   C     0.81062   0.12514   0.90573   0.00000  Uiso   1.00
C605   C     0.81069   0.20825   0.90576   0.00000  Uiso   1.00
C606   C     0.91251   0.16667   0.74988   0.00000  Uiso   1.00
C607   C     0.85598   0.12509   0.59424   0.00000  Uiso   1.00
C608   C     0.84841   0.16665   0.61739   0.00000  Uiso   1.00
C609   C     0.81826   0.16669   0.88261   0.00000  Uiso   1.00
C610   C     0.84249   0.16666   0.52400   0.00000  Uiso   1.00
C611   C     0.82417   0.16667   0.97600   0.00000  Uiso   1.00
C612   C     0.95718   0.16667   0.74968   0.00000  Uiso   1.00
C613   C     0.70949   0.16667   0.75032   0.00000  Uiso   1.00
C614   C     0.83849   0.16666   0.66544   0.00000  Uiso   1.00
C615   C     0.82817   0.16667   0.83456   0.00000  Uiso   1.00
C616   C     0.80665   0.02468   0.72099   0.00000  Uiso   1.00
C617   C     0.86001   0.30865   0.77901   0.00000  Uiso   1.00
C618   C     0.86001   0.02469   0.77901   0.00000  Uiso   1.00
C619   C     0.80665   0.30864   0.72099   0.00000  Uiso   1.00
C620   C     0.68798   0.12473   0.75028   0.00000  Uiso   1.00
Cl621  Cl    0.87928   0.25227   0.51816   0.00000  Uiso   1.00
Cl622  Cl    0.78739   0.08106   0.98184   0.00000  Uiso   1.00
Cl623  Cl    0.78749   0.25234   0.98189   0.00000  Uiso   1.00
Cl624  Cl    0.87918   0.08100   0.51811   0.00000  Uiso   1.00
Cu625  Cu    0.83333   0.21355   0.75000   0.00000  Uiso   1.00
Cu626  Cu    0.83333   0.11978   0.75000   0.00000  Uiso   1.00
H627   H     0.70394   0.09191   0.75066   0.00000  Uiso   1.00
H628   H     0.96273   0.24143   0.74934   0.00000  Uiso   1.00
H629   H     0.96273   0.09191   0.74938   0.00000  Uiso   1.00
H630   H     0.70394   0.24143   0.75062   0.00000  Uiso   1.00
I631   I     0.76393   0.05943   0.67412   0.00000  Uiso   1.00
I632   I     0.90274   0.27391   0.82588   0.00000  Uiso   1.00
I633   I     0.90273   0.05945   0.82589   0.00000  Uiso   1.00
I634   I     0.76394   0.27388   0.67410   0.00000  Uiso   1.00
I635   I     0.88086   0.26769   0.62896   0.00000  Uiso   1.00
I636   I     0.78581   0.06564   0.87104   0.00000  Uiso   1.00
I637   I     0.78601   0.26782   0.87112   0.00000  Uiso   1.00
I638   I     0.88066   0.06552   0.62888   0.00000  Uiso   1.00
N639   N     0.83333   0.28402   0.75000   0.00000  Uiso   1.00
N640   N     0.83333   0.04931   0.75000   0.00000  Uiso   1.00
O641   O     0.77321   0.20625   0.74999   0.00000  Uiso   1.00
O642   O     0.89345   0.12709   0.75000   0.00000  Uiso   1.00
O643   O     0.89345   0.20625   0.75000   0.00000  Uiso   1.00
O644   O     0.77321   0.12709   0.74999   0.00000  Uiso   1.00
O645   O     0.83333   0.20626   0.68573   0.00000  Uiso   1.00
O646   O     0.83334   0.12707   0.81427   0.00000  Uiso   1.00
O647   O     0.83334   0.20626   0.81427   0.00000  Uiso   1.00
O648   O     0.83333   0.12707   0.68573   0.00000  Uiso   1.00
C649   C     0.08749   0.50000   0.75012   0.00000  Uiso   1.00
C650   C     0.31202   0.54193   0.74972   0.00000  Uiso   1.00
C651   C     0.31202   0.45807   0.74973   0.00000  Uiso   1.00
C652   C     0.02131   0.54193   0.75027   0.00000  Uiso   1.00
C653   C     0.18793   0.54098   0.54697   0.00000  Uiso   1.00
C654   C     0.14541   0.45902   0.95303   0.00000  Uiso   1.00
C655   C     0.14546   0.54101   0.95306   0.00000  Uiso   1.00
C656   C     0.18787   0.45899   0.54694   0.00000  Uiso   1.00
C657   C     0.18938   0.54153   0.59427   0.00000  Uiso   1.00
C658   C     0.14396   0.45847   0.90573   0.00000  Uiso   1.00
C659   C     0.14402   0.54158   0.90576   0.00000  Uiso   1.00
C660   C     0.24584   0.50000   0.74988   0.00000  Uiso   1.00
C661   C     0.18931   0.45842   0.59424   0.00000  Uiso   1.00
C662   C     0.18174   0.49998   0.61739   0.00000  Uiso   1.00
C663   C     0.15159   0.50002   0.88261   0.00000  Uiso   1.00
C664   C     0.17582   0.49999   0.52400   0.00000  Uiso   1.00
C665   C     0.15751   0.50001   0.97600   0.00000  Uiso   1.00
C666   C     0.29051   0.50000   0.74968   0.00000  Uiso   1.00
C667   C     0.04282   0.50000   0.75032   0.00000  Uiso   1.00
C668   C     0.17183   0.49999   0.66544   0.00000  Uiso   1.00
C669   C     0.16151   0.50001   0.83456   0.00000  Uiso   1.00
C670   C     0.13999   0.35802   0.72099   0.00000  Uiso   1.00
C671   C     0.19335   0.64198   0.77901   0.00000  Uiso   1.00
C672   C     0.19335   0.35803   0.77901   0.00000  Uiso   1.00
C673   C     0.13999   0.64197   0.72099   0.00000  Uiso   1.00
C674   C     0.02131   0.45807   0.75028   0.00000  Uiso   1.00
Cl675  Cl    0.21261   0.58561   0.51816   0.00000  Uiso   1.00
Cl676  Cl    0.12072   0.41439   0.98184   0.00000  Uiso   1.00
Cl677  Cl    0.12082   0.58567   0.98189   0.00000  Uiso   1.00
Cl678  Cl    0.21251   0.41433   0.51811   0.00000  Uiso   1.00
Cu679  Cu    0.16667   0.54689   0.75000   0.00000  Uiso   1.00
Cu680  Cu    0.16667   0.45311   0.75000   0.00000  Uiso   1.00
H681   H     0.03727   0.42524   0.75066   0.00000  Uiso   1.00
H682   H     0.29606   0.57476   0.74934   0.00000  Uiso   1.00
H683   H     0.29606   0.42524   0.74938   0.00000  Uiso   1.00
H684   H     0.03727   0.57476   0.75062   0.00000  Uiso   1.00
I685   I     0.09726   0.39276   0.67412   0.00000  Uiso   1.00
I686   I     0.23607   0.60724   0.82588   0.00000  Uiso   1.00
I687   I     0.23606   0.39279   0.82589   0.00000  Uiso   1.00
I688   I     0.09727   0.60722   0.67410   0.00000  Uiso   1.00
I689   I     0.21419   0.60102   0.62896   0.00000  Uiso   1.00
I690   I     0.11914   0.39898   0.87104   0.00000  Uiso   1.00
I691   I     0.11934   0.60115   0.87112   0.00000  Uiso   1.00
I692   I     0.21399   0.39885   0.62888   0.00000  Uiso   1.00
N693   N     0.16667   0.61736   0.75000   0.00000  Uiso   1.00
N694   N     0.16667   0.38264   0.75000   0.00000  Uiso   1.00
O695   O     0.10655   0.53958   0.74999   0.00000  Uiso   1.00
O696   O     0.22679   0.46042   0.75000   0.00000  Uiso   1.00
O697   O     0.22679   0.53958   0.75000   0.00000  Uiso   1.00
O698   O     0.10655   0.46042   0.74999   0.00000  Uiso   1.00
O699   O     0.16666   0.53959   0.68573   0.00000  Uiso   1.00
O700   O     0.16667   0.46041   0.81427   0.00000  Uiso   1.00
O701   O     0.16667   0.53959   0.81427   0.00000  Uiso   1.00
O702   O     0.16666   0.46041   0.68573   0.00000  Uiso   1.00
C703   C     0.42082   0.50000   0.75012   0.00000  Uiso   1.00
C704   C     0.64536   0.54193   0.74972   0.00000  Uiso   1.00
C705   C     0.64536   0.45807   0.74973   0.00000  Uiso   1.00
C706   C     0.35464   0.54193   0.75027   0.00000  Uiso   1.00
C707   C     0.52126   0.54098   0.54697   0.00000  Uiso   1.00
C708   C     0.47874   0.45902   0.95303   0.00000  Uiso   1.00
C709   C     0.47879   0.54101   0.95306   0.00000  Uiso   1.00
C710   C     0.52120   0.45899   0.54694   0.00000  Uiso   1.00
C711   C     0.52271   0.54153   0.59427   0.00000  Uiso   1.00
C712   C     0.47729   0.45847   0.90573   0.00000  Uiso   1.00
C713   C     0.47736   0.54158   0.90576   0.00000  Uiso   1.00
C714   C     0.57918   0.50000   0.74988   0.00000  Uiso   1.00
C715   C     0.52264   0.45842   0.59424   0.00000  Uiso   1.00
C716   C     0.51508   0.49998   0.61739   0.00000  Uiso   1.00
C717   C     0.48492   0.50002   0.88261   0.00000  Uiso   1.00
C718   C     0.50916   0.49999   0.52400   0.00000  Uiso   1.00
C719   C     0.49084   0.50001   0.97600   0.00000  Uiso   1.00
C720   C     0.62385   0.50000   0.74968   0.00000  Uiso   1.00
C721   C     0.37615   0.50000   0.75032   0.00000  Uiso   1.00
C722   C     0.50516   0.49999   0.66544   0.00000  Uiso   1.00
C723   C     0.49484   0.50001   0.83456   0.00000  Uiso   1.00
C724   C     0.47332   0.35802   0.72099   0.00000  Uiso   1.00
C725   C     0.52668   0.64198   0.77901   0.00000  Uiso   1.00
C726   C     0.52668   0.35803   0.77901   0.00000  Uiso   1.00
C727   C     0.47332   0.64197   0.72099   0.00000  Uiso   1.00
C728   C     0.35464   0.45807   0.75028   0.00000  Uiso   1.00
Cl729  Cl    0.54594   0.58561   0.51816   0.00000  Uiso   1.00
Cl730  Cl    0.45405   0.41439   0.98184   0.00000  Uiso   1.00
Cl731  Cl    0.45415   0.58567   0.98189   0.00000  Uiso   1.00
Cl732  Cl    0.54585   0.41433   0.51811   0.00000  Uiso   1.00
Cu733  Cu    0.50000   0.54689   0.75000   0.00000  Uiso   1.00
Cu734  Cu    0.50000   0.45311   0.75000   0.00000  Uiso   1.00
H735   H     0.37061   0.42524   0.75066   0.00000  Uiso   1.00
H736   H     0.62939   0.57476   0.74934   0.00000  Uiso   1.00
H737   H     0.62939   0.42524   0.74938   0.00000  Uiso   1.00
H738   H     0.37061   0.57476   0.75062   0.00000  Uiso   1.00
I739   I     0.43060   0.39276   0.67412   0.00000  Uiso   1.00
I740   I     0.56940   0.60724   0.82588   0.00000  Uiso   1.00
I741   I     0.56940   0.39279   0.82589   0.00000  Uiso   1.00
I742   I     0.43060   0.60722   0.67410   0.00000  Uiso   1.00
I743   I     0.54753   0.60102   0.62896   0.00000  Uiso   1.00
I744   I     0.45248   0.39898   0.87104   0.00000  Uiso   1.00
I745   I     0.45267   0.60115   0.87112   0.00000  Uiso   1.00
I746   I     0.54733   0.39885   0.62888   0.00000  Uiso   1.00
N747   N     0.50000   0.61736   0.75000   0.00000  Uiso   1.00
N748   N     0.50000   0.38264   0.75000   0.00000  Uiso   1.00
O749   O     0.43988   0.53958   0.74999   0.00000  Uiso   1.00
O750   O     0.56012   0.46042   0.75000   0.00000  Uiso   1.00
O751   O     0.56012   0.53958   0.75000   0.00000  Uiso   1.00
O752   O     0.43988   0.46042   0.74999   0.00000  Uiso   1.00
O753   O     0.50000   0.53959   0.68573   0.00000  Uiso   1.00
O754   O     0.50000   0.46041   0.81427   0.00000  Uiso   1.00
O755   O     0.50000   0.53959   0.81427   0.00000  Uiso   1.00
O756   O     0.50000   0.46041   0.68573   0.00000  Uiso   1.00
C757   C     0.75416   0.50000   0.75012   0.00000  Uiso   1.00
C758   C     0.97869   0.54193   0.74972   0.00000  Uiso   1.00
C759   C     0.97869   0.45807   0.74973   0.00000  Uiso   1.00
C760   C     0.68798   0.54193   0.75027   0.00000  Uiso   1.00
C761   C     0.85459   0.54098   0.54697   0.00000  Uiso   1.00
C762   C     0.81207   0.45902   0.95303   0.00000  Uiso   1.00
C763   C     0.81213   0.54101   0.95306   0.00000  Uiso   1.00
C764   C     0.85454   0.45899   0.54694   0.00000  Uiso   1.00
C765   C     0.85604   0.54153   0.59427   0.00000  Uiso   1.00
C766   C     0.81062   0.45847   0.90573   0.00000  Uiso   1.00
C767   C     0.81069   0.54158   0.90576   0.00000  Uiso   1.00
C768   C     0.91251   0.50000   0.74988   0.00000  Uiso   1.00
C769   C     0.85598   0.45842   0.59424   0.00000  Uiso   1.00
C770   C     0.84841   0.49998   0.61739   0.00000  Uiso   1.00
C771   C     0.81826   0.50002   0.88261   0.00000  Uiso   1.00
C772   C     0.84249   0.49999   0.52400   0.00000  Uiso   1.00
C773   C     0.82417   0.50001   0.97600   0.00000  Uiso   1.00
C774   C     0.95718   0.50000   0.74968   0.00000  Uiso   1.00
C775   C     0.70949   0.50000   0.75032   0.00000  Uiso   1.00
C776   C     0.83849   0.49999   0.66544   0.00000  Uiso   1.00
C777   C     0.82817   0.50001   0.83456   0.00000  Uiso   1.00
C778   C     0.80665   0.35802   0.72099   0.00000  Uiso   1.00
C779   C     0.86001   0.64198   0.77901   0.00000  Uiso   1.00
C780   C     0.86001   0.35803   0.77901   0.00000  Uiso   1.00
C781   C     0.80665   0.64197   0.72099   0.00000  Uiso   1.00
C782   C     0.68798   0.45807   0.75028   0.00000  Uiso   1.00
Cl783  Cl    0.87928   0.58561   0.51816   0.00000  Uiso   1.00
Cl784  Cl    0.78739   0.41439   0.98184   0.00000  Uiso   1.00
Cl785  Cl    0.78749   0.58567   0.98189   0.00000  Uiso   1.00
Cl786  Cl    0.87918   0.41433   0.51811   0.00000  Uiso   1.00
Cu787  Cu    0.83333   0.54689   0.75000   0.00000  Uiso   1.00
Cu788  Cu    0.83333   0.45311   0.75000   0.00000  Uiso   1.00
H789   H     0.70394   0.42524   0.75066   0.00000  Uiso   1.00
H790   H     0.96273   0.57476   0.74934   0.00000  Uiso   1.00
H791   H     0.96273   0.42524   0.74938   0.00000  Uiso   1.00
H792   H     0.70394   0.57476   0.75062   0.00000  Uiso   1.00
I793   I     0.76393   0.39276   0.67412   0.00000  Uiso   1.00
I794   I     0.90274   0.60724   0.82588   0.00000  Uiso   1.00
I795   I     0.90273   0.39279   0.82589   0.00000  Uiso   1.00
I796   I     0.76394   0.60722   0.67410   0.00000  Uiso   1.00
I797   I     0.88086   0.60102   0.62896   0.00000  Uiso   1.00
I798   I     0.78581   0.39898   0.87104   0.00000  Uiso   1.00
I799   I     0.78601   0.60115   0.87112   0.00000  Uiso   1.00
I800   I     0.88066   0.39885   0.62888   0.00000  Uiso   1.00
N801   N     0.83333   0.61736   0.75000   0.00000  Uiso   1.00
N802   N     0.83333   0.38264   0.75000   0.00000  Uiso   1.00
O803   O     0.77321   0.53958   0.74999   0.00000  Uiso   1.00
O804   O     0.89345   0.46042   0.75000   0.00000  Uiso   1.00
O805   O     0.89345   0.53958   0.75000   0.00000  Uiso   1.00
O806   O     0.77321   0.46042   0.74999   0.00000  Uiso   1.00
O807   O     0.83333   0.53959   0.68573   0.00000  Uiso   1.00
O808   O     0.83334   0.46041   0.81427   0.00000  Uiso   1.00
O809   O     0.83334   0.53959   0.81427   0.00000  Uiso   1.00
O810   O     0.83333   0.46041   0.68573   0.00000  Uiso   1.00
C811   C     0.08749   0.83333   0.75012   0.00000  Uiso   1.00
C812   C     0.31202   0.87527   0.74972   0.00000  Uiso   1.00
C813   C     0.31202   0.79140   0.74973   0.00000  Uiso   1.00
C814   C     0.02131   0.87527   0.75027   0.00000  Uiso   1.00
C815   C     0.18793   0.87431   0.54697   0.00000  Uiso   1.00
C816   C     0.14541   0.79236   0.95303   0.00000  Uiso   1.00
C817   C     0.14546   0.87435   0.95306   0.00000  Uiso   1.00
C818   C     0.18787   0.79232   0.54694   0.00000  Uiso   1.00
C819   C     0.18938   0.87486   0.59427   0.00000  Uiso   1.00
C820   C     0.14396   0.79180   0.90573   0.00000  Uiso   1.00
C821   C     0.14402   0.87491   0.90576   0.00000  Uiso   1.00
C822   C     0.24584   0.83333   0.74988   0.00000  Uiso   1.00
C823   C     0.18931   0.79175   0.59424   0.00000  Uiso   1.00
C824   C     0.18174   0.83332   0.61739   0.00000  Uiso   1.00
C825   C     0.15159   0.83335   0.88261   0.00000  Uiso   1.00
C826   C     0.17582   0.83333   0.52400   0.00000  Uiso   1.00
C827   C     0.15751   0.83334   0.97600   0.00000  Uiso   1.00
C828   C     0.29051   0.83333   0.74968   0.00000  Uiso   1.00
C829   C     0.04282   0.83333   0.75032   0.00000  Uiso   1.00
C830   C     0.17183   0.83333   0.66544   0.00000  Uiso   1.00
C831   C     0.16151   0.83334   0.83456   0.00000  Uiso   1.00
C832   C     0.13999   0.69135   0.72099   0.00000  Uiso   1.00
C833   C     0.19335   0.97532   0.77901   0.00000  Uiso   1.00
C834   C     0.19335   0.69136   0.77901   0.00000  Uiso   1.00
C835   C     0.13999   0.97531   0.72099   0.00000  Uiso   1.00
C836   C     0.02131   0.79140   0.75028   0.00000  Uiso   1.00
Cl837  Cl    0.21261   0.91894   0.51816   0.00000  Uiso   1.00
Cl838  Cl    0.12072   0.74773   0.98184   0.00000  Uiso   1.00
Cl839  Cl    0.12082   0.91900   0.98189   0.00000  Uiso   1.00
Cl840  Cl    0.21251   0.74766   0.51811   0.00000  Uiso   1.00
Cu841  Cu    0.16667   0.88022   0.75000   0.00000  Uiso   1.00
Cu842  Cu    0.16667   0.78645   0.75000   0.00000  Uiso   1.00
H843   H     0.03727   0.75857   0.75066   0.00000  Uiso   1.00
H844   H     0.29606   0.90809   0.74934   0.00000  Uiso   1.00
H845   H     0.29606   0.75857   0.74938   0.00000  Uiso   1.00
H846   H     0.03727   0.90809   0.75062   0.00000  Uiso   1.00
I847   I     0.09726   0.72609   0.67412   0.00000  Uiso   1.00
I848   I     0.23607   0.94057   0.82588   0.00000  Uiso   1.00
I849   I     0.23606   0.72612   0.82589   0.00000  Uiso   1.00
I850   I     0.09727   0.94055   0.67410   0.00000  Uiso   1.00
I851   I     0.21419   0.93436   0.62896   0.00000  Uiso   1.00
I852   I     0.11914   0.73231   0.87104   0.00000  Uiso   1.00
I853   I     0.11934   0.93448   0.87112   0.00000  Uiso   1.00
I854   I     0.21399   0.73218   0.62888   0.00000  Uiso   1.00
N855   N     0.16667   0.95069   0.75000   0.00000  Uiso   1.00
N856   N     0.16667   0.71598   0.75000   0.00000  Uiso   1.00
O857   O     0.10655   0.87291   0.74999   0.00000  Uiso   1.00
O858   O     0.22679   0.79375   0.75000   0.00000  Uiso   1.00
O859   O     0.22679   0.87291   0.75000   0.00000  Uiso   1.00
O860   O     0.10655   0.79375   0.74999   0.00000  Uiso   1.00
O861   O     0.16666   0.87293   0.68573   0.00000  Uiso   1.00
O862   O     0.16667   0.79374   0.81427   0.00000  Uiso   1.00
O863   O     0.16667   0.87293   0.81427   0.00000  Uiso   1.00
O864   O     0.16666   0.79374   0.68573   0.00000  Uiso   1.00
C865   C     0.42082   0.83333   0.75012   0.00000  Uiso   1.00
C866   C     0.64536   0.87527   0.74972   0.00000  Uiso   1.00
C867   C     0.64536   0.79140   0.74973   0.00000  Uiso   1.00
C868   C     0.35464   0.87527   0.75027   0.00000  Uiso   1.00
C869   C     0.52126   0.87431   0.54697   0.00000  Uiso   1.00
C870   C     0.47874   0.79236   0.95303   0.00000  Uiso   1.00
C871   C     0.47879   0.87435   0.95306   0.00000  Uiso   1.00
C872   C     0.52120   0.79232   0.54694   0.00000  Uiso   1.00
C873   C     0.52271   0.87486   0.59427   0.00000  Uiso   1.00
C874   C     0.47729   0.79180   0.90573   0.00000  Uiso   1.00
C875   C     0.47736   0.87491   0.90576   0.00000  Uiso   1.00
C876   C     0.57918   0.83333   0.74988   0.00000  Uiso   1.00
C877   C     0.52264   0.79175   0.59424   0.00000  Uiso   1.00
C878   C     0.51508   0.83332   0.61739   0.00000  Uiso   1.00
C879   C     0.48492   0.83335   0.88261   0.00000  Uiso   1.00
C880   C     0.50916   0.83333   0.52400   0.00000  Uiso   1.00
C881   C     0.49084   0.83334   0.97600   0.00000  Uiso   1.00
C882   C     0.62385   0.83333   0.74968   0.00000  Uiso   1.00
C883   C     0.37615   0.83333   0.75032   0.00000  Uiso   1.00
C884   C     0.50516   0.83333   0.66544   0.00000  Uiso   1.00
C885   C     0.49484   0.83334   0.83456   0.00000  Uiso   1.00
C886   C     0.47332   0.69135   0.72099   0.00000  Uiso   1.00
C887   C     0.52668   0.97532   0.77901   0.00000  Uiso   1.00
C888   C     0.52668   0.69136   0.77901   0.00000  Uiso   1.00
C889   C     0.47332   0.97531   0.72099   0.00000  Uiso   1.00
C890   C     0.35464   0.79140   0.75028   0.00000  Uiso   1.00
Cl891  Cl    0.54594   0.91894   0.51816   0.00000  Uiso   1.00
Cl892  Cl    0.45405   0.74773   0.98184   0.00000  Uiso   1.00
Cl893  Cl    0.45415   0.91900   0.98189   0.00000  Uiso   1.00
Cl894  Cl    0.54585   0.74766   0.51811   0.00000  Uiso   1.00
Cu895  Cu    0.50000   0.88022   0.75000   0.00000  Uiso   1.00
Cu896  Cu    0.50000   0.78645   0.75000   0.00000  Uiso   1.00
H897   H     0.37061   0.75857   0.75066   0.00000  Uiso   1.00
H898   H     0.62939   0.90809   0.74934   0.00000  Uiso   1.00
H899   H     0.62939   0.75857   0.74938   0.00000  Uiso   1.00
H900   H     0.37061   0.90809   0.75062   0.00000  Uiso   1.00
I901   I     0.43060   0.72609   0.67412   0.00000  Uiso   1.00
I902   I     0.56940   0.94057   0.82588   0.00000  Uiso   1.00
I903   I     0.56940   0.72612   0.82589   0.00000  Uiso   1.00
I904   I     0.43060   0.94055   0.67410   0.00000  Uiso   1.00
I905   I     0.54753   0.93436   0.62896   0.00000  Uiso   1.00
I906   I     0.45248   0.73231   0.87104   0.00000  Uiso   1.00
I907   I     0.45267   0.93448   0.87112   0.00000  Uiso   1.00
I908   I     0.54733   0.73218   0.62888   0.00000  Uiso   1.00
N909   N     0.50000   0.95069   0.75000   0.00000  Uiso   1.00
N910   N     0.50000   0.71598   0.75000   0.00000  Uiso   1.00
O911   O     0.43988   0.87291   0.74999   0.00000  Uiso   1.00
O912   O     0.56012   0.79375   0.75000   0.00000  Uiso   1.00
O913   O     0.56012   0.87291   0.75000   0.00000  Uiso   1.00
O914   O     0.43988   0.79375   0.74999   0.00000  Uiso   1.00
O915   O     0.50000   0.87293   0.68573   0.00000  Uiso   1.00
O916   O     0.50000   0.79374   0.81427   0.00000  Uiso   1.00
O917   O     0.50000   0.87293   0.81427   0.00000  Uiso   1.00
O918   O     0.50000   0.79374   0.68573   0.00000  Uiso   1.00
C919   C     0.75416   0.83333   0.75012   0.00000  Uiso   1.00
C920   C     0.97869   0.87527   0.74972   0.00000  Uiso   1.00
C921   C     0.97869   0.79140   0.74973   0.00000  Uiso   1.00
C922   C     0.68798   0.87527   0.75027   0.00000  Uiso   1.00
C923   C     0.85459   0.87431   0.54697   0.00000  Uiso   1.00
C924   C     0.81207   0.79236   0.95303   0.00000  Uiso   1.00
C925   C     0.81213   0.87435   0.95306   0.00000  Uiso   1.00
C926   C     0.85454   0.79232   0.54694   0.00000  Uiso   1.00
C927   C     0.85604   0.87486   0.59427   0.00000  Uiso   1.00
C928   C     0.81062   0.79180   0.90573   0.00000  Uiso   1.00
C929   C     0.81069   0.87491   0.90576   0.00000  Uiso   1.00
C930   C     0.91251   0.83333   0.74988   0.00000  Uiso   1.00
C931   C     0.85598   0.79175   0.59424   0.00000  Uiso   1.00
C932   C     0.84841   0.83332   0.61739   0.00000  Uiso   1.00
C933   C     0.81826   0.83335   0.88261   0.00000  Uiso   1.00
C934   C     0.84249   0.83333   0.52400   0.00000  Uiso   1.00
C935   C     0.82417   0.83334   0.97600   0.00000  Uiso   1.00
C936   C     0.95718   0.83333   0.74968   0.00000  Uiso   1.00
C937   C     0.70949   0.83333   0.75032   0.00000  Uiso   1.00
C938   C     0.83849   0.83333   0.66544   0.00000  Uiso   1.00
C939   C     0.82817   0.83334   0.83456   0.00000  Uiso   1.00
C940   C     0.80665   0.69135   0.72099   0.00000  Uiso   1.00
C941   C     0.86001   0.97532   0.77901   0.00000  Uiso   1.00
C942   C     0.86001   0.69136   0.77901   0.00000  Uiso   1.00
C943   C     0.80665   0.97531   0.72099   0.00000  Uiso   1.00
C944   C     0.68798   0.79140   0.75028   0.00000  Uiso   1.00
Cl945  Cl    0.87928   0.91894   0.51816   0.00000  Uiso   1.00
Cl946  Cl    0.78739   0.74773   0.98184   0.00000  Uiso   1.00
Cl947  Cl    0.78749   0.91900   0.98189   0.00000  Uiso   1.00
Cl948  Cl    0.87918   0.74766   0.51811   0.00000  Uiso   1.00
Cu949  Cu    0.83333   0.88022   0.75000   0.00000  Uiso   1.00
Cu950  Cu    0.83333   0.78645   0.75000   0.00000  Uiso   1.00
H951   H     0.70394   0.75857   0.75066   0.00000  Uiso   1.00
H952   H     0.96273   0.90809   0.74934   0.00000  Uiso   1.00
H953   H     0.96273   0.75857   0.74938   0.00000  Uiso   1.00
H954   H     0.70394   0.90809   0.75062   0.00000  Uiso   1.00
I955   I     0.76393   0.72609   0.67412   0.00000  Uiso   1.00
I956   I     0.90274   0.94057   0.82588   0.00000  Uiso   1.00
I957   I     0.90273   0.72612   0.82589   0.00000  Uiso   1.00
I958   I     0.76394   0.94055   0.67410   0.00000  Uiso   1.00
I959   I     0.88086   0.93436   0.62896   0.00000  Uiso   1.00
I960   I     0.78581   0.73231   0.87104   0.00000  Uiso   1.00
I961   I     0.78601   0.93448   0.87112   0.00000  Uiso   1.00
I962   I     0.88066   0.73218   0.62888   0.00000  Uiso   1.00
N963   N     0.83333   0.95069   0.75000   0.00000  Uiso   1.00
N964   N     0.83333   0.71598   0.75000   0.00000  Uiso   1.00
O965   O     0.77321   0.87291   0.74999   0.00000  Uiso   1.00
O966   O     0.89345   0.79375   0.75000   0.00000  Uiso   1.00
O967   O     0.89345   0.87291   0.75000   0.00000  Uiso   1.00
O968   O     0.77321   0.79375   0.74999   0.00000  Uiso   1.00
O969   O     0.83333   0.87293   0.68573   0.00000  Uiso   1.00
O970   O     0.83334   0.79374   0.81427   0.00000  Uiso   1.00
O971   O     0.83334   0.87293   0.81427   0.00000  Uiso   1.00
O972   O     0.83333   0.79374   0.68573   0.00000  Uiso   1.00
loop_
_geom_bond_atom_site_label_1
_geom_bond_atom_site_label_2
_geom_bond_distance
_geom_bond_site_symmetry_2
_ccdc_geom_bond_type
C1     O50     1.303   .     A
C1     C19     1.451   .     S
C1     O47     1.303   .     A
C2     C18     1.401   .     A
C2     H34     1.083   .     S
C2     C58     1.383   .     S
C3     H35     1.083   .     S
C3     C18     1.401   .     A
C3     C80     1.383   .     S
C4     H36     1.083   .     S
C4     C19     1.401   .     A
C4     C110    1.383   1_455 S
C5     C9      1.408   .     A
C5     C16     1.413   .     A
C5     Cl27    1.773   .     S
C6     C10     1.408   .     A
C6     Cl28    1.773   .     S
C6     C17     1.413   .     A
C7     C11     1.408   .     A
C7     Cl29    1.774   .     S
C7     C17     1.412   .     A
C8     C13     1.408   .     A
C8     Cl30    1.774   .     S
C8     C16     1.412   .     A
C9     I41     2.139   .     S
C9     C14     1.417   .     A
C10    C15     1.417   .     A
C10    I42     2.139   .     S
C11    C15     1.417   .     A
C11    I43     2.139   .     S
C12    O48     1.303   .     A
C12    O49     1.303   .     A
C12    C18     1.451   .     S
C13    C14     1.417   .     A
C13    I44     2.139   .     S
C14    C20     1.489   .     S
C15    C21     1.489   .     S
C16    C503    1.512   1_554 S
C17    C502    1.512   .     S
C19    C26     1.401   .     A
C20    O51     1.313   .     A
C20    O54     1.313   .     A
C21    O53     1.313   .     A
C21    O52     1.313   .     A
C22    I37     2.151   .     S
C22    N46     1.380   .     A
C22    C349    1.430   1_545 S
C23    N45     1.380   .     A
C23    I38     2.151   .     S
C23    C186    1.430   .     S
C24    N46     1.380   .     A
C24    I39     2.151   .     S
C24    C347    1.430   1_545 S
C25    I40     2.151   .     S
C25    N45     1.380   .     A
C25    C184    1.430   .     S
C26    H33     1.083   .     S
C26    C111    1.383   1_455 S
Cu31   Cu32    2.716   .     S
Cu31   O47     1.964   .     S
Cu31   O53     1.927   .     S
Cu31   O49     1.964   .     S
Cu31   N45     2.041   .     S
Cu31   O51     1.927   .     S
Cu32   O48     1.964   .     S
Cu32   O50     1.964   .     S
Cu32   O54     1.927   .     S
Cu32   N46     2.041   .     S
Cu32   O52     1.927   .     S
C55    O104    1.303   .     A
C55    C73     1.451   .     S
C55    O101    1.303   .     A
C56    C72     1.401   .     A
C56    H88     1.083   .     S
C56    C112    1.383   .     S
C57    H89     1.083   .     S
C57    C72     1.401   .     A
C57    C134    1.383   .     S
C58    H90     1.083   .     S
C58    C73     1.401   .     A
C59    C63     1.408   .     A
C59    C70     1.413   .     A
C59    Cl81    1.773   .     S
C60    C64     1.408   .     A
C60    Cl82    1.773   .     S
C60    C71     1.413   .     A
C61    C65     1.408   .     A
C61    Cl83    1.774   .     S
C61    C71     1.412   .     A
C62    C67     1.408   .     A
C62    Cl84    1.774   .     S
C62    C70     1.412   .     A
C63    I95     2.139   .     S
C63    C68     1.417   .     A
C64    C69     1.417   .     A
C64    I96     2.139   .     S
C65    C69     1.417   .     A
C65    I97     2.139   .     S
C66    O102    1.303   .     A
C66    O103    1.303   .     A
C66    C72     1.451   .     S
C67    C68     1.417   .     A
C67    I98     2.139   .     S
C68    C74     1.489   .     S
C69    C75     1.489   .     S
C70    C557    1.512   1_554 S
C71    C556    1.512   .     S
C73    C80     1.401   .     A
C74    O105    1.313   .     A
C74    O108    1.313   .     A
C75    O107    1.313   .     A
C75    O106    1.313   .     A
C76    I91     2.151   .     S
C76    N100    1.380   .     A
C76    C403    1.430   1_545 S
C77    N99     1.380   .     A
C77    I92     2.151   .     S
C77    C240    1.430   .     S
C78    N100    1.380   .     A
C78    I93     2.151   .     S
C78    C401    1.430   1_545 S
C79    I94     2.151   .     S
C79    N99     1.380   .     A
C79    C238    1.430   .     S
C80    H87     1.083   .     S
Cu85   Cu86    2.716   .     S
Cu85   O101    1.964   .     S
Cu85   O107    1.927   .     S
Cu85   O103    1.964   .     S
Cu85   N99     2.041   .     S
Cu85   O105    1.927   .     S
Cu86   O102    1.964   .     S
Cu86   O104    1.964   .     S
Cu86   O108    1.927   .     S
Cu86   N100    2.041   .     S
Cu86   O106    1.927   .     S
C109   O158    1.303   .     A
C109   C127    1.451   .     S
C109   O155    1.303   .     A
C110   C126    1.401   .     A
C110   H142    1.083   .     S
C110   C4      1.383   1_655 S
C111   H143    1.083   .     S
C111   C126    1.401   .     A
C111   C26     1.383   1_655 S
C112   H144    1.083   .     S
C112   C127    1.401   .     A
C113   C117    1.408   .     A
C113   C124    1.413   .     A
C113   Cl135   1.773   .     S
C114   C118    1.408   .     A
C114   Cl136   1.773   .     S
C114   C125    1.413   .     A
C115   C119    1.408   .     A
C115   Cl137   1.774   .     S
C115   C125    1.412   .     A
C116   C121    1.408   .     A
C116   Cl138   1.774   .     S
C116   C124    1.412   .     A
C117   I149    2.139   .     S
C117   C122    1.417   .     A
C118   C123    1.417   .     A
C118   I150    2.139   .     S
C119   C123    1.417   .     A
C119   I151    2.139   .     S
C120   O156    1.303   .     A
C120   O157    1.303   .     A
C120   C126    1.451   .     S
C121   C122    1.417   .     A
C121   I152    2.139   .     S
C122   C128    1.489   .     S
C123   C129    1.489   .     S
C124   C611    1.512   1_554 S
C125   C610    1.512   .     S
C127   C134    1.401   .     A
C128   O159    1.313   .     A
C128   O162    1.313   .     A
C129   O161    1.313   .     A
C129   O160    1.313   .     A
C130   I145    2.151   .     S
C130   N154    1.380   .     A
C130   C457    1.430   1_545 S
C131   N153    1.380   .     A
C131   I146    2.151   .     S
C131   C294    1.430   .     S
C132   N154    1.380   .     A
C132   I147    2.151   .     S
C132   C455    1.430   1_545 S
C133   I148    2.151   .     S
C133   N153    1.380   .     A
C133   C292    1.430   .     S
C134   H141    1.083   .     S
Cu139  Cu140   2.716   .     S
Cu139  O155    1.964   .     S
Cu139  O161    1.927   .     S
Cu139  O157    1.964   .     S
Cu139  N153    2.041   .     S
Cu139  O159    1.927   .     S
Cu140  O156    1.964   .     S
Cu140  O158    1.964   .     S
Cu140  O162    1.927   .     S
Cu140  N154    2.041   .     S
Cu140  O160    1.927   .     S
C163   O212    1.303   .     A
C163   C181    1.451   .     S
C163   O209    1.303   .     A
C164   C180    1.401   .     A
C164   H196    1.083   .     S
C164   C220    1.383   .     S
C165   H197    1.083   .     S
C165   C180    1.401   .     A
C165   C242    1.383   .     S
C166   H198    1.083   .     S
C166   C181    1.401   .     A
C166   C272    1.383   1_455 S
C167   C171    1.408   .     A
C167   C178    1.413   .     A
C167   Cl189   1.773   .     S
C168   C172    1.408   .     A
C168   Cl190   1.773   .     S
C168   C179    1.413   .     A
C169   C173    1.408   .     A
C169   Cl191   1.774   .     S
C169   C179    1.412   .     A
C170   C175    1.408   .     A
C170   Cl192   1.774   .     S
C170   C178    1.412   .     A
C171   I203    2.139   .     S
C171   C176    1.417   .     A
C172   C177    1.417   .     A
C172   I204    2.139   .     S
C173   C177    1.417   .     A
C173   I205    2.139   .     S
C174   O210    1.303   .     A
C174   O211    1.303   .     A
C174   C180    1.451   .     S
C175   C176    1.417   .     A
C175   I206    2.139   .     S
C176   C182    1.489   .     S
C177   C183    1.489   .     S
C178   C665    1.512   1_554 S
C179   C664    1.512   .     S
C181   C188    1.401   .     A
C182   O213    1.313   .     A
C182   O216    1.313   .     A
C183   O215    1.313   .     A
C183   O214    1.313   .     A
C184   I199    2.151   .     S
C184   N208    1.380   .     A
C185   N207    1.380   .     A
C185   I200    2.151   .     S
C185   C348    1.430   .     S
C186   N208    1.380   .     A
C186   I201    2.151   .     S
C187   I202    2.151   .     S
C187   N207    1.380   .     A
C187   C346    1.430   .     S
C188   H195    1.083   .     S
C188   C273    1.383   1_455 S
Cu193  Cu194   2.716   .     S
Cu193  O209    1.964   .     S
Cu193  O215    1.927   .     S
Cu193  O211    1.964   .     S
Cu193  N207    2.041   .     S
Cu193  O213    1.927   .     S
Cu194  O210    1.964   .     S
Cu194  O212    1.964   .     S
Cu194  O216    1.927   .     S
Cu194  N208    2.041   .     S
Cu194  O214    1.927   .     S
C217   O266    1.303   .     A
C217   C235    1.451   .     S
C217   O263    1.303   .     A
C218   C234    1.401   .     A
C218   H250    1.083   .     S
C218   C274    1.383   .     S
C219   H251    1.083   .     S
C219   C234    1.401   .     A
C219   C296    1.383   .     S
C220   H252    1.083   .     S
C220   C235    1.401   .     A
C221   C225    1.408   .     A
C221   C232    1.413   .     A
C221   Cl243   1.773   .     S
C222   C226    1.408   .     A
C222   Cl244   1.773   .     S
C222   C233    1.413   .     A
C223   C227    1.408   .     A
C223   Cl245   1.774   .     S
C223   C233    1.412   .     A
C224   C229    1.408   .     A
C224   Cl246   1.774   .     S
C224   C232    1.412   .     A
C225   I257    2.139   .     S
C225   C230    1.417   .     A
C226   C231    1.417   .     A
C226   I258    2.139   .     S
C227   C231    1.417   .     A
C227   I259    2.139   .     S
C228   O264    1.303   .     A
C228   O265    1.303   .     A
C228   C234    1.451   .     S
C229   C230    1.417   .     A
C229   I260    2.139   .     S
C230   C236    1.489   .     S
C231   C237    1.489   .     S
C232   C719    1.512   1_554 S
C233   C718    1.512   .     S
C235   C242    1.401   .     A
C236   O267    1.313   .     A
C236   O270    1.313   .     A
C237   O269    1.313   .     A
C237   O268    1.313   .     A
C238   I253    2.151   .     S
C238   N262    1.380   .     A
C239   N261    1.380   .     A
C239   I254    2.151   .     S
C239   C402    1.430   .     S
C240   N262    1.380   .     A
C240   I255    2.151   .     S
C241   I256    2.151   .     S
C241   N261    1.380   .     A
C241   C400    1.430   .     S
C242   H249    1.083   .     S
Cu247  Cu248   2.716   .     S
Cu247  O263    1.964   .     S
Cu247  O269    1.927   .     S
Cu247  O265    1.964   .     S
Cu247  N261    2.041   .     S
Cu247  O267    1.927   .     S
Cu248  O264    1.964   .     S
Cu248  O266    1.964   .     S
Cu248  O270    1.927   .     S
Cu248  N262    2.041   .     S
Cu248  O268    1.927   .     S
C271   O320    1.303   .     A
C271   C289    1.451   .     S
C271   O317    1.303   .     A
C272   C288    1.401   .     A
C272   H304    1.083   .     S
C272   C166    1.383   1_655 S
C273   H305    1.083   .     S
C273   C288    1.401   .     A
C273   C188    1.383   1_655 S
C274   H306    1.083   .     S
C274   C289    1.401   .     A
C275   C279    1.408   .     A
C275   C286    1.413   .     A
C275   Cl297   1.773   .     S
C276   C280    1.408   .     A
C276   Cl298   1.773   .     S
C276   C287    1.413   .     A
C277   C281    1.408   .     A
C277   Cl299   1.774   .     S
C277   C287    1.412   .     A
C278   C283    1.408   .     A
C278   Cl300   1.774   .     S
C278   C286    1.412   .     A
C279   I311    2.139   .     S
C279   C284    1.417   .     A
C280   C285    1.417   .     A
C280   I312    2.139   .     S
C281   C285    1.417   .     A
C281   I313    2.139   .     S
C282   O318    1.303   .     A
C282   O319    1.303   .     A
C282   C288    1.451   .     S
C283   C284    1.417   .     A
C283   I314    2.139   .     S
C284   C290    1.489   .     S
C285   C291    1.489   .     S
C286   C773    1.512   1_554 S
C287   C772    1.512   .     S
C289   C296    1.401   .     A
C290   O321    1.313   .     A
C290   O324    1.313   .     A
C291   O323    1.313   .     A
C291   O322    1.313   .     A
C292   I307    2.151   .     S
C292   N316    1.380   .     A
C293   N315    1.380   .     A
C293   I308    2.151   .     S
C293   C456    1.430   .     S
C294   N316    1.380   .     A
C294   I309    2.151   .     S
C295   I310    2.151   .     S
C295   N315    1.380   .     A
C295   C454    1.430   .     S
C296   H303    1.083   .     S
Cu301  Cu302   2.716   .     S
Cu301  O317    1.964   .     S
Cu301  O323    1.927   .     S
Cu301  O319    1.964   .     S
Cu301  N315    2.041   .     S
Cu301  O321    1.927   .     S
Cu302  O318    1.964   .     S
Cu302  O320    1.964   .     S
Cu302  O324    1.927   .     S
Cu302  N316    2.041   .     S
Cu302  O322    1.927   .     S
C325   O374    1.303   .     A
C325   C343    1.451   .     S
C325   O371    1.303   .     A
C326   C342    1.401   .     A
C326   H358    1.083   .     S
C326   C382    1.383   .     S
C327   H359    1.083   .     S
C327   C342    1.401   .     A
C327   C404    1.383   .     S
C328   H360    1.083   .     S
C328   C343    1.401   .     A
C328   C434    1.383   1_455 S
C329   C333    1.408   .     A
C329   C340    1.413   .     A
C329   Cl351   1.773   .     S
C330   C334    1.408   .     A
C330   Cl352   1.773   .     S
C330   C341    1.413   .     A
C331   C335    1.408   .     A
C331   Cl353   1.774   .     S
C331   C341    1.412   .     A
C332   C337    1.408   .     A
C332   Cl354   1.774   .     S
C332   C340    1.412   .     A
C333   I365    2.139   .     S
C333   C338    1.417   .     A
C334   C339    1.417   .     A
C334   I366    2.139   .     S
C335   C339    1.417   .     A
C335   I367    2.139   .     S
C336   O372    1.303   .     A
C336   O373    1.303   .     A
C336   C342    1.451   .     S
C337   C338    1.417   .     A
C337   I368    2.139   .     S
C338   C344    1.489   .     S
C339   C345    1.489   .     S
C340   C827    1.512   1_554 S
C341   C826    1.512   .     S
C343   C350    1.401   .     A
C344   O375    1.313   .     A
C344   O378    1.313   .     A
C345   O377    1.313   .     A
C345   O376    1.313   .     A
C346   I361    2.151   .     S
C346   N370    1.380   .     A
C347   N369    1.380   .     A
C347   I362    2.151   .     S
C347   C24     1.430   1_565 S
C348   N370    1.380   .     A
C348   I363    2.151   .     S
C349   I364    2.151   .     S
C349   N369    1.380   .     A
C349   C22     1.430   1_565 S
C350   H357    1.083   .     S
C350   C435    1.383   1_455 S
Cu355  Cu356   2.716   .     S
Cu355  O371    1.964   .     S
Cu355  O377    1.927   .     S
Cu355  O373    1.964   .     S
Cu355  N369    2.041   .     S
Cu355  O375    1.927   .     S
Cu356  O372    1.964   .     S
Cu356  O374    1.964   .     S
Cu356  O378    1.927   .     S
Cu356  N370    2.041   .     S
Cu356  O376    1.927   .     S
C379   O428    1.303   .     A
C379   C397    1.451   .     S
C379   O425    1.303   .     A
C380   C396    1.401   .     A
C380   H412    1.083   .     S
C380   C436    1.383   .     S
C381   H413    1.083   .     S
C381   C396    1.401   .     A
C381   C458    1.383   .     S
C382   H414    1.083   .     S
C382   C397    1.401   .     A
C383   C387    1.408   .     A
C383   C394    1.413   .     A
C383   Cl405   1.773   .     S
C384   C388    1.408   .     A
C384   Cl406   1.773   .     S
C384   C395    1.413   .     A
C385   C389    1.408   .     A
C385   Cl407   1.774   .     S
C385   C395    1.412   .     A
C386   C391    1.408   .     A
C386   Cl408   1.774   .     S
C386   C394    1.412   .     A
C387   I419    2.139   .     S
C387   C392    1.417   .     A
C388   C393    1.417   .     A
C388   I420    2.139   .     S
C389   C393    1.417   .     A
C389   I421    2.139   .     S
C390   O426    1.303   .     A
C390   O427    1.303   .     A
C390   C396    1.451   .     S
C391   C392    1.417   .     A
C391   I422    2.139   .     S
C392   C398    1.489   .     S
C393   C399    1.489   .     S
C394   C881    1.512   1_554 S
C395   C880    1.512   .     S
C397   C404    1.401   .     A
C398   O429    1.313   .     A
C398   O432    1.313   .     A
C399   O431    1.313   .     A
C399   O430    1.313   .     A
C400   I415    2.151   .     S
C400   N424    1.380   .     A
C401   N423    1.380   .     A
C401   I416    2.151   .     S
C401   C78     1.430   1_565 S
C402   N424    1.380   .     A
C402   I417    2.151   .     S
C403   I418    2.151   .     S
C403   N423    1.380   .     A
C403   C76     1.430   1_565 S
C404   H411    1.083   .     S
Cu409  Cu410   2.716   .     S
Cu409  O425    1.964   .     S
Cu409  O431    1.927   .     S
Cu409  O427    1.964   .     S
Cu409  N423    2.041   .     S
Cu409  O429    1.927   .     S
Cu410  O426    1.964   .     S
Cu410  O428    1.964   .     S
Cu410  O432    1.927   .     S
Cu410  N424    2.041   .     S
Cu410  O430    1.927   .     S
C433   O482    1.303   .     A
C433   C451    1.451   .     S
C433   O479    1.303   .     A
C434   C450    1.401   .     A
C434   H466    1.083   .     S
C434   C328    1.383   1_655 S
C435   H467    1.083   .     S
C435   C450    1.401   .     A
C435   C350    1.383   1_655 S
C436   H468    1.083   .     S
C436   C451    1.401   .     A
C437   C441    1.408   .     A
C437   C448    1.413   .     A
C437   Cl459   1.773   .     S
C438   C442    1.408   .     A
C438   Cl460   1.773   .     S
C438   C449    1.413   .     A
C439   C443    1.408   .     A
C439   Cl461   1.774   .     S
C439   C449    1.412   .     A
C440   C445    1.408   .     A
C440   Cl462   1.774   .     S
C440   C448    1.412   .     A
C441   I473    2.139   .     S
C441   C446    1.417   .     A
C442   C447    1.417   .     A
C442   I474    2.139   .     S
C443   C447    1.417   .     A
C443   I475    2.139   .     S
C444   O480    1.303   .     A
C444   O481    1.303   .     A
C444   C450    1.451   .     S
C445   C446    1.417   .     A
C445   I476    2.139   .     S
C446   C452    1.489   .     S
C447   C453    1.489   .     S
C448   C935    1.512   1_554 S
C449   C934    1.512   .     S
C451   C458    1.401   .     A
C452   O483    1.313   .     A
C452   O486    1.313   .     A
C453   O485    1.313   .     A
C453   O484    1.313   .     A
C454   I469    2.151   .     S
C454   N478    1.380   .     A
C455   N477    1.380   .     A
C455   I470    2.151   .     S
C455   C132    1.430   1_565 S
C456   N478    1.380   .     A
C456   I471    2.151   .     S
C457   I472    2.151   .     S
C457   N477    1.380   .     A
C457   C130    1.430   1_565 S
C458   H465    1.083   .     S
Cu463  Cu464   2.716   .     S
Cu463  O479    1.964   .     S
Cu463  O485    1.927   .     S
Cu463  O481    1.964   .     S
Cu463  N477    2.041   .     S
Cu463  O483    1.927   .     S
Cu464  O480    1.964   .     S
Cu464  O482    1.964   .     S
Cu464  O486    1.927   .     S
Cu464  N478    2.041   .     S
Cu464  O484    1.927   .     S
C487   O536    1.303   .     A
C487   C505    1.451   .     S
C487   O533    1.303   .     A
C488   C504    1.401   .     A
C488   H520    1.083   .     S
C488   C544    1.383   .     S
C489   H521    1.083   .     S
C489   C504    1.401   .     A
C489   C566    1.383   .     S
C490   H522    1.083   .     S
C490   C505    1.401   .     A
C490   C596    1.383   1_455 S
C491   C495    1.408   .     A
C491   C502    1.413   .     A
C491   Cl513   1.773   .     S
C492   C496    1.408   .     A
C492   Cl514   1.773   .     S
C492   C503    1.413   .     A
C493   C497    1.408   .     A
C493   Cl515   1.774   .     S
C493   C503    1.412   .     A
C494   C499    1.408   .     A
C494   Cl516   1.774   .     S
C494   C502    1.412   .     A
C495   I527    2.139   .     S
C495   C500    1.417   .     A
C496   C501    1.417   .     A
C496   I528    2.139   .     S
C497   C501    1.417   .     A
C497   I529    2.139   .     S
C498   O534    1.303   .     A
C498   O535    1.303   .     A
C498   C504    1.451   .     S
C499   C500    1.417   .     A
C499   I530    2.139   .     S
C500   C506    1.489   .     S
C501   C507    1.489   .     S
C503   C16     1.512   1_556 S
C505   C512    1.401   .     A
C506   O537    1.313   .     A
C506   O540    1.313   .     A
C507   O539    1.313   .     A
C507   O538    1.313   .     A
C508   I523    2.151   .     S
C508   N532    1.380   .     A
C508   C835    1.430   1_545 S
C509   N531    1.380   .     A
C509   I524    2.151   .     S
C509   C672    1.430   .     S
C510   N532    1.380   .     A
C510   I525    2.151   .     S
C510   C833    1.430   1_545 S
C511   I526    2.151   .     S
C511   N531    1.380   .     A
C511   C670    1.430   .     S
C512   H519    1.083   .     S
C512   C597    1.383   1_455 S
Cu517  Cu518   2.716   .     S
Cu517  O533    1.964   .     S
Cu517  O539    1.927   .     S
Cu517  O535    1.964   .     S
Cu517  N531    2.041   .     S
Cu517  O537    1.927   .     S
Cu518  O534    1.964   .     S
Cu518  O536    1.964   .     S
Cu518  O540    1.927   .     S
Cu518  N532    2.041   .     S
Cu518  O538    1.927   .     S
C541   O590    1.303   .     A
C541   C559    1.451   .     S
C541   O587    1.303   .     A
C542   C558    1.401   .     A
C542   H574    1.083   .     S
C542   C598    1.383   .     S
C543   H575    1.083   .     S
C543   C558    1.401   .     A
C543   C620    1.383   .     S
C544   H576    1.083   .     S
C544   C559    1.401   .     A
C545   C549    1.408   .     A
C545   C556    1.413   .     A
C545   Cl567   1.773   .     S
C546   C550    1.408   .     A
C546   Cl568   1.773   .     S
C546   C557    1.413   .     A
C547   C551    1.408   .     A
C547   Cl569   1.774   .     S
C547   C557    1.412   .     A
C548   C553    1.408   .     A
C548   Cl570   1.774   .     S
C548   C556    1.412   .     A
C549   I581    2.139   .     S
C549   C554    1.417   .     A
C550   C555    1.417   .     A
C550   I582    2.139   .     S
C551   C555    1.417   .     A
C551   I583    2.139   .     S
C552   O588    1.303   .     A
C552   O589    1.303   .     A
C552   C558    1.451   .     S
C553   C554    1.417   .     A
C553   I584    2.139   .     S
C554   C560    1.489   .     S
C555   C561    1.489   .     S
C557   C70     1.512   1_556 S
C559   C566    1.401   .     A
C560   O591    1.313   .     A
C560   O594    1.313   .     A
C561   O593    1.313   .     A
C561   O592    1.313   .     A
C562   I577    2.151   .     S
C562   N586    1.380   .     A
C562   C889    1.430   1_545 S
C563   N585    1.380   .     A
C563   I578    2.151   .     S
C563   C726    1.430   .     S
C564   N586    1.380   .     A
C564   I579    2.151   .     S
C564   C887    1.430   1_545 S
C565   I580    2.151   .     S
C565   N585    1.380   .     A
C565   C724    1.430   .     S
C566   H573    1.083   .     S
Cu571  Cu572   2.716   .     S
Cu571  O587    1.964   .     S
Cu571  O593    1.927   .     S
Cu571  O589    1.964   .     S
Cu571  N585    2.041   .     S
Cu571  O591    1.927   .     S
Cu572  O588    1.964   .     S
Cu572  O590    1.964   .     S
Cu572  O594    1.927   .     S
Cu572  N586    2.041   .     S
Cu572  O592    1.927   .     S
C595   O644    1.303   .     A
C595   C613    1.451   .     S
C595   O641    1.303   .     A
C596   C612    1.401   .     A
C596   H628    1.083   .     S
C596   C490    1.383   1_655 S
C597   H629    1.083   .     S
C597   C612    1.401   .     A
C597   C512    1.383   1_655 S
C598   H630    1.083   .     S
C598   C613    1.401   .     A
C599   C603    1.408   .     A
C599   C610    1.413   .     A
C599   Cl621   1.773   .     S
C600   C604    1.408   .     A
C600   Cl622   1.773   .     S
C600   C611    1.413   .     A
C601   C605    1.408   .     A
C601   Cl623   1.774   .     S
C601   C611    1.412   .     A
C602   C607    1.408   .     A
C602   Cl624   1.774   .     S
C602   C610    1.412   .     A
C603   I635    2.139   .     S
C603   C608    1.417   .     A
C604   C609    1.417   .     A
C604   I636    2.139   .     S
C605   C609    1.417   .     A
C605   I637    2.139   .     S
C606   O642    1.303   .     A
C606   O643    1.303   .     A
C606   C612    1.451   .     S
C607   C608    1.417   .     A
C607   I638    2.139   .     S
C608   C614    1.489   .     S
C609   C615    1.489   .     S
C611   C124    1.512   1_556 S
C613   C620    1.401   .     A
C614   O645    1.313   .     A
C614   O648    1.313   .     A
C615   O647    1.313   .     A
C615   O646    1.313   .     A
C616   I631    2.151   .     S
C616   N640    1.380   .     A
C616   C943    1.430   1_545 S
C617   N639    1.380   .     A
C617   I632    2.151   .     S
C617   C780    1.430   .     S
C618   N640    1.380   .     A
C618   I633    2.151   .     S
C618   C941    1.430   1_545 S
C619   I634    2.151   .     S
C619   N639    1.380   .     A
C619   C778    1.430   .     S
C620   H627    1.083   .     S
Cu625  Cu626   2.716   .     S
Cu625  O641    1.964   .     S
Cu625  O647    1.927   .     S
Cu625  O643    1.964   .     S
Cu625  N639    2.041   .     S
Cu625  O645    1.927   .     S
Cu626  O642    1.964   .     S
Cu626  O644    1.964   .     S
Cu626  O648    1.927   .     S
Cu626  N640    2.041   .     S
Cu626  O646    1.927   .     S
C649   O698    1.303   .     A
C649   C667    1.451   .     S
C649   O695    1.303   .     A
C650   C666    1.401   .     A
C650   H682    1.083   .     S
C650   C706    1.383   .     S
C651   H683    1.083   .     S
C651   C666    1.401   .     A
C651   C728    1.383   .     S
C652   H684    1.083   .     S
C652   C667    1.401   .     A
C652   C758    1.383   1_455 S
C653   C657    1.408   .     A
C653   C664    1.413   .     A
C653   Cl675   1.773   .     S
C654   C658    1.408   .     A
C654   Cl676   1.773   .     S
C654   C665    1.413   .     A
C655   C659    1.408   .     A
C655   Cl677   1.774   .     S
C655   C665    1.412   .     A
C656   C661    1.408   .     A
C656   Cl678   1.774   .     S
C656   C664    1.412   .     A
C657   I689    2.139   .     S
C657   C662    1.417   .     A
C658   C663    1.417   .     A
C658   I690    2.139   .     S
C659   C663    1.417   .     A
C659   I691    2.139   .     S
C660   O696    1.303   .     A
C660   O697    1.303   .     A
C660   C666    1.451   .     S
C661   C662    1.417   .     A
C661   I692    2.139   .     S
C662   C668    1.489   .     S
C663   C669    1.489   .     S
C665   C178    1.512   1_556 S
C667   C674    1.401   .     A
C668   O699    1.313   .     A
C668   O702    1.313   .     A
C669   O701    1.313   .     A
C669   O700    1.313   .     A
C670   I685    2.151   .     S
C670   N694    1.380   .     A
C671   N693    1.380   .     A
C671   I686    2.151   .     S
C671   C834    1.430   .     S
C672   N694    1.380   .     A
C672   I687    2.151   .     S
C673   I688    2.151   .     S
C673   N693    1.380   .     A
C673   C832    1.430   .     S
C674   H681    1.083   .     S
C674   C759    1.383   1_455 S
Cu679  Cu680   2.716   .     S
Cu679  O695    1.964   .     S
Cu679  O701    1.927   .     S
Cu679  O697    1.964   .     S
Cu679  N693    2.041   .     S
Cu679  O699    1.927   .     S
Cu680  O696    1.964   .     S
Cu680  O698    1.964   .     S
Cu680  O702    1.927   .     S
Cu680  N694    2.041   .     S
Cu680  O700    1.927   .     S
C703   O752    1.303   .     A
C703   C721    1.451   .     S
C703   O749    1.303   .     A
C704   C720    1.401   .     A
C704   H736    1.083   .     S
C704   C760    1.383   .     S
C705   H737    1.083   .     S
C705   C720    1.401   .     A
C705   C782    1.383   .     S
C706   H738    1.083   .     S
C706   C721    1.401   .     A
C707   C711    1.408   .     A
C707   C718    1.413   .     A
C707   Cl729   1.773   .     S
C708   C712    1.408   .     A
C708   Cl730   1.773   .     S
C708   C719    1.413   .     A
C709   C713    1.408   .     A
C709   Cl731   1.774   .     S
C709   C719    1.412   .     A
C710   C715    1.408   .     A
C710   Cl732   1.774   .     S
C710   C718    1.412   .     A
C711   I743    2.139   .     S
C711   C716    1.417   .     A
C712   C717    1.417   .     A
C712   I744    2.139   .     S
C713   C717    1.417   .     A
C713   I745    2.139   .     S
C714   O750    1.303   .     A
C714   O751    1.303   .     A
C714   C720    1.451   .     S
C715   C716    1.417   .     A
C715   I746    2.139   .     S
C716   C722    1.489   .     S
C717   C723    1.489   .     S
C719   C232    1.512   1_556 S
C721   C728    1.401   .     A
C722   O753    1.313   .     A
C722   O756    1.313   .     A
C723   O755    1.313   .     A
C723   O754    1.313   .     A
C724   I739    2.151   .     S
C724   N748    1.380   .     A
C725   N747    1.380   .     A
C725   I740    2.151   .     S
C725   C888    1.430   .     S
C726   N748    1.380   .     A
C726   I741    2.151   .     S
C727   I742    2.151   .     S
C727   N747    1.380   .     A
C727   C886    1.430   .     S
C728   H735    1.083   .     S
Cu733  Cu734   2.716   .     S
Cu733  O749    1.964   .     S
Cu733  O755    1.927   .     S
Cu733  O751    1.964   .     S
Cu733  N747    2.041   .     S
Cu733  O753    1.927   .     S
Cu734  O750    1.964   .     S
Cu734  O752    1.964   .     S
Cu734  O756    1.927   .     S
Cu734  N748    2.041   .     S
Cu734  O754    1.927   .     S
C757   O806    1.303   .     A
C757   C775    1.451   .     S
C757   O803    1.303   .     A
C758   C774    1.401   .     A
C758   H790    1.083   .     S
C758   C652    1.383   1_655 S
C759   H791    1.083   .     S
C759   C774    1.401   .     A
C759   C674    1.383   1_655 S
C760   H792    1.083   .     S
C760   C775    1.401   .     A
C761   C765    1.408   .     A
C761   C772    1.413   .     A
C761   Cl783   1.773   .     S
C762   C766    1.408   .     A
C762   Cl784   1.773   .     S
C762   C773    1.413   .     A
C763   C767    1.408   .     A
C763   Cl785   1.774   .     S
C763   C773    1.412   .     A
C764   C769    1.408   .     A
C764   Cl786   1.774   .     S
C764   C772    1.412   .     A
C765   I797    2.139   .     S
C765   C770    1.417   .     A
C766   C771    1.417   .     A
C766   I798    2.139   .     S
C767   C771    1.417   .     A
C767   I799    2.139   .     S
C768   O804    1.303   .     A
C768   O805    1.303   .     A
C768   C774    1.451   .     S
C769   C770    1.417   .     A
C769   I800    2.139   .     S
C770   C776    1.489   .     S
C771   C777    1.489   .     S
C773   C286    1.512   1_556 S
C775   C782    1.401   .     A
C776   O807    1.313   .     A
C776   O810    1.313   .     A
C777   O809    1.313   .     A
C777   O808    1.313   .     A
C778   I793    2.151   .     S
C778   N802    1.380   .     A
C779   N801    1.380   .     A
C779   I794    2.151   .     S
C779   C942    1.430   .     S
C780   N802    1.380   .     A
C780   I795    2.151   .     S
C781   I796    2.151   .     S
C781   N801    1.380   .     A
C781   C940    1.430   .     S
C782   H789    1.083   .     S
Cu787  Cu788   2.716   .     S
Cu787  O803    1.964   .     S
Cu787  O809    1.927   .     S
Cu787  O805    1.964   .     S
Cu787  N801    2.041   .     S
Cu787  O807    1.927   .     S
Cu788  O804    1.964   .     S
Cu788  O806    1.964   .     S
Cu788  O810    1.927   .     S
Cu788  N802    2.041   .     S
Cu788  O808    1.927   .     S
C811   O860    1.303   .     A
C811   C829    1.451   .     S
C811   O857    1.303   .     A
C812   C828    1.401   .     A
C812   H844    1.083   .     S
C812   C868    1.383   .     S
C813   H845    1.083   .     S
C813   C828    1.401   .     A
C813   C890    1.383   .     S
C814   H846    1.083   .     S
C814   C829    1.401   .     A
C814   C920    1.383   1_455 S
C815   C819    1.408   .     A
C815   C826    1.413   .     A
C815   Cl837   1.773   .     S
C816   C820    1.408   .     A
C816   Cl838   1.773   .     S
C816   C827    1.413   .     A
C817   C821    1.408   .     A
C817   Cl839   1.774   .     S
C817   C827    1.412   .     A
C818   C823    1.408   .     A
C818   Cl840   1.774   .     S
C818   C826    1.412   .     A
C819   I851    2.139   .     S
C819   C824    1.417   .     A
C820   C825    1.417   .     A
C820   I852    2.139   .     S
C821   C825    1.417   .     A
C821   I853    2.139   .     S
C822   O858    1.303   .     A
C822   O859    1.303   .     A
C822   C828    1.451   .     S
C823   C824    1.417   .     A
C823   I854    2.139   .     S
C824   C830    1.489   .     S
C825   C831    1.489   .     S
C827   C340    1.512   1_556 S
C829   C836    1.401   .     A
C830   O861    1.313   .     A
C830   O864    1.313   .     A
C831   O863    1.313   .     A
C831   O862    1.313   .     A
C832   I847    2.151   .     S
C832   N856    1.380   .     A
C833   N855    1.380   .     A
C833   I848    2.151   .     S
C833   C510    1.430   1_565 S
C834   N856    1.380   .     A
C834   I849    2.151   .     S
C835   I850    2.151   .     S
C835   N855    1.380   .     A
C835   C508    1.430   1_565 S
C836   H843    1.083   .     S
C836   C921    1.383   1_455 S
Cu841  Cu842   2.716   .     S
Cu841  O857    1.964   .     S
Cu841  O863    1.927   .     S
Cu841  O859    1.964   .     S
Cu841  N855    2.041   .     S
Cu841  O861    1.927   .     S
Cu842  O858    1.964   .     S
Cu842  O860    1.964   .     S
Cu842  O864    1.927   .     S
Cu842  N856    2.041   .     S
Cu842  O862    1.927   .     S
C865   O914    1.303   .     A
C865   C883    1.451   .     S
C865   O911    1.303   .     A
C866   C882    1.401   .     A
C866   H898    1.083   .     S
C866   C922    1.383   .     S
C867   H899    1.083   .     S
C867   C882    1.401   .     A
C867   C944    1.383   .     S
C868   H900    1.083   .     S
C868   C883    1.401   .     A
C869   C873    1.408   .     A
C869   C880    1.413   .     A
C869   Cl891   1.773   .     S
C870   C874    1.408   .     A
C870   Cl892   1.773   .     S
C870   C881    1.413   .     A
C871   C875    1.408   .     A
C871   Cl893   1.774   .     S
C871   C881    1.412   .     A
C872   C877    1.408   .     A
C872   Cl894   1.774   .     S
C872   C880    1.412   .     A
C873   I905    2.139   .     S
C873   C878    1.417   .     A
C874   C879    1.417   .     A
C874   I906    2.139   .     S
C875   C879    1.417   .     A
C875   I907    2.139   .     S
C876   O912    1.303   .     A
C876   O913    1.303   .     A
C876   C882    1.451   .     S
C877   C878    1.417   .     A
C877   I908    2.139   .     S
C878   C884    1.489   .     S
C879   C885    1.489   .     S
C881   C394    1.512   1_556 S
C883   C890    1.401   .     A
C884   O915    1.313   .     A
C884   O918    1.313   .     A
C885   O917    1.313   .     A
C885   O916    1.313   .     A
C886   I901    2.151   .     S
C886   N910    1.380   .     A
C887   N909    1.380   .     A
C887   I902    2.151   .     S
C887   C564    1.430   1_565 S
C888   N910    1.380   .     A
C888   I903    2.151   .     S
C889   I904    2.151   .     S
C889   N909    1.380   .     A
C889   C562    1.430   1_565 S
C890   H897    1.083   .     S
Cu895  Cu896   2.716   .     S
Cu895  O911    1.964   .     S
Cu895  O917    1.927   .     S
Cu895  O913    1.964   .     S
Cu895  N909    2.041   .     S
Cu895  O915    1.927   .     S
Cu896  O912    1.964   .     S
Cu896  O914    1.964   .     S
Cu896  O918    1.927   .     S
Cu896  N910    2.041   .     S
Cu896  O916    1.927   .     S
C919   O968    1.303   .     A
C919   C937    1.451   .     S
C919   O965    1.303   .     A
C920   C936    1.401   .     A
C920   H952    1.083   .     S
C920   C814    1.383   1_655 S
C921   H953    1.083   .     S
C921   C936    1.401   .     A
C921   C836    1.383   1_655 S
C922   H954    1.083   .     S
C922   C937    1.401   .     A
C923   C927    1.408   .     A
C923   C934    1.413   .     A
C923   Cl945   1.773   .     S
C924   C928    1.408   .     A
C924   Cl946   1.773   .     S
C924   C935    1.413   .     A
C925   C929    1.408   .     A
C925   Cl947   1.774   .     S
C925   C935    1.412   .     A
C926   C931    1.408   .     A
C926   Cl948   1.774   .     S
C926   C934    1.412   .     A
C927   I959    2.139   .     S
C927   C932    1.417   .     A
C928   C933    1.417   .     A
C928   I960    2.139   .     S
C929   C933    1.417   .     A
C929   I961    2.139   .     S
C930   O966    1.303   .     A
C930   O967    1.303   .     A
C930   C936    1.451   .     S
C931   C932    1.417   .     A
C931   I962    2.139   .     S
C932   C938    1.489   .     S
C933   C939    1.489   .     S
C935   C448    1.512   1_556 S
C937   C944    1.401   .     A
C938   O969    1.313   .     A
C938   O972    1.313   .     A
C939   O971    1.313   .     A
C939   O970    1.313   .     A
C940   I955    2.151   .     S
C940   N964    1.380   .     A
C941   N963    1.380   .     A
C941   I956    2.151   .     S
C941   C618    1.430   1_565 S
C942   N964    1.380   .     A
C942   I957    2.151   .     S
C943   I958    2.151   .     S
C943   N963    1.380   .     A
C943   C616    1.430   1_565 S
C944   H951    1.083   .     S
Cu949  Cu950   2.716   .     S
Cu949  O965    1.964   .     S
Cu949  O971    1.927   .     S
Cu949  O967    1.964   .     S
Cu949  N963    2.041   .     S
Cu949  O969    1.927   .     S
Cu950  O966    1.964   .     S
Cu950  O968    1.964   .     S
Cu950  O972    1.927   .     S
Cu950  N964    2.041   .     S
Cu950  O970    1.927   .     S
