data_str_m2_o1_o10_pcu_sym.187
_audit_creation_date              2020-01-03
_audit_creation_method            'Materials Studio'
_symmetry_space_group_name_H-M    'P1'
_symmetry_Int_Tables_number       1
_symmetry_cell_setting            triclinic
loop_
_symmetry_equiv_pos_as_xyz
  x,y,z
_cell_length_a                    26.1902
_cell_length_b                    32.5124
_cell_length_c                    28.7551
_cell_angle_alpha                 91.0744
_cell_angle_beta                  98.4397
_cell_angle_gamma                 91.2945
loop_
_atom_site_label
_atom_site_type_symbol
_atom_site_fract_x
_atom_site_fract_y
_atom_site_fract_z
_atom_site_U_iso_or_equiv
_atom_site_adp_type
_atom_site_occupancy
C1     C     0.16625   0.08733   0.16615   0.00000  Uiso   1.00
C2     C     0.16703   0.24579   0.16712   0.00000  Uiso   1.00
C3     C     0.06794   0.16679   0.15452   0.00000  Uiso   1.00
C4     C     0.26541   0.16693   0.17883   0.00000  Uiso   1.00
C5     C     0.01251   0.16705   0.14797   0.00000  Uiso   1.00
C6     C     0.32086   0.16726   0.18541   0.00000  Uiso   1.00
C7     C     0.18127   0.01991   0.12767   0.00000  Uiso   1.00
C8     C     0.14333   0.31238   0.20116   0.00000  Uiso   1.00
C9     C     0.18616   0.31082   0.13176   0.00000  Uiso   1.00
C10    C     0.14688   0.02173   0.20191   0.00000  Uiso   1.00
C11    C     0.16621   0.29026   0.16749   0.00000  Uiso   1.00
C12    C     0.16555   0.04245   0.16527   0.00000  Uiso   1.00
C13    C     0.13152   0.14308   0.01877   0.00000  Uiso   1.00
C14    C     0.20080   0.19128   0.31431   0.00000  Uiso   1.00
C15    C     0.13223   0.14278   0.30299   0.00000  Uiso   1.00
C16    C     0.20100   0.19073   0.03027   0.00000  Uiso   1.00
Cu17   Cu    0.16667   0.16667   0.21355   0.00000  Uiso   1.00
Cu18   Cu    0.16667   0.16666   0.11978   0.00000  Uiso   1.00
H19    H     0.32553   0.16688   0.11217   0.00000  Uiso   1.00
H20    H     0.00785   0.16752   0.22122   0.00000  Uiso   1.00
H21    H     0.20318   0.29361   0.10558   0.00000  Uiso   1.00
H22    H     0.13184   0.03861   0.22960   0.00000  Uiso   1.00
H23    H     0.10453   0.12375   0.27996   0.00000  Uiso   1.00
H24    H     0.22826   0.21018   0.05323   0.00000  Uiso   1.00
N25    N     0.16668   0.16668   0.28403   0.00000  Uiso   1.00
N26    N     0.16665   0.16666   0.04931   0.00000  Uiso   1.00
O27    O     0.16666   0.10655   0.20625   0.00000  Uiso   1.00
O28    O     0.16667   0.22678   0.12709   0.00000  Uiso   1.00
O29    O     0.16666   0.10654   0.12706   0.00000  Uiso   1.00
O30    O     0.16667   0.22679   0.20628   0.00000  Uiso   1.00
O31    O     0.09161   0.16667   0.19712   0.00000  Uiso   1.00
O32    O     0.24172   0.16666   0.13621   0.00000  Uiso   1.00
O33    O     0.09161   0.16666   0.11793   0.00000  Uiso   1.00
O34    O     0.24172   0.16667   0.21540   0.00000  Uiso   1.00
O35    O     0.19079   0.03978   0.08729   0.00000  Uiso   1.00
C36    C     0.16578   0.01969   0.04531   0.00000  Uiso   1.00
H37    H     0.16696   0.04184   0.01650   0.00000  Uiso   1.00
H38    H     0.18815   0.32619   0.03606   0.00000  Uiso   1.00
C39    C     0.10867   0.00654   0.04667   0.00000  Uiso   1.00
H40    H     0.10665   0.31052   0.06550   0.00000  Uiso   1.00
H41    H     0.08936   0.02995   0.06595   0.00000  Uiso   1.00
C42    C     0.07874   0.33310   0.33095   0.00000  Uiso   1.00
H43    H     0.03751   0.32616   0.00002   0.00000  Uiso   1.00
H44    H     0.09459   0.30648   0.31378   0.00000  Uiso   1.00
H45    H     0.08125   0.02765   0.30958   0.00000  Uiso   1.00
O46    O     0.11819   0.29300   0.23408   0.00000  Uiso   1.00
C47    C     0.06879   0.27804   0.21269   0.00000  Uiso   1.00
H48    H     0.05512   0.25522   0.23669   0.00000  Uiso   1.00
H49    H     0.06987   0.26132   0.17871   0.00000  Uiso   1.00
C50    C     0.02969   0.31264   0.20543   0.00000  Uiso   1.00
H51    H     0.02949   0.33003   0.23891   0.00000  Uiso   1.00
H52    H     0.04058   0.00097   0.17889   0.00000  Uiso   1.00
C53    C     0.30871   0.29558   0.18842   0.00000  Uiso   1.00
H54    H     0.30705   0.27980   0.15360   0.00000  Uiso   1.00
H55    H     0.28159   0.32142   0.18510   0.00000  Uiso   1.00
H56    H     0.29656   0.27355   0.21396   0.00000  Uiso   1.00
Br57   Br    0.07776   0.11068   0.03911   0.00000  Uiso   1.00
Br58   Br    0.24885   0.22890   0.29258   0.00000  Uiso   1.00
C59    C     0.49958   0.08733   0.16615   0.00000  Uiso   1.00
C60    C     0.50037   0.24579   0.16712   0.00000  Uiso   1.00
C61    C     0.40127   0.16679   0.15452   0.00000  Uiso   1.00
C62    C     0.59874   0.16693   0.17883   0.00000  Uiso   1.00
C63    C     0.34584   0.16705   0.14797   0.00000  Uiso   1.00
C64    C     0.65420   0.16726   0.18541   0.00000  Uiso   1.00
C65    C     0.51460   0.01991   0.12767   0.00000  Uiso   1.00
C66    C     0.47667   0.31238   0.20116   0.00000  Uiso   1.00
C67    C     0.51949   0.31082   0.13176   0.00000  Uiso   1.00
C68    C     0.48021   0.02173   0.20191   0.00000  Uiso   1.00
C69    C     0.49955   0.29026   0.16749   0.00000  Uiso   1.00
C70    C     0.49888   0.04245   0.16527   0.00000  Uiso   1.00
C71    C     0.46485   0.14308   0.01877   0.00000  Uiso   1.00
C72    C     0.53414   0.19128   0.31431   0.00000  Uiso   1.00
C73    C     0.46556   0.14278   0.30299   0.00000  Uiso   1.00
C74    C     0.53433   0.19073   0.03027   0.00000  Uiso   1.00
Cu75   Cu    0.50000   0.16667   0.21355   0.00000  Uiso   1.00
Cu76   Cu    0.50000   0.16666   0.11978   0.00000  Uiso   1.00
H77    H     0.65886   0.16688   0.11217   0.00000  Uiso   1.00
H78    H     0.34119   0.16752   0.22122   0.00000  Uiso   1.00
H79    H     0.53651   0.29361   0.10558   0.00000  Uiso   1.00
H80    H     0.46518   0.03861   0.22960   0.00000  Uiso   1.00
H81    H     0.43786   0.12375   0.27996   0.00000  Uiso   1.00
H82    H     0.56159   0.21018   0.05323   0.00000  Uiso   1.00
N83    N     0.50001   0.16668   0.28403   0.00000  Uiso   1.00
N84    N     0.49999   0.16666   0.04931   0.00000  Uiso   1.00
O85    O     0.50000   0.10655   0.20625   0.00000  Uiso   1.00
O86    O     0.50000   0.22678   0.12709   0.00000  Uiso   1.00
O87    O     0.50000   0.10654   0.12706   0.00000  Uiso   1.00
O88    O     0.50000   0.22679   0.20628   0.00000  Uiso   1.00
O89    O     0.42495   0.16667   0.19712   0.00000  Uiso   1.00
O90    O     0.57505   0.16666   0.13621   0.00000  Uiso   1.00
O91    O     0.42494   0.16666   0.11793   0.00000  Uiso   1.00
O92    O     0.57506   0.16667   0.21540   0.00000  Uiso   1.00
O93    O     0.52412   0.03978   0.08729   0.00000  Uiso   1.00
C94    C     0.49911   0.01969   0.04531   0.00000  Uiso   1.00
H95    H     0.50029   0.04184   0.01650   0.00000  Uiso   1.00
H96    H     0.52149   0.32619   0.03606   0.00000  Uiso   1.00
C97    C     0.44201   0.00654   0.04667   0.00000  Uiso   1.00
H98    H     0.43998   0.31052   0.06550   0.00000  Uiso   1.00
H99    H     0.42269   0.02995   0.06595   0.00000  Uiso   1.00
C100   C     0.41207   0.33310   0.33095   0.00000  Uiso   1.00
H101   H     0.37084   0.32616   0.00002   0.00000  Uiso   1.00
H102   H     0.42793   0.30648   0.31378   0.00000  Uiso   1.00
H103   H     0.41458   0.02765   0.30958   0.00000  Uiso   1.00
O104   O     0.45152   0.29300   0.23408   0.00000  Uiso   1.00
C105   C     0.40213   0.27804   0.21269   0.00000  Uiso   1.00
H106   H     0.38846   0.25522   0.23669   0.00000  Uiso   1.00
H107   H     0.40321   0.26132   0.17871   0.00000  Uiso   1.00
C108   C     0.36303   0.31264   0.20543   0.00000  Uiso   1.00
H109   H     0.36283   0.33003   0.23891   0.00000  Uiso   1.00
H110   H     0.37391   0.00097   0.17889   0.00000  Uiso   1.00
C111   C     0.64204   0.29558   0.18842   0.00000  Uiso   1.00
H112   H     0.64038   0.27980   0.15360   0.00000  Uiso   1.00
H113   H     0.61492   0.32142   0.18510   0.00000  Uiso   1.00
H114   H     0.62989   0.27355   0.21396   0.00000  Uiso   1.00
Br115  Br    0.41109   0.11068   0.03911   0.00000  Uiso   1.00
Br116  Br    0.58218   0.22890   0.29258   0.00000  Uiso   1.00
C117   C     0.83292   0.08733   0.16615   0.00000  Uiso   1.00
C118   C     0.83370   0.24579   0.16712   0.00000  Uiso   1.00
C119   C     0.73461   0.16679   0.15452   0.00000  Uiso   1.00
C120   C     0.93208   0.16693   0.17883   0.00000  Uiso   1.00
C121   C     0.67918   0.16705   0.14797   0.00000  Uiso   1.00
C122   C     0.98753   0.16726   0.18541   0.00000  Uiso   1.00
C123   C     0.84794   0.01991   0.12767   0.00000  Uiso   1.00
C124   C     0.81000   0.31238   0.20116   0.00000  Uiso   1.00
C125   C     0.85283   0.31082   0.13176   0.00000  Uiso   1.00
C126   C     0.81355   0.02173   0.20191   0.00000  Uiso   1.00
C127   C     0.83288   0.29026   0.16749   0.00000  Uiso   1.00
C128   C     0.83222   0.04245   0.16527   0.00000  Uiso   1.00
C129   C     0.79819   0.14308   0.01877   0.00000  Uiso   1.00
C130   C     0.86747   0.19128   0.31431   0.00000  Uiso   1.00
C131   C     0.79890   0.14278   0.30299   0.00000  Uiso   1.00
C132   C     0.86766   0.19073   0.03027   0.00000  Uiso   1.00
Cu133  Cu    0.83333   0.16667   0.21355   0.00000  Uiso   1.00
Cu134  Cu    0.83333   0.16666   0.11978   0.00000  Uiso   1.00
H135   H     0.99219   0.16688   0.11217   0.00000  Uiso   1.00
H136   H     0.67452   0.16752   0.22122   0.00000  Uiso   1.00
H137   H     0.86985   0.29361   0.10558   0.00000  Uiso   1.00
H138   H     0.79851   0.03861   0.22960   0.00000  Uiso   1.00
H139   H     0.77119   0.12375   0.27996   0.00000  Uiso   1.00
H140   H     0.89492   0.21018   0.05323   0.00000  Uiso   1.00
N141   N     0.83335   0.16668   0.28403   0.00000  Uiso   1.00
N142   N     0.83332   0.16666   0.04931   0.00000  Uiso   1.00
O143   O     0.83333   0.10655   0.20625   0.00000  Uiso   1.00
O144   O     0.83334   0.22678   0.12709   0.00000  Uiso   1.00
O145   O     0.83333   0.10654   0.12706   0.00000  Uiso   1.00
O146   O     0.83334   0.22679   0.20628   0.00000  Uiso   1.00
O147   O     0.75828   0.16667   0.19712   0.00000  Uiso   1.00
O148   O     0.90839   0.16666   0.13621   0.00000  Uiso   1.00
O149   O     0.75828   0.16666   0.11793   0.00000  Uiso   1.00
O150   O     0.90839   0.16667   0.21540   0.00000  Uiso   1.00
O151   O     0.85745   0.03978   0.08729   0.00000  Uiso   1.00
C152   C     0.83245   0.01969   0.04531   0.00000  Uiso   1.00
H153   H     0.83363   0.04184   0.01650   0.00000  Uiso   1.00
H154   H     0.85482   0.32619   0.03606   0.00000  Uiso   1.00
C155   C     0.77534   0.00654   0.04667   0.00000  Uiso   1.00
H156   H     0.77331   0.31052   0.06550   0.00000  Uiso   1.00
H157   H     0.75603   0.02995   0.06595   0.00000  Uiso   1.00
C158   C     0.74541   0.33310   0.33095   0.00000  Uiso   1.00
H159   H     0.70418   0.32616   0.00002   0.00000  Uiso   1.00
H160   H     0.76126   0.30648   0.31378   0.00000  Uiso   1.00
H161   H     0.74791   0.02765   0.30958   0.00000  Uiso   1.00
O162   O     0.78485   0.29300   0.23408   0.00000  Uiso   1.00
C163   C     0.73546   0.27804   0.21269   0.00000  Uiso   1.00
H164   H     0.72179   0.25522   0.23669   0.00000  Uiso   1.00
H165   H     0.73654   0.26132   0.17871   0.00000  Uiso   1.00
C166   C     0.69636   0.31264   0.20543   0.00000  Uiso   1.00
H167   H     0.69616   0.33003   0.23891   0.00000  Uiso   1.00
H168   H     0.70725   0.00097   0.17889   0.00000  Uiso   1.00
C169   C     0.97537   0.29558   0.18842   0.00000  Uiso   1.00
H170   H     0.97371   0.27980   0.15360   0.00000  Uiso   1.00
H171   H     0.94826   0.32142   0.18510   0.00000  Uiso   1.00
H172   H     0.96323   0.27355   0.21396   0.00000  Uiso   1.00
Br173  Br    0.74442   0.11068   0.03911   0.00000  Uiso   1.00
Br174  Br    0.91552   0.22890   0.29258   0.00000  Uiso   1.00
C175   C     0.16625   0.42066   0.16615   0.00000  Uiso   1.00
C176   C     0.16703   0.57912   0.16712   0.00000  Uiso   1.00
C177   C     0.06794   0.50013   0.15452   0.00000  Uiso   1.00
C178   C     0.26541   0.50026   0.17883   0.00000  Uiso   1.00
C179   C     0.01251   0.50038   0.14797   0.00000  Uiso   1.00
C180   C     0.32086   0.50059   0.18541   0.00000  Uiso   1.00
C181   C     0.18127   0.35324   0.12767   0.00000  Uiso   1.00
C182   C     0.14333   0.64571   0.20116   0.00000  Uiso   1.00
C183   C     0.18616   0.64415   0.13176   0.00000  Uiso   1.00
C184   C     0.14688   0.35507   0.20191   0.00000  Uiso   1.00
C185   C     0.16621   0.62360   0.16749   0.00000  Uiso   1.00
C186   C     0.16555   0.37578   0.16527   0.00000  Uiso   1.00
C187   C     0.13152   0.47642   0.01877   0.00000  Uiso   1.00
C188   C     0.20080   0.52461   0.31431   0.00000  Uiso   1.00
C189   C     0.13223   0.47611   0.30299   0.00000  Uiso   1.00
C190   C     0.20100   0.52407   0.03027   0.00000  Uiso   1.00
Cu191  Cu    0.16667   0.50001   0.21355   0.00000  Uiso   1.00
Cu192  Cu    0.16667   0.49999   0.11978   0.00000  Uiso   1.00
H193   H     0.32553   0.50022   0.11217   0.00000  Uiso   1.00
H194   H     0.00785   0.50085   0.22122   0.00000  Uiso   1.00
H195   H     0.20318   0.62695   0.10558   0.00000  Uiso   1.00
H196   H     0.13184   0.37194   0.22960   0.00000  Uiso   1.00
H197   H     0.10453   0.45708   0.27996   0.00000  Uiso   1.00
H198   H     0.22826   0.54352   0.05323   0.00000  Uiso   1.00
N199   N     0.16668   0.50001   0.28403   0.00000  Uiso   1.00
N200   N     0.16665   0.49999   0.04931   0.00000  Uiso   1.00
O201   O     0.16666   0.43989   0.20625   0.00000  Uiso   1.00
O202   O     0.16667   0.56011   0.12709   0.00000  Uiso   1.00
O203   O     0.16666   0.43988   0.12706   0.00000  Uiso   1.00
O204   O     0.16667   0.56012   0.20628   0.00000  Uiso   1.00
O205   O     0.09161   0.50000   0.19712   0.00000  Uiso   1.00
O206   O     0.24172   0.50000   0.13621   0.00000  Uiso   1.00
O207   O     0.09161   0.49999   0.11793   0.00000  Uiso   1.00
O208   O     0.24172   0.50001   0.21540   0.00000  Uiso   1.00
O209   O     0.19079   0.37312   0.08729   0.00000  Uiso   1.00
C210   C     0.16578   0.35302   0.04531   0.00000  Uiso   1.00
H211   H     0.16696   0.37517   0.01650   0.00000  Uiso   1.00
H212   H     0.18815   0.65953   0.03606   0.00000  Uiso   1.00
C213   C     0.10867   0.33988   0.04667   0.00000  Uiso   1.00
H214   H     0.10665   0.64386   0.06550   0.00000  Uiso   1.00
H215   H     0.08936   0.36328   0.06595   0.00000  Uiso   1.00
C216   C     0.07874   0.66644   0.33095   0.00000  Uiso   1.00
H217   H     0.03751   0.65950   0.00002   0.00000  Uiso   1.00
H218   H     0.09459   0.63981   0.31378   0.00000  Uiso   1.00
H219   H     0.08125   0.36098   0.30958   0.00000  Uiso   1.00
O220   O     0.11819   0.62633   0.23408   0.00000  Uiso   1.00
C221   C     0.06879   0.61138   0.21269   0.00000  Uiso   1.00
H222   H     0.05512   0.58855   0.23669   0.00000  Uiso   1.00
H223   H     0.06987   0.59465   0.17871   0.00000  Uiso   1.00
C224   C     0.02969   0.64598   0.20543   0.00000  Uiso   1.00
H225   H     0.02949   0.66336   0.23891   0.00000  Uiso   1.00
H226   H     0.04058   0.33430   0.17889   0.00000  Uiso   1.00
C227   C     0.30871   0.62892   0.18842   0.00000  Uiso   1.00
H228   H     0.30705   0.61314   0.15360   0.00000  Uiso   1.00
H229   H     0.28159   0.65476   0.18510   0.00000  Uiso   1.00
H230   H     0.29656   0.60688   0.21396   0.00000  Uiso   1.00
Br231  Br    0.07776   0.44401   0.03911   0.00000  Uiso   1.00
Br232  Br    0.24885   0.56224   0.29258   0.00000  Uiso   1.00
C233   C     0.49958   0.42066   0.16615   0.00000  Uiso   1.00
C234   C     0.50037   0.57912   0.16712   0.00000  Uiso   1.00
C235   C     0.40127   0.50013   0.15452   0.00000  Uiso   1.00
C236   C     0.59874   0.50026   0.17883   0.00000  Uiso   1.00
C237   C     0.34584   0.50038   0.14797   0.00000  Uiso   1.00
C238   C     0.65420   0.50059   0.18541   0.00000  Uiso   1.00
C239   C     0.51460   0.35324   0.12767   0.00000  Uiso   1.00
C240   C     0.47667   0.64571   0.20116   0.00000  Uiso   1.00
C241   C     0.51949   0.64415   0.13176   0.00000  Uiso   1.00
C242   C     0.48021   0.35507   0.20191   0.00000  Uiso   1.00
C243   C     0.49955   0.62360   0.16749   0.00000  Uiso   1.00
C244   C     0.49888   0.37578   0.16527   0.00000  Uiso   1.00
C245   C     0.46485   0.47642   0.01877   0.00000  Uiso   1.00
C246   C     0.53414   0.52461   0.31431   0.00000  Uiso   1.00
C247   C     0.46556   0.47611   0.30299   0.00000  Uiso   1.00
C248   C     0.53433   0.52407   0.03027   0.00000  Uiso   1.00
Cu249  Cu    0.50000   0.50001   0.21355   0.00000  Uiso   1.00
Cu250  Cu    0.50000   0.49999   0.11978   0.00000  Uiso   1.00
H251   H     0.65886   0.50022   0.11217   0.00000  Uiso   1.00
H252   H     0.34119   0.50085   0.22122   0.00000  Uiso   1.00
H253   H     0.53651   0.62695   0.10558   0.00000  Uiso   1.00
H254   H     0.46518   0.37194   0.22960   0.00000  Uiso   1.00
H255   H     0.43786   0.45708   0.27996   0.00000  Uiso   1.00
H256   H     0.56159   0.54352   0.05323   0.00000  Uiso   1.00
N257   N     0.50001   0.50001   0.28403   0.00000  Uiso   1.00
N258   N     0.49999   0.49999   0.04931   0.00000  Uiso   1.00
O259   O     0.50000   0.43989   0.20625   0.00000  Uiso   1.00
O260   O     0.50000   0.56011   0.12709   0.00000  Uiso   1.00
O261   O     0.50000   0.43988   0.12706   0.00000  Uiso   1.00
O262   O     0.50000   0.56012   0.20628   0.00000  Uiso   1.00
O263   O     0.42495   0.50000   0.19712   0.00000  Uiso   1.00
O264   O     0.57505   0.50000   0.13621   0.00000  Uiso   1.00
O265   O     0.42494   0.49999   0.11793   0.00000  Uiso   1.00
O266   O     0.57506   0.50001   0.21540   0.00000  Uiso   1.00
O267   O     0.52412   0.37312   0.08729   0.00000  Uiso   1.00
C268   C     0.49911   0.35302   0.04531   0.00000  Uiso   1.00
H269   H     0.50029   0.37517   0.01650   0.00000  Uiso   1.00
H270   H     0.52149   0.65953   0.03606   0.00000  Uiso   1.00
C271   C     0.44201   0.33988   0.04667   0.00000  Uiso   1.00
H272   H     0.43998   0.64386   0.06550   0.00000  Uiso   1.00
H273   H     0.42269   0.36328   0.06595   0.00000  Uiso   1.00
C274   C     0.41207   0.66644   0.33095   0.00000  Uiso   1.00
H275   H     0.37084   0.65950   0.00002   0.00000  Uiso   1.00
H276   H     0.42793   0.63981   0.31378   0.00000  Uiso   1.00
H277   H     0.41458   0.36098   0.30958   0.00000  Uiso   1.00
O278   O     0.45152   0.62633   0.23408   0.00000  Uiso   1.00
C279   C     0.40213   0.61138   0.21269   0.00000  Uiso   1.00
H280   H     0.38846   0.58855   0.23669   0.00000  Uiso   1.00
H281   H     0.40321   0.59465   0.17871   0.00000  Uiso   1.00
C282   C     0.36303   0.64598   0.20543   0.00000  Uiso   1.00
H283   H     0.36283   0.66336   0.23891   0.00000  Uiso   1.00
H284   H     0.37391   0.33430   0.17889   0.00000  Uiso   1.00
C285   C     0.64204   0.62892   0.18842   0.00000  Uiso   1.00
H286   H     0.64038   0.61314   0.15360   0.00000  Uiso   1.00
H287   H     0.61492   0.65476   0.18510   0.00000  Uiso   1.00
H288   H     0.62989   0.60688   0.21396   0.00000  Uiso   1.00
Br289  Br    0.41109   0.44401   0.03911   0.00000  Uiso   1.00
Br290  Br    0.58218   0.56224   0.29258   0.00000  Uiso   1.00
C291   C     0.83292   0.42066   0.16615   0.00000  Uiso   1.00
C292   C     0.83370   0.57912   0.16712   0.00000  Uiso   1.00
C293   C     0.73461   0.50013   0.15452   0.00000  Uiso   1.00
C294   C     0.93208   0.50026   0.17883   0.00000  Uiso   1.00
C295   C     0.67918   0.50038   0.14797   0.00000  Uiso   1.00
C296   C     0.98753   0.50059   0.18541   0.00000  Uiso   1.00
C297   C     0.84794   0.35324   0.12767   0.00000  Uiso   1.00
C298   C     0.81000   0.64571   0.20116   0.00000  Uiso   1.00
C299   C     0.85283   0.64415   0.13176   0.00000  Uiso   1.00
C300   C     0.81355   0.35507   0.20191   0.00000  Uiso   1.00
C301   C     0.83288   0.62360   0.16749   0.00000  Uiso   1.00
C302   C     0.83222   0.37578   0.16527   0.00000  Uiso   1.00
C303   C     0.79819   0.47642   0.01877   0.00000  Uiso   1.00
C304   C     0.86747   0.52461   0.31431   0.00000  Uiso   1.00
C305   C     0.79890   0.47611   0.30299   0.00000  Uiso   1.00
C306   C     0.86766   0.52407   0.03027   0.00000  Uiso   1.00
Cu307  Cu    0.83333   0.50001   0.21355   0.00000  Uiso   1.00
Cu308  Cu    0.83333   0.49999   0.11978   0.00000  Uiso   1.00
H309   H     0.99219   0.50022   0.11217   0.00000  Uiso   1.00
H310   H     0.67452   0.50085   0.22122   0.00000  Uiso   1.00
H311   H     0.86985   0.62695   0.10558   0.00000  Uiso   1.00
H312   H     0.79851   0.37194   0.22960   0.00000  Uiso   1.00
H313   H     0.77119   0.45708   0.27996   0.00000  Uiso   1.00
H314   H     0.89492   0.54352   0.05323   0.00000  Uiso   1.00
N315   N     0.83335   0.50001   0.28403   0.00000  Uiso   1.00
N316   N     0.83332   0.49999   0.04931   0.00000  Uiso   1.00
O317   O     0.83333   0.43989   0.20625   0.00000  Uiso   1.00
O318   O     0.83334   0.56011   0.12709   0.00000  Uiso   1.00
O319   O     0.83333   0.43988   0.12706   0.00000  Uiso   1.00
O320   O     0.83334   0.56012   0.20628   0.00000  Uiso   1.00
O321   O     0.75828   0.50000   0.19712   0.00000  Uiso   1.00
O322   O     0.90839   0.50000   0.13621   0.00000  Uiso   1.00
O323   O     0.75828   0.49999   0.11793   0.00000  Uiso   1.00
O324   O     0.90839   0.50001   0.21540   0.00000  Uiso   1.00
O325   O     0.85745   0.37312   0.08729   0.00000  Uiso   1.00
C326   C     0.83245   0.35302   0.04531   0.00000  Uiso   1.00
H327   H     0.83363   0.37517   0.01650   0.00000  Uiso   1.00
H328   H     0.85482   0.65953   0.03606   0.00000  Uiso   1.00
C329   C     0.77534   0.33988   0.04667   0.00000  Uiso   1.00
H330   H     0.77331   0.64386   0.06550   0.00000  Uiso   1.00
H331   H     0.75603   0.36328   0.06595   0.00000  Uiso   1.00
C332   C     0.74541   0.66644   0.33095   0.00000  Uiso   1.00
H333   H     0.70418   0.65950   0.00002   0.00000  Uiso   1.00
H334   H     0.76126   0.63981   0.31378   0.00000  Uiso   1.00
H335   H     0.74791   0.36098   0.30958   0.00000  Uiso   1.00
O336   O     0.78485   0.62633   0.23408   0.00000  Uiso   1.00
C337   C     0.73546   0.61138   0.21269   0.00000  Uiso   1.00
H338   H     0.72179   0.58855   0.23669   0.00000  Uiso   1.00
H339   H     0.73654   0.59465   0.17871   0.00000  Uiso   1.00
C340   C     0.69636   0.64598   0.20543   0.00000  Uiso   1.00
H341   H     0.69616   0.66336   0.23891   0.00000  Uiso   1.00
H342   H     0.70725   0.33430   0.17889   0.00000  Uiso   1.00
C343   C     0.97537   0.62892   0.18842   0.00000  Uiso   1.00
H344   H     0.97371   0.61314   0.15360   0.00000  Uiso   1.00
H345   H     0.94826   0.65476   0.18510   0.00000  Uiso   1.00
H346   H     0.96323   0.60688   0.21396   0.00000  Uiso   1.00
Br347  Br    0.74442   0.44401   0.03911   0.00000  Uiso   1.00
Br348  Br    0.91552   0.56224   0.29258   0.00000  Uiso   1.00
C349   C     0.16625   0.75399   0.16615   0.00000  Uiso   1.00
C350   C     0.16703   0.91246   0.16712   0.00000  Uiso   1.00
C351   C     0.06794   0.83346   0.15452   0.00000  Uiso   1.00
C352   C     0.26541   0.83360   0.17883   0.00000  Uiso   1.00
C353   C     0.01251   0.83371   0.14797   0.00000  Uiso   1.00
C354   C     0.32086   0.83392   0.18541   0.00000  Uiso   1.00
C355   C     0.18127   0.68658   0.12767   0.00000  Uiso   1.00
C356   C     0.14333   0.97904   0.20116   0.00000  Uiso   1.00
C357   C     0.18616   0.97748   0.13176   0.00000  Uiso   1.00
C358   C     0.14688   0.68840   0.20191   0.00000  Uiso   1.00
C359   C     0.16621   0.95693   0.16749   0.00000  Uiso   1.00
C360   C     0.16555   0.70911   0.16527   0.00000  Uiso   1.00
C361   C     0.13152   0.80975   0.01877   0.00000  Uiso   1.00
C362   C     0.20080   0.85794   0.31431   0.00000  Uiso   1.00
C363   C     0.13223   0.80944   0.30299   0.00000  Uiso   1.00
C364   C     0.20100   0.85740   0.03027   0.00000  Uiso   1.00
Cu365  Cu    0.16667   0.83334   0.21355   0.00000  Uiso   1.00
Cu366  Cu    0.16667   0.83333   0.11978   0.00000  Uiso   1.00
H367   H     0.32553   0.83355   0.11217   0.00000  Uiso   1.00
H368   H     0.00785   0.83418   0.22122   0.00000  Uiso   1.00
H369   H     0.20318   0.96028   0.10558   0.00000  Uiso   1.00
H370   H     0.13184   0.70527   0.22960   0.00000  Uiso   1.00
H371   H     0.10453   0.79041   0.27996   0.00000  Uiso   1.00
H372   H     0.22826   0.87685   0.05323   0.00000  Uiso   1.00
N373   N     0.16668   0.83334   0.28403   0.00000  Uiso   1.00
N374   N     0.16665   0.83332   0.04931   0.00000  Uiso   1.00
O375   O     0.16666   0.77322   0.20625   0.00000  Uiso   1.00
O376   O     0.16667   0.89345   0.12709   0.00000  Uiso   1.00
O377   O     0.16666   0.77321   0.12706   0.00000  Uiso   1.00
O378   O     0.16667   0.89346   0.20628   0.00000  Uiso   1.00
O379   O     0.09161   0.83334   0.19712   0.00000  Uiso   1.00
O380   O     0.24172   0.83333   0.13621   0.00000  Uiso   1.00
O381   O     0.09161   0.83333   0.11793   0.00000  Uiso   1.00
O382   O     0.24172   0.83334   0.21540   0.00000  Uiso   1.00
O383   O     0.19079   0.70645   0.08729   0.00000  Uiso   1.00
C384   C     0.16578   0.68635   0.04531   0.00000  Uiso   1.00
H385   H     0.16696   0.70851   0.01650   0.00000  Uiso   1.00
H386   H     0.18815   0.99286   0.03606   0.00000  Uiso   1.00
C387   C     0.10867   0.67321   0.04667   0.00000  Uiso   1.00
H388   H     0.10665   0.97719   0.06550   0.00000  Uiso   1.00
H389   H     0.08936   0.69661   0.06595   0.00000  Uiso   1.00
C390   C     0.07874   0.99977   0.33095   0.00000  Uiso   1.00
H391   H     0.03751   0.99283   0.00002   0.00000  Uiso   1.00
H392   H     0.09459   0.97314   0.31378   0.00000  Uiso   1.00
H393   H     0.08125   0.69432   0.30958   0.00000  Uiso   1.00
O394   O     0.11819   0.95966   0.23408   0.00000  Uiso   1.00
C395   C     0.06879   0.94471   0.21269   0.00000  Uiso   1.00
H396   H     0.05512   0.92189   0.23669   0.00000  Uiso   1.00
H397   H     0.06987   0.92799   0.17871   0.00000  Uiso   1.00
C398   C     0.02969   0.97931   0.20543   0.00000  Uiso   1.00
H399   H     0.02949   0.99669   0.23891   0.00000  Uiso   1.00
H400   H     0.04058   0.66764   0.17889   0.00000  Uiso   1.00
C401   C     0.30871   0.96225   0.18842   0.00000  Uiso   1.00
H402   H     0.30705   0.94647   0.15360   0.00000  Uiso   1.00
H403   H     0.28159   0.98809   0.18510   0.00000  Uiso   1.00
H404   H     0.29656   0.94021   0.21396   0.00000  Uiso   1.00
Br405  Br    0.07776   0.77734   0.03911   0.00000  Uiso   1.00
Br406  Br    0.24885   0.89557   0.29258   0.00000  Uiso   1.00
C407   C     0.49958   0.75399   0.16615   0.00000  Uiso   1.00
C408   C     0.50037   0.91246   0.16712   0.00000  Uiso   1.00
C409   C     0.40127   0.83346   0.15452   0.00000  Uiso   1.00
C410   C     0.59874   0.83360   0.17883   0.00000  Uiso   1.00
C411   C     0.34584   0.83371   0.14797   0.00000  Uiso   1.00
C412   C     0.65420   0.83392   0.18541   0.00000  Uiso   1.00
C413   C     0.51460   0.68658   0.12767   0.00000  Uiso   1.00
C414   C     0.47667   0.97904   0.20116   0.00000  Uiso   1.00
C415   C     0.51949   0.97748   0.13176   0.00000  Uiso   1.00
C416   C     0.48021   0.68840   0.20191   0.00000  Uiso   1.00
C417   C     0.49955   0.95693   0.16749   0.00000  Uiso   1.00
C418   C     0.49888   0.70911   0.16527   0.00000  Uiso   1.00
C419   C     0.46485   0.80975   0.01877   0.00000  Uiso   1.00
C420   C     0.53414   0.85794   0.31431   0.00000  Uiso   1.00
C421   C     0.46556   0.80944   0.30299   0.00000  Uiso   1.00
C422   C     0.53433   0.85740   0.03027   0.00000  Uiso   1.00
Cu423  Cu    0.50000   0.83334   0.21355   0.00000  Uiso   1.00
Cu424  Cu    0.50000   0.83333   0.11978   0.00000  Uiso   1.00
H425   H     0.65886   0.83355   0.11217   0.00000  Uiso   1.00
H426   H     0.34119   0.83418   0.22122   0.00000  Uiso   1.00
H427   H     0.53651   0.96028   0.10558   0.00000  Uiso   1.00
H428   H     0.46518   0.70527   0.22960   0.00000  Uiso   1.00
H429   H     0.43786   0.79041   0.27996   0.00000  Uiso   1.00
H430   H     0.56159   0.87685   0.05323   0.00000  Uiso   1.00
N431   N     0.50001   0.83334   0.28403   0.00000  Uiso   1.00
N432   N     0.49999   0.83332   0.04931   0.00000  Uiso   1.00
O433   O     0.50000   0.77322   0.20625   0.00000  Uiso   1.00
O434   O     0.50000   0.89345   0.12709   0.00000  Uiso   1.00
O435   O     0.50000   0.77321   0.12706   0.00000  Uiso   1.00
O436   O     0.50000   0.89346   0.20628   0.00000  Uiso   1.00
O437   O     0.42495   0.83334   0.19712   0.00000  Uiso   1.00
O438   O     0.57505   0.83333   0.13621   0.00000  Uiso   1.00
O439   O     0.42494   0.83333   0.11793   0.00000  Uiso   1.00
O440   O     0.57506   0.83334   0.21540   0.00000  Uiso   1.00
O441   O     0.52412   0.70645   0.08729   0.00000  Uiso   1.00
C442   C     0.49911   0.68635   0.04531   0.00000  Uiso   1.00
H443   H     0.50029   0.70851   0.01650   0.00000  Uiso   1.00
H444   H     0.52149   0.99286   0.03606   0.00000  Uiso   1.00
C445   C     0.44201   0.67321   0.04667   0.00000  Uiso   1.00
H446   H     0.43998   0.97719   0.06550   0.00000  Uiso   1.00
H447   H     0.42269   0.69661   0.06595   0.00000  Uiso   1.00
C448   C     0.41207   0.99977   0.33095   0.00000  Uiso   1.00
H449   H     0.37084   0.99283   0.00002   0.00000  Uiso   1.00
H450   H     0.42793   0.97314   0.31378   0.00000  Uiso   1.00
H451   H     0.41458   0.69432   0.30958   0.00000  Uiso   1.00
O452   O     0.45152   0.95966   0.23408   0.00000  Uiso   1.00
C453   C     0.40213   0.94471   0.21269   0.00000  Uiso   1.00
H454   H     0.38846   0.92189   0.23669   0.00000  Uiso   1.00
H455   H     0.40321   0.92799   0.17871   0.00000  Uiso   1.00
C456   C     0.36303   0.97931   0.20543   0.00000  Uiso   1.00
H457   H     0.36283   0.99669   0.23891   0.00000  Uiso   1.00
H458   H     0.37391   0.66764   0.17889   0.00000  Uiso   1.00
C459   C     0.64204   0.96225   0.18842   0.00000  Uiso   1.00
H460   H     0.64038   0.94647   0.15360   0.00000  Uiso   1.00
H461   H     0.61492   0.98809   0.18510   0.00000  Uiso   1.00
H462   H     0.62989   0.94021   0.21396   0.00000  Uiso   1.00
Br463  Br    0.41109   0.77734   0.03911   0.00000  Uiso   1.00
Br464  Br    0.58218   0.89557   0.29258   0.00000  Uiso   1.00
C465   C     0.83292   0.75399   0.16615   0.00000  Uiso   1.00
C466   C     0.83370   0.91246   0.16712   0.00000  Uiso   1.00
C467   C     0.73461   0.83346   0.15452   0.00000  Uiso   1.00
C468   C     0.93208   0.83360   0.17883   0.00000  Uiso   1.00
C469   C     0.67918   0.83371   0.14797   0.00000  Uiso   1.00
C470   C     0.98753   0.83392   0.18541   0.00000  Uiso   1.00
C471   C     0.84794   0.68658   0.12767   0.00000  Uiso   1.00
C472   C     0.81000   0.97904   0.20116   0.00000  Uiso   1.00
C473   C     0.85283   0.97748   0.13176   0.00000  Uiso   1.00
C474   C     0.81355   0.68840   0.20191   0.00000  Uiso   1.00
C475   C     0.83288   0.95693   0.16749   0.00000  Uiso   1.00
C476   C     0.83222   0.70911   0.16527   0.00000  Uiso   1.00
C477   C     0.79819   0.80975   0.01877   0.00000  Uiso   1.00
C478   C     0.86747   0.85794   0.31431   0.00000  Uiso   1.00
C479   C     0.79890   0.80944   0.30299   0.00000  Uiso   1.00
C480   C     0.86766   0.85740   0.03027   0.00000  Uiso   1.00
Cu481  Cu    0.83333   0.83334   0.21355   0.00000  Uiso   1.00
Cu482  Cu    0.83333   0.83333   0.11978   0.00000  Uiso   1.00
H483   H     0.99219   0.83355   0.11217   0.00000  Uiso   1.00
H484   H     0.67452   0.83418   0.22122   0.00000  Uiso   1.00
H485   H     0.86985   0.96028   0.10558   0.00000  Uiso   1.00
H486   H     0.79851   0.70527   0.22960   0.00000  Uiso   1.00
H487   H     0.77119   0.79041   0.27996   0.00000  Uiso   1.00
H488   H     0.89492   0.87685   0.05323   0.00000  Uiso   1.00
N489   N     0.83335   0.83334   0.28403   0.00000  Uiso   1.00
N490   N     0.83332   0.83332   0.04931   0.00000  Uiso   1.00
O491   O     0.83333   0.77322   0.20625   0.00000  Uiso   1.00
O492   O     0.83334   0.89345   0.12709   0.00000  Uiso   1.00
O493   O     0.83333   0.77321   0.12706   0.00000  Uiso   1.00
O494   O     0.83334   0.89346   0.20628   0.00000  Uiso   1.00
O495   O     0.75828   0.83334   0.19712   0.00000  Uiso   1.00
O496   O     0.90839   0.83333   0.13621   0.00000  Uiso   1.00
O497   O     0.75828   0.83333   0.11793   0.00000  Uiso   1.00
O498   O     0.90839   0.83334   0.21540   0.00000  Uiso   1.00
O499   O     0.85745   0.70645   0.08729   0.00000  Uiso   1.00
C500   C     0.83245   0.68635   0.04531   0.00000  Uiso   1.00
H501   H     0.83363   0.70851   0.01650   0.00000  Uiso   1.00
H502   H     0.85482   0.99286   0.03606   0.00000  Uiso   1.00
C503   C     0.77534   0.67321   0.04667   0.00000  Uiso   1.00
H504   H     0.77331   0.97719   0.06550   0.00000  Uiso   1.00
H505   H     0.75603   0.69661   0.06595   0.00000  Uiso   1.00
C506   C     0.74541   0.99977   0.33095   0.00000  Uiso   1.00
H507   H     0.70418   0.99283   0.00002   0.00000  Uiso   1.00
H508   H     0.76126   0.97314   0.31378   0.00000  Uiso   1.00
H509   H     0.74791   0.69432   0.30958   0.00000  Uiso   1.00
O510   O     0.78485   0.95966   0.23408   0.00000  Uiso   1.00
C511   C     0.73546   0.94471   0.21269   0.00000  Uiso   1.00
H512   H     0.72179   0.92189   0.23669   0.00000  Uiso   1.00
H513   H     0.73654   0.92799   0.17871   0.00000  Uiso   1.00
C514   C     0.69636   0.97931   0.20543   0.00000  Uiso   1.00
H515   H     0.69616   0.99669   0.23891   0.00000  Uiso   1.00
H516   H     0.70725   0.66764   0.17889   0.00000  Uiso   1.00
C517   C     0.97537   0.96225   0.18842   0.00000  Uiso   1.00
H518   H     0.97371   0.94647   0.15360   0.00000  Uiso   1.00
H519   H     0.94826   0.98809   0.18510   0.00000  Uiso   1.00
H520   H     0.96323   0.94021   0.21396   0.00000  Uiso   1.00
Br521  Br    0.74442   0.77734   0.03911   0.00000  Uiso   1.00
Br522  Br    0.91552   0.89557   0.29258   0.00000  Uiso   1.00
C523   C     0.16625   0.08733   0.49948   0.00000  Uiso   1.00
C524   C     0.16703   0.24579   0.50045   0.00000  Uiso   1.00
C525   C     0.06794   0.16679   0.48785   0.00000  Uiso   1.00
C526   C     0.26541   0.16693   0.51216   0.00000  Uiso   1.00
C527   C     0.01251   0.16705   0.48130   0.00000  Uiso   1.00
C528   C     0.32086   0.16726   0.51874   0.00000  Uiso   1.00
C529   C     0.18127   0.01991   0.46100   0.00000  Uiso   1.00
C530   C     0.14333   0.31238   0.53449   0.00000  Uiso   1.00
C531   C     0.18616   0.31082   0.46509   0.00000  Uiso   1.00
C532   C     0.14688   0.02173   0.53525   0.00000  Uiso   1.00
C533   C     0.16621   0.29026   0.50082   0.00000  Uiso   1.00
C534   C     0.16555   0.04245   0.49860   0.00000  Uiso   1.00
C535   C     0.13152   0.14308   0.35210   0.00000  Uiso   1.00
C536   C     0.20080   0.19128   0.64765   0.00000  Uiso   1.00
C537   C     0.13223   0.14278   0.63632   0.00000  Uiso   1.00
C538   C     0.20100   0.19073   0.36361   0.00000  Uiso   1.00
Cu539  Cu    0.16667   0.16667   0.54689   0.00000  Uiso   1.00
Cu540  Cu    0.16667   0.16666   0.45311   0.00000  Uiso   1.00
H541   H     0.32553   0.16688   0.44550   0.00000  Uiso   1.00
H542   H     0.00785   0.16752   0.55455   0.00000  Uiso   1.00
H543   H     0.20318   0.29361   0.43891   0.00000  Uiso   1.00
H544   H     0.13184   0.03861   0.56293   0.00000  Uiso   1.00
H545   H     0.10453   0.12375   0.61329   0.00000  Uiso   1.00
H546   H     0.22826   0.21018   0.38656   0.00000  Uiso   1.00
N547   N     0.16668   0.16668   0.61736   0.00000  Uiso   1.00
N548   N     0.16665   0.16666   0.38264   0.00000  Uiso   1.00
O549   O     0.16666   0.10655   0.53958   0.00000  Uiso   1.00
O550   O     0.16667   0.22678   0.46042   0.00000  Uiso   1.00
O551   O     0.16666   0.10654   0.46039   0.00000  Uiso   1.00
O552   O     0.16667   0.22679   0.53961   0.00000  Uiso   1.00
O553   O     0.09161   0.16667   0.53046   0.00000  Uiso   1.00
O554   O     0.24172   0.16666   0.46954   0.00000  Uiso   1.00
O555   O     0.09161   0.16666   0.45127   0.00000  Uiso   1.00
O556   O     0.24172   0.16667   0.54873   0.00000  Uiso   1.00
O557   O     0.19079   0.03978   0.42063   0.00000  Uiso   1.00
C558   C     0.16578   0.01969   0.37864   0.00000  Uiso   1.00
H559   H     0.16696   0.04184   0.34984   0.00000  Uiso   1.00
H560   H     0.18815   0.32619   0.36939   0.00000  Uiso   1.00
C561   C     0.10867   0.00654   0.38001   0.00000  Uiso   1.00
H562   H     0.10665   0.31052   0.39883   0.00000  Uiso   1.00
H563   H     0.08936   0.02995   0.39928   0.00000  Uiso   1.00
C564   C     0.07874   0.33310   0.66429   0.00000  Uiso   1.00
H565   H     0.03751   0.32616   0.33336   0.00000  Uiso   1.00
H566   H     0.09459   0.30648   0.64712   0.00000  Uiso   1.00
H567   H     0.08125   0.02765   0.64292   0.00000  Uiso   1.00
O568   O     0.11819   0.29300   0.56742   0.00000  Uiso   1.00
C569   C     0.06879   0.27804   0.54602   0.00000  Uiso   1.00
H570   H     0.05512   0.25522   0.57002   0.00000  Uiso   1.00
H571   H     0.06987   0.26132   0.51204   0.00000  Uiso   1.00
C572   C     0.02969   0.31264   0.53876   0.00000  Uiso   1.00
H573   H     0.02949   0.33003   0.57224   0.00000  Uiso   1.00
H574   H     0.04058   0.00097   0.51222   0.00000  Uiso   1.00
C575   C     0.30871   0.29558   0.52175   0.00000  Uiso   1.00
H576   H     0.30705   0.27980   0.48693   0.00000  Uiso   1.00
H577   H     0.28159   0.32142   0.51843   0.00000  Uiso   1.00
H578   H     0.29656   0.27355   0.54729   0.00000  Uiso   1.00
Br579  Br    0.07776   0.11068   0.37245   0.00000  Uiso   1.00
Br580  Br    0.24885   0.22890   0.62591   0.00000  Uiso   1.00
C581   C     0.49958   0.08733   0.49948   0.00000  Uiso   1.00
C582   C     0.50037   0.24579   0.50045   0.00000  Uiso   1.00
C583   C     0.40127   0.16679   0.48785   0.00000  Uiso   1.00
C584   C     0.59874   0.16693   0.51216   0.00000  Uiso   1.00
C585   C     0.34584   0.16705   0.48130   0.00000  Uiso   1.00
C586   C     0.65420   0.16726   0.51874   0.00000  Uiso   1.00
C587   C     0.51460   0.01991   0.46100   0.00000  Uiso   1.00
C588   C     0.47667   0.31238   0.53449   0.00000  Uiso   1.00
C589   C     0.51949   0.31082   0.46509   0.00000  Uiso   1.00
C590   C     0.48021   0.02173   0.53525   0.00000  Uiso   1.00
C591   C     0.49955   0.29026   0.50082   0.00000  Uiso   1.00
C592   C     0.49888   0.04245   0.49860   0.00000  Uiso   1.00
C593   C     0.46485   0.14308   0.35210   0.00000  Uiso   1.00
C594   C     0.53414   0.19128   0.64765   0.00000  Uiso   1.00
C595   C     0.46556   0.14278   0.63632   0.00000  Uiso   1.00
C596   C     0.53433   0.19073   0.36361   0.00000  Uiso   1.00
Cu597  Cu    0.50000   0.16667   0.54689   0.00000  Uiso   1.00
Cu598  Cu    0.50000   0.16666   0.45311   0.00000  Uiso   1.00
H599   H     0.65886   0.16688   0.44550   0.00000  Uiso   1.00
H600   H     0.34119   0.16752   0.55455   0.00000  Uiso   1.00
H601   H     0.53651   0.29361   0.43891   0.00000  Uiso   1.00
H602   H     0.46518   0.03861   0.56293   0.00000  Uiso   1.00
H603   H     0.43786   0.12375   0.61329   0.00000  Uiso   1.00
H604   H     0.56159   0.21018   0.38656   0.00000  Uiso   1.00
N605   N     0.50001   0.16668   0.61736   0.00000  Uiso   1.00
N606   N     0.49999   0.16666   0.38264   0.00000  Uiso   1.00
O607   O     0.50000   0.10655   0.53958   0.00000  Uiso   1.00
O608   O     0.50000   0.22678   0.46042   0.00000  Uiso   1.00
O609   O     0.50000   0.10654   0.46039   0.00000  Uiso   1.00
O610   O     0.50000   0.22679   0.53961   0.00000  Uiso   1.00
O611   O     0.42495   0.16667   0.53046   0.00000  Uiso   1.00
O612   O     0.57505   0.16666   0.46954   0.00000  Uiso   1.00
O613   O     0.42494   0.16666   0.45127   0.00000  Uiso   1.00
O614   O     0.57506   0.16667   0.54873   0.00000  Uiso   1.00
O615   O     0.52412   0.03978   0.42063   0.00000  Uiso   1.00
C616   C     0.49911   0.01969   0.37864   0.00000  Uiso   1.00
H617   H     0.50029   0.04184   0.34984   0.00000  Uiso   1.00
H618   H     0.52149   0.32619   0.36939   0.00000  Uiso   1.00
C619   C     0.44201   0.00654   0.38001   0.00000  Uiso   1.00
H620   H     0.43998   0.31052   0.39883   0.00000  Uiso   1.00
H621   H     0.42269   0.02995   0.39928   0.00000  Uiso   1.00
C622   C     0.41207   0.33310   0.66429   0.00000  Uiso   1.00
H623   H     0.37084   0.32616   0.33336   0.00000  Uiso   1.00
H624   H     0.42793   0.30648   0.64712   0.00000  Uiso   1.00
H625   H     0.41458   0.02765   0.64292   0.00000  Uiso   1.00
O626   O     0.45152   0.29300   0.56742   0.00000  Uiso   1.00
C627   C     0.40213   0.27804   0.54602   0.00000  Uiso   1.00
H628   H     0.38846   0.25522   0.57002   0.00000  Uiso   1.00
H629   H     0.40321   0.26132   0.51204   0.00000  Uiso   1.00
C630   C     0.36303   0.31264   0.53876   0.00000  Uiso   1.00
H631   H     0.36283   0.33003   0.57224   0.00000  Uiso   1.00
H632   H     0.37391   0.00097   0.51222   0.00000  Uiso   1.00
C633   C     0.64204   0.29558   0.52175   0.00000  Uiso   1.00
H634   H     0.64038   0.27980   0.48693   0.00000  Uiso   1.00
H635   H     0.61492   0.32142   0.51843   0.00000  Uiso   1.00
H636   H     0.62989   0.27355   0.54729   0.00000  Uiso   1.00
Br637  Br    0.41109   0.11068   0.37245   0.00000  Uiso   1.00
Br638  Br    0.58218   0.22890   0.62591   0.00000  Uiso   1.00
C639   C     0.83292   0.08733   0.49948   0.00000  Uiso   1.00
C640   C     0.83370   0.24579   0.50045   0.00000  Uiso   1.00
C641   C     0.73461   0.16679   0.48785   0.00000  Uiso   1.00
C642   C     0.93208   0.16693   0.51216   0.00000  Uiso   1.00
C643   C     0.67918   0.16705   0.48130   0.00000  Uiso   1.00
C644   C     0.98753   0.16726   0.51874   0.00000  Uiso   1.00
C645   C     0.84794   0.01991   0.46100   0.00000  Uiso   1.00
C646   C     0.81000   0.31238   0.53449   0.00000  Uiso   1.00
C647   C     0.85283   0.31082   0.46509   0.00000  Uiso   1.00
C648   C     0.81355   0.02173   0.53525   0.00000  Uiso   1.00
C649   C     0.83288   0.29026   0.50082   0.00000  Uiso   1.00
C650   C     0.83222   0.04245   0.49860   0.00000  Uiso   1.00
C651   C     0.79819   0.14308   0.35210   0.00000  Uiso   1.00
C652   C     0.86747   0.19128   0.64765   0.00000  Uiso   1.00
C653   C     0.79890   0.14278   0.63632   0.00000  Uiso   1.00
C654   C     0.86766   0.19073   0.36361   0.00000  Uiso   1.00
Cu655  Cu    0.83333   0.16667   0.54689   0.00000  Uiso   1.00
Cu656  Cu    0.83333   0.16666   0.45311   0.00000  Uiso   1.00
H657   H     0.99219   0.16688   0.44550   0.00000  Uiso   1.00
H658   H     0.67452   0.16752   0.55455   0.00000  Uiso   1.00
H659   H     0.86985   0.29361   0.43891   0.00000  Uiso   1.00
H660   H     0.79851   0.03861   0.56293   0.00000  Uiso   1.00
H661   H     0.77119   0.12375   0.61329   0.00000  Uiso   1.00
H662   H     0.89492   0.21018   0.38656   0.00000  Uiso   1.00
N663   N     0.83335   0.16668   0.61736   0.00000  Uiso   1.00
N664   N     0.83332   0.16666   0.38264   0.00000  Uiso   1.00
O665   O     0.83333   0.10655   0.53958   0.00000  Uiso   1.00
O666   O     0.83334   0.22678   0.46042   0.00000  Uiso   1.00
O667   O     0.83333   0.10654   0.46039   0.00000  Uiso   1.00
O668   O     0.83334   0.22679   0.53961   0.00000  Uiso   1.00
O669   O     0.75828   0.16667   0.53046   0.00000  Uiso   1.00
O670   O     0.90839   0.16666   0.46954   0.00000  Uiso   1.00
O671   O     0.75828   0.16666   0.45127   0.00000  Uiso   1.00
O672   O     0.90839   0.16667   0.54873   0.00000  Uiso   1.00
O673   O     0.85745   0.03978   0.42063   0.00000  Uiso   1.00
C674   C     0.83245   0.01969   0.37864   0.00000  Uiso   1.00
H675   H     0.83363   0.04184   0.34984   0.00000  Uiso   1.00
H676   H     0.85482   0.32619   0.36939   0.00000  Uiso   1.00
C677   C     0.77534   0.00654   0.38001   0.00000  Uiso   1.00
H678   H     0.77331   0.31052   0.39883   0.00000  Uiso   1.00
H679   H     0.75603   0.02995   0.39928   0.00000  Uiso   1.00
C680   C     0.74541   0.33310   0.66429   0.00000  Uiso   1.00
H681   H     0.70418   0.32616   0.33336   0.00000  Uiso   1.00
H682   H     0.76126   0.30648   0.64712   0.00000  Uiso   1.00
H683   H     0.74791   0.02765   0.64292   0.00000  Uiso   1.00
O684   O     0.78485   0.29300   0.56742   0.00000  Uiso   1.00
C685   C     0.73546   0.27804   0.54602   0.00000  Uiso   1.00
H686   H     0.72179   0.25522   0.57002   0.00000  Uiso   1.00
H687   H     0.73654   0.26132   0.51204   0.00000  Uiso   1.00
C688   C     0.69636   0.31264   0.53876   0.00000  Uiso   1.00
H689   H     0.69616   0.33003   0.57224   0.00000  Uiso   1.00
H690   H     0.70725   0.00097   0.51222   0.00000  Uiso   1.00
C691   C     0.97537   0.29558   0.52175   0.00000  Uiso   1.00
H692   H     0.97371   0.27980   0.48693   0.00000  Uiso   1.00
H693   H     0.94826   0.32142   0.51843   0.00000  Uiso   1.00
H694   H     0.96323   0.27355   0.54729   0.00000  Uiso   1.00
Br695  Br    0.74442   0.11068   0.37245   0.00000  Uiso   1.00
Br696  Br    0.91552   0.22890   0.62591   0.00000  Uiso   1.00
C697   C     0.16625   0.42066   0.49948   0.00000  Uiso   1.00
C698   C     0.16703   0.57912   0.50045   0.00000  Uiso   1.00
C699   C     0.06794   0.50013   0.48785   0.00000  Uiso   1.00
C700   C     0.26541   0.50026   0.51216   0.00000  Uiso   1.00
C701   C     0.01251   0.50038   0.48130   0.00000  Uiso   1.00
C702   C     0.32086   0.50059   0.51874   0.00000  Uiso   1.00
C703   C     0.18127   0.35324   0.46100   0.00000  Uiso   1.00
C704   C     0.14333   0.64571   0.53449   0.00000  Uiso   1.00
C705   C     0.18616   0.64415   0.46509   0.00000  Uiso   1.00
C706   C     0.14688   0.35507   0.53525   0.00000  Uiso   1.00
C707   C     0.16621   0.62360   0.50082   0.00000  Uiso   1.00
C708   C     0.16555   0.37578   0.49860   0.00000  Uiso   1.00
C709   C     0.13152   0.47642   0.35210   0.00000  Uiso   1.00
C710   C     0.20080   0.52461   0.64765   0.00000  Uiso   1.00
C711   C     0.13223   0.47611   0.63632   0.00000  Uiso   1.00
C712   C     0.20100   0.52407   0.36361   0.00000  Uiso   1.00
Cu713  Cu    0.16667   0.50001   0.54689   0.00000  Uiso   1.00
Cu714  Cu    0.16667   0.49999   0.45311   0.00000  Uiso   1.00
H715   H     0.32553   0.50022   0.44550   0.00000  Uiso   1.00
H716   H     0.00785   0.50085   0.55455   0.00000  Uiso   1.00
H717   H     0.20318   0.62695   0.43891   0.00000  Uiso   1.00
H718   H     0.13184   0.37194   0.56293   0.00000  Uiso   1.00
H719   H     0.10453   0.45708   0.61329   0.00000  Uiso   1.00
H720   H     0.22826   0.54352   0.38656   0.00000  Uiso   1.00
N721   N     0.16668   0.50001   0.61736   0.00000  Uiso   1.00
N722   N     0.16665   0.49999   0.38264   0.00000  Uiso   1.00
O723   O     0.16666   0.43989   0.53958   0.00000  Uiso   1.00
O724   O     0.16667   0.56011   0.46042   0.00000  Uiso   1.00
O725   O     0.16666   0.43988   0.46039   0.00000  Uiso   1.00
O726   O     0.16667   0.56012   0.53961   0.00000  Uiso   1.00
O727   O     0.09161   0.50000   0.53046   0.00000  Uiso   1.00
O728   O     0.24172   0.50000   0.46954   0.00000  Uiso   1.00
O729   O     0.09161   0.49999   0.45127   0.00000  Uiso   1.00
O730   O     0.24172   0.50001   0.54873   0.00000  Uiso   1.00
O731   O     0.19079   0.37312   0.42063   0.00000  Uiso   1.00
C732   C     0.16578   0.35302   0.37864   0.00000  Uiso   1.00
H733   H     0.16696   0.37517   0.34984   0.00000  Uiso   1.00
H734   H     0.18815   0.65953   0.36939   0.00000  Uiso   1.00
C735   C     0.10867   0.33988   0.38001   0.00000  Uiso   1.00
H736   H     0.10665   0.64386   0.39883   0.00000  Uiso   1.00
H737   H     0.08936   0.36328   0.39928   0.00000  Uiso   1.00
C738   C     0.07874   0.66644   0.66429   0.00000  Uiso   1.00
H739   H     0.03751   0.65950   0.33336   0.00000  Uiso   1.00
H740   H     0.09459   0.63981   0.64712   0.00000  Uiso   1.00
H741   H     0.08125   0.36098   0.64292   0.00000  Uiso   1.00
O742   O     0.11819   0.62633   0.56742   0.00000  Uiso   1.00
C743   C     0.06879   0.61138   0.54602   0.00000  Uiso   1.00
H744   H     0.05512   0.58855   0.57002   0.00000  Uiso   1.00
H745   H     0.06987   0.59465   0.51204   0.00000  Uiso   1.00
C746   C     0.02969   0.64598   0.53876   0.00000  Uiso   1.00
H747   H     0.02949   0.66336   0.57224   0.00000  Uiso   1.00
H748   H     0.04058   0.33430   0.51222   0.00000  Uiso   1.00
C749   C     0.30871   0.62892   0.52175   0.00000  Uiso   1.00
H750   H     0.30705   0.61314   0.48693   0.00000  Uiso   1.00
H751   H     0.28159   0.65476   0.51843   0.00000  Uiso   1.00
H752   H     0.29656   0.60688   0.54729   0.00000  Uiso   1.00
Br753  Br    0.07776   0.44401   0.37245   0.00000  Uiso   1.00
Br754  Br    0.24885   0.56224   0.62591   0.00000  Uiso   1.00
C755   C     0.49958   0.42066   0.49948   0.00000  Uiso   1.00
C756   C     0.50037   0.57912   0.50045   0.00000  Uiso   1.00
C757   C     0.40127   0.50013   0.48785   0.00000  Uiso   1.00
C758   C     0.59874   0.50026   0.51216   0.00000  Uiso   1.00
C759   C     0.34584   0.50038   0.48130   0.00000  Uiso   1.00
C760   C     0.65420   0.50059   0.51874   0.00000  Uiso   1.00
C761   C     0.51460   0.35324   0.46100   0.00000  Uiso   1.00
C762   C     0.47667   0.64571   0.53449   0.00000  Uiso   1.00
C763   C     0.51949   0.64415   0.46509   0.00000  Uiso   1.00
C764   C     0.48021   0.35507   0.53525   0.00000  Uiso   1.00
C765   C     0.49955   0.62360   0.50082   0.00000  Uiso   1.00
C766   C     0.49888   0.37578   0.49860   0.00000  Uiso   1.00
C767   C     0.46485   0.47642   0.35210   0.00000  Uiso   1.00
C768   C     0.53414   0.52461   0.64765   0.00000  Uiso   1.00
C769   C     0.46556   0.47611   0.63632   0.00000  Uiso   1.00
C770   C     0.53433   0.52407   0.36361   0.00000  Uiso   1.00
Cu771  Cu    0.50000   0.50001   0.54689   0.00000  Uiso   1.00
Cu772  Cu    0.50000   0.49999   0.45311   0.00000  Uiso   1.00
H773   H     0.65886   0.50022   0.44550   0.00000  Uiso   1.00
H774   H     0.34119   0.50085   0.55455   0.00000  Uiso   1.00
H775   H     0.53651   0.62695   0.43891   0.00000  Uiso   1.00
H776   H     0.46518   0.37194   0.56293   0.00000  Uiso   1.00
H777   H     0.43786   0.45708   0.61329   0.00000  Uiso   1.00
H778   H     0.56159   0.54352   0.38656   0.00000  Uiso   1.00
N779   N     0.50001   0.50001   0.61736   0.00000  Uiso   1.00
N780   N     0.49999   0.49999   0.38264   0.00000  Uiso   1.00
O781   O     0.50000   0.43989   0.53958   0.00000  Uiso   1.00
O782   O     0.50000   0.56011   0.46042   0.00000  Uiso   1.00
O783   O     0.50000   0.43988   0.46039   0.00000  Uiso   1.00
O784   O     0.50000   0.56012   0.53961   0.00000  Uiso   1.00
O785   O     0.42495   0.50000   0.53046   0.00000  Uiso   1.00
O786   O     0.57505   0.50000   0.46954   0.00000  Uiso   1.00
O787   O     0.42494   0.49999   0.45127   0.00000  Uiso   1.00
O788   O     0.57506   0.50001   0.54873   0.00000  Uiso   1.00
O789   O     0.52412   0.37312   0.42063   0.00000  Uiso   1.00
C790   C     0.49911   0.35302   0.37864   0.00000  Uiso   1.00
H791   H     0.50029   0.37517   0.34984   0.00000  Uiso   1.00
H792   H     0.52149   0.65953   0.36939   0.00000  Uiso   1.00
C793   C     0.44201   0.33988   0.38001   0.00000  Uiso   1.00
H794   H     0.43998   0.64386   0.39883   0.00000  Uiso   1.00
H795   H     0.42269   0.36328   0.39928   0.00000  Uiso   1.00
C796   C     0.41207   0.66644   0.66429   0.00000  Uiso   1.00
H797   H     0.37084   0.65950   0.33336   0.00000  Uiso   1.00
H798   H     0.42793   0.63981   0.64712   0.00000  Uiso   1.00
H799   H     0.41458   0.36098   0.64292   0.00000  Uiso   1.00
O800   O     0.45152   0.62633   0.56742   0.00000  Uiso   1.00
C801   C     0.40213   0.61138   0.54602   0.00000  Uiso   1.00
H802   H     0.38846   0.58855   0.57002   0.00000  Uiso   1.00
H803   H     0.40321   0.59465   0.51204   0.00000  Uiso   1.00
C804   C     0.36303   0.64598   0.53876   0.00000  Uiso   1.00
H805   H     0.36283   0.66336   0.57224   0.00000  Uiso   1.00
H806   H     0.37391   0.33430   0.51222   0.00000  Uiso   1.00
C807   C     0.64204   0.62892   0.52175   0.00000  Uiso   1.00
H808   H     0.64038   0.61314   0.48693   0.00000  Uiso   1.00
H809   H     0.61492   0.65476   0.51843   0.00000  Uiso   1.00
H810   H     0.62989   0.60688   0.54729   0.00000  Uiso   1.00
Br811  Br    0.41109   0.44401   0.37245   0.00000  Uiso   1.00
Br812  Br    0.58218   0.56224   0.62591   0.00000  Uiso   1.00
C813   C     0.83292   0.42066   0.49948   0.00000  Uiso   1.00
C814   C     0.83370   0.57912   0.50045   0.00000  Uiso   1.00
C815   C     0.73461   0.50013   0.48785   0.00000  Uiso   1.00
C816   C     0.93208   0.50026   0.51216   0.00000  Uiso   1.00
C817   C     0.67918   0.50038   0.48130   0.00000  Uiso   1.00
C818   C     0.98753   0.50059   0.51874   0.00000  Uiso   1.00
C819   C     0.84794   0.35324   0.46100   0.00000  Uiso   1.00
C820   C     0.81000   0.64571   0.53449   0.00000  Uiso   1.00
C821   C     0.85283   0.64415   0.46509   0.00000  Uiso   1.00
C822   C     0.81355   0.35507   0.53525   0.00000  Uiso   1.00
C823   C     0.83288   0.62360   0.50082   0.00000  Uiso   1.00
C824   C     0.83222   0.37578   0.49860   0.00000  Uiso   1.00
C825   C     0.79819   0.47642   0.35210   0.00000  Uiso   1.00
C826   C     0.86747   0.52461   0.64765   0.00000  Uiso   1.00
C827   C     0.79890   0.47611   0.63632   0.00000  Uiso   1.00
C828   C     0.86766   0.52407   0.36361   0.00000  Uiso   1.00
Cu829  Cu    0.83333   0.50001   0.54689   0.00000  Uiso   1.00
Cu830  Cu    0.83333   0.49999   0.45311   0.00000  Uiso   1.00
H831   H     0.99219   0.50022   0.44550   0.00000  Uiso   1.00
H832   H     0.67452   0.50085   0.55455   0.00000  Uiso   1.00
H833   H     0.86985   0.62695   0.43891   0.00000  Uiso   1.00
H834   H     0.79851   0.37194   0.56293   0.00000  Uiso   1.00
H835   H     0.77119   0.45708   0.61329   0.00000  Uiso   1.00
H836   H     0.89492   0.54352   0.38656   0.00000  Uiso   1.00
N837   N     0.83335   0.50001   0.61736   0.00000  Uiso   1.00
N838   N     0.83332   0.49999   0.38264   0.00000  Uiso   1.00
O839   O     0.83333   0.43989   0.53958   0.00000  Uiso   1.00
O840   O     0.83334   0.56011   0.46042   0.00000  Uiso   1.00
O841   O     0.83333   0.43988   0.46039   0.00000  Uiso   1.00
O842   O     0.83334   0.56012   0.53961   0.00000  Uiso   1.00
O843   O     0.75828   0.50000   0.53046   0.00000  Uiso   1.00
O844   O     0.90839   0.50000   0.46954   0.00000  Uiso   1.00
O845   O     0.75828   0.49999   0.45127   0.00000  Uiso   1.00
O846   O     0.90839   0.50001   0.54873   0.00000  Uiso   1.00
O847   O     0.85745   0.37312   0.42063   0.00000  Uiso   1.00
C848   C     0.83245   0.35302   0.37864   0.00000  Uiso   1.00
H849   H     0.83363   0.37517   0.34984   0.00000  Uiso   1.00
H850   H     0.85482   0.65953   0.36939   0.00000  Uiso   1.00
C851   C     0.77534   0.33988   0.38001   0.00000  Uiso   1.00
H852   H     0.77331   0.64386   0.39883   0.00000  Uiso   1.00
H853   H     0.75603   0.36328   0.39928   0.00000  Uiso   1.00
C854   C     0.74541   0.66644   0.66429   0.00000  Uiso   1.00
H855   H     0.70418   0.65950   0.33336   0.00000  Uiso   1.00
H856   H     0.76126   0.63981   0.64712   0.00000  Uiso   1.00
H857   H     0.74791   0.36098   0.64292   0.00000  Uiso   1.00
O858   O     0.78485   0.62633   0.56742   0.00000  Uiso   1.00
C859   C     0.73546   0.61138   0.54602   0.00000  Uiso   1.00
H860   H     0.72179   0.58855   0.57002   0.00000  Uiso   1.00
H861   H     0.73654   0.59465   0.51204   0.00000  Uiso   1.00
C862   C     0.69636   0.64598   0.53876   0.00000  Uiso   1.00
H863   H     0.69616   0.66336   0.57224   0.00000  Uiso   1.00
H864   H     0.70725   0.33430   0.51222   0.00000  Uiso   1.00
C865   C     0.97537   0.62892   0.52175   0.00000  Uiso   1.00
H866   H     0.97371   0.61314   0.48693   0.00000  Uiso   1.00
H867   H     0.94826   0.65476   0.51843   0.00000  Uiso   1.00
H868   H     0.96323   0.60688   0.54729   0.00000  Uiso   1.00
Br869  Br    0.74442   0.44401   0.37245   0.00000  Uiso   1.00
Br870  Br    0.91552   0.56224   0.62591   0.00000  Uiso   1.00
C871   C     0.16625   0.75399   0.49948   0.00000  Uiso   1.00
C872   C     0.16703   0.91246   0.50045   0.00000  Uiso   1.00
C873   C     0.06794   0.83346   0.48785   0.00000  Uiso   1.00
C874   C     0.26541   0.83360   0.51216   0.00000  Uiso   1.00
C875   C     0.01251   0.83371   0.48130   0.00000  Uiso   1.00
C876   C     0.32086   0.83392   0.51874   0.00000  Uiso   1.00
C877   C     0.18127   0.68658   0.46100   0.00000  Uiso   1.00
C878   C     0.14333   0.97904   0.53449   0.00000  Uiso   1.00
C879   C     0.18616   0.97748   0.46509   0.00000  Uiso   1.00
C880   C     0.14688   0.68840   0.53525   0.00000  Uiso   1.00
C881   C     0.16621   0.95693   0.50082   0.00000  Uiso   1.00
C882   C     0.16555   0.70911   0.49860   0.00000  Uiso   1.00
C883   C     0.13152   0.80975   0.35210   0.00000  Uiso   1.00
C884   C     0.20080   0.85794   0.64765   0.00000  Uiso   1.00
C885   C     0.13223   0.80944   0.63632   0.00000  Uiso   1.00
C886   C     0.20100   0.85740   0.36361   0.00000  Uiso   1.00
Cu887  Cu    0.16667   0.83334   0.54689   0.00000  Uiso   1.00
Cu888  Cu    0.16667   0.83333   0.45311   0.00000  Uiso   1.00
H889   H     0.32553   0.83355   0.44550   0.00000  Uiso   1.00
H890   H     0.00785   0.83418   0.55455   0.00000  Uiso   1.00
H891   H     0.20318   0.96028   0.43891   0.00000  Uiso   1.00
H892   H     0.13184   0.70527   0.56293   0.00000  Uiso   1.00
H893   H     0.10453   0.79041   0.61329   0.00000  Uiso   1.00
H894   H     0.22826   0.87685   0.38656   0.00000  Uiso   1.00
N895   N     0.16668   0.83334   0.61736   0.00000  Uiso   1.00
N896   N     0.16665   0.83332   0.38264   0.00000  Uiso   1.00
O897   O     0.16666   0.77322   0.53958   0.00000  Uiso   1.00
O898   O     0.16667   0.89345   0.46042   0.00000  Uiso   1.00
O899   O     0.16666   0.77321   0.46039   0.00000  Uiso   1.00
O900   O     0.16667   0.89346   0.53961   0.00000  Uiso   1.00
O901   O     0.09161   0.83334   0.53046   0.00000  Uiso   1.00
O902   O     0.24172   0.83333   0.46954   0.00000  Uiso   1.00
O903   O     0.09161   0.83333   0.45127   0.00000  Uiso   1.00
O904   O     0.24172   0.83334   0.54873   0.00000  Uiso   1.00
O905   O     0.19079   0.70645   0.42063   0.00000  Uiso   1.00
C906   C     0.16578   0.68635   0.37864   0.00000  Uiso   1.00
H907   H     0.16696   0.70851   0.34984   0.00000  Uiso   1.00
H908   H     0.18815   0.99286   0.36939   0.00000  Uiso   1.00
C909   C     0.10867   0.67321   0.38001   0.00000  Uiso   1.00
H910   H     0.10665   0.97719   0.39883   0.00000  Uiso   1.00
H911   H     0.08936   0.69661   0.39928   0.00000  Uiso   1.00
C912   C     0.07874   0.99977   0.66429   0.00000  Uiso   1.00
H913   H     0.03751   0.99283   0.33336   0.00000  Uiso   1.00
H914   H     0.09459   0.97314   0.64712   0.00000  Uiso   1.00
H915   H     0.08125   0.69432   0.64292   0.00000  Uiso   1.00
O916   O     0.11819   0.95966   0.56742   0.00000  Uiso   1.00
C917   C     0.06879   0.94471   0.54602   0.00000  Uiso   1.00
H918   H     0.05512   0.92189   0.57002   0.00000  Uiso   1.00
H919   H     0.06987   0.92799   0.51204   0.00000  Uiso   1.00
C920   C     0.02969   0.97931   0.53876   0.00000  Uiso   1.00
H921   H     0.02949   0.99669   0.57224   0.00000  Uiso   1.00
H922   H     0.04058   0.66764   0.51222   0.00000  Uiso   1.00
C923   C     0.30871   0.96225   0.52175   0.00000  Uiso   1.00
H924   H     0.30705   0.94647   0.48693   0.00000  Uiso   1.00
H925   H     0.28159   0.98809   0.51843   0.00000  Uiso   1.00
H926   H     0.29656   0.94021   0.54729   0.00000  Uiso   1.00
Br927  Br    0.07776   0.77734   0.37245   0.00000  Uiso   1.00
Br928  Br    0.24885   0.89557   0.62591   0.00000  Uiso   1.00
C929   C     0.49958   0.75399   0.49948   0.00000  Uiso   1.00
C930   C     0.50037   0.91246   0.50045   0.00000  Uiso   1.00
C931   C     0.40127   0.83346   0.48785   0.00000  Uiso   1.00
C932   C     0.59874   0.83360   0.51216   0.00000  Uiso   1.00
C933   C     0.34584   0.83371   0.48130   0.00000  Uiso   1.00
C934   C     0.65420   0.83392   0.51874   0.00000  Uiso   1.00
C935   C     0.51460   0.68658   0.46100   0.00000  Uiso   1.00
C936   C     0.47667   0.97904   0.53449   0.00000  Uiso   1.00
C937   C     0.51949   0.97748   0.46509   0.00000  Uiso   1.00
C938   C     0.48021   0.68840   0.53525   0.00000  Uiso   1.00
C939   C     0.49955   0.95693   0.50082   0.00000  Uiso   1.00
C940   C     0.49888   0.70911   0.49860   0.00000  Uiso   1.00
C941   C     0.46485   0.80975   0.35210   0.00000  Uiso   1.00
C942   C     0.53414   0.85794   0.64765   0.00000  Uiso   1.00
C943   C     0.46556   0.80944   0.63632   0.00000  Uiso   1.00
C944   C     0.53433   0.85740   0.36361   0.00000  Uiso   1.00
Cu945  Cu    0.50000   0.83334   0.54689   0.00000  Uiso   1.00
Cu946  Cu    0.50000   0.83333   0.45311   0.00000  Uiso   1.00
H947   H     0.65886   0.83355   0.44550   0.00000  Uiso   1.00
H948   H     0.34119   0.83418   0.55455   0.00000  Uiso   1.00
H949   H     0.53651   0.96028   0.43891   0.00000  Uiso   1.00
H950   H     0.46518   0.70527   0.56293   0.00000  Uiso   1.00
H951   H     0.43786   0.79041   0.61329   0.00000  Uiso   1.00
H952   H     0.56159   0.87685   0.38656   0.00000  Uiso   1.00
N953   N     0.50001   0.83334   0.61736   0.00000  Uiso   1.00
N954   N     0.49999   0.83332   0.38264   0.00000  Uiso   1.00
O955   O     0.50000   0.77322   0.53958   0.00000  Uiso   1.00
O956   O     0.50000   0.89345   0.46042   0.00000  Uiso   1.00
O957   O     0.50000   0.77321   0.46039   0.00000  Uiso   1.00
O958   O     0.50000   0.89346   0.53961   0.00000  Uiso   1.00
O959   O     0.42495   0.83334   0.53046   0.00000  Uiso   1.00
O960   O     0.57505   0.83333   0.46954   0.00000  Uiso   1.00
O961   O     0.42494   0.83333   0.45127   0.00000  Uiso   1.00
O962   O     0.57506   0.83334   0.54873   0.00000  Uiso   1.00
O963   O     0.52412   0.70645   0.42063   0.00000  Uiso   1.00
C964   C     0.49911   0.68635   0.37864   0.00000  Uiso   1.00
H965   H     0.50029   0.70851   0.34984   0.00000  Uiso   1.00
H966   H     0.52149   0.99286   0.36939   0.00000  Uiso   1.00
C967   C     0.44201   0.67321   0.38001   0.00000  Uiso   1.00
H968   H     0.43998   0.97719   0.39883   0.00000  Uiso   1.00
H969   H     0.42269   0.69661   0.39928   0.00000  Uiso   1.00
C970   C     0.41207   0.99977   0.66429   0.00000  Uiso   1.00
H971   H     0.37084   0.99283   0.33336   0.00000  Uiso   1.00
H972   H     0.42793   0.97314   0.64712   0.00000  Uiso   1.00
H973   H     0.41458   0.69432   0.64292   0.00000  Uiso   1.00
O974   O     0.45152   0.95966   0.56742   0.00000  Uiso   1.00
C975   C     0.40213   0.94471   0.54602   0.00000  Uiso   1.00
H976   H     0.38846   0.92189   0.57002   0.00000  Uiso   1.00
H977   H     0.40321   0.92799   0.51204   0.00000  Uiso   1.00
C978   C     0.36303   0.97931   0.53876   0.00000  Uiso   1.00
H979   H     0.36283   0.99669   0.57224   0.00000  Uiso   1.00
H980   H     0.37391   0.66764   0.51222   0.00000  Uiso   1.00
C981   C     0.64204   0.96225   0.52175   0.00000  Uiso   1.00
H982   H     0.64038   0.94647   0.48693   0.00000  Uiso   1.00
H983   H     0.61492   0.98809   0.51843   0.00000  Uiso   1.00
H984   H     0.62989   0.94021   0.54729   0.00000  Uiso   1.00
Br985  Br    0.41109   0.77734   0.37245   0.00000  Uiso   1.00
Br986  Br    0.58218   0.89557   0.62591   0.00000  Uiso   1.00
C987   C     0.83292   0.75399   0.49948   0.00000  Uiso   1.00
C988   C     0.83370   0.91246   0.50045   0.00000  Uiso   1.00
C989   C     0.73461   0.83346   0.48785   0.00000  Uiso   1.00
C990   C     0.93208   0.83360   0.51216   0.00000  Uiso   1.00
C991   C     0.67918   0.83371   0.48130   0.00000  Uiso   1.00
C992   C     0.98753   0.83392   0.51874   0.00000  Uiso   1.00
C993   C     0.84794   0.68658   0.46100   0.00000  Uiso   1.00
C994   C     0.81000   0.97904   0.53449   0.00000  Uiso   1.00
C995   C     0.85283   0.97748   0.46509   0.00000  Uiso   1.00
C996   C     0.81355   0.68840   0.53525   0.00000  Uiso   1.00
C997   C     0.83288   0.95693   0.50082   0.00000  Uiso   1.00
C998   C     0.83222   0.70911   0.49860   0.00000  Uiso   1.00
C999   C     0.79819   0.80975   0.35210   0.00000  Uiso   1.00
C1000  C     0.86747   0.85794   0.64765   0.00000  Uiso   1.00
C1001  C     0.79890   0.80944   0.63632   0.00000  Uiso   1.00
C1002  C     0.86766   0.85740   0.36361   0.00000  Uiso   1.00
Cu1003 Cu    0.83333   0.83334   0.54689   0.00000  Uiso   1.00
Cu1004 Cu    0.83333   0.83333   0.45311   0.00000  Uiso   1.00
H1005  H     0.99219   0.83355   0.44550   0.00000  Uiso   1.00
H1006  H     0.67452   0.83418   0.55455   0.00000  Uiso   1.00
H1007  H     0.86985   0.96028   0.43891   0.00000  Uiso   1.00
H1008  H     0.79851   0.70527   0.56293   0.00000  Uiso   1.00
H1009  H     0.77119   0.79041   0.61329   0.00000  Uiso   1.00
H1010  H     0.89492   0.87685   0.38656   0.00000  Uiso   1.00
N1011  N     0.83335   0.83334   0.61736   0.00000  Uiso   1.00
N1012  N     0.83332   0.83332   0.38264   0.00000  Uiso   1.00
O1013  O     0.83333   0.77322   0.53958   0.00000  Uiso   1.00
O1014  O     0.83334   0.89345   0.46042   0.00000  Uiso   1.00
O1015  O     0.83333   0.77321   0.46039   0.00000  Uiso   1.00
O1016  O     0.83334   0.89346   0.53961   0.00000  Uiso   1.00
O1017  O     0.75828   0.83334   0.53046   0.00000  Uiso   1.00
O1018  O     0.90839   0.83333   0.46954   0.00000  Uiso   1.00
O1019  O     0.75828   0.83333   0.45127   0.00000  Uiso   1.00
O1020  O     0.90839   0.83334   0.54873   0.00000  Uiso   1.00
O1021  O     0.85745   0.70645   0.42063   0.00000  Uiso   1.00
C1022  C     0.83245   0.68635   0.37864   0.00000  Uiso   1.00
H1023  H     0.83363   0.70851   0.34984   0.00000  Uiso   1.00
H1024  H     0.85482   0.99286   0.36939   0.00000  Uiso   1.00
C1025  C     0.77534   0.67321   0.38001   0.00000  Uiso   1.00
H1026  H     0.77331   0.97719   0.39883   0.00000  Uiso   1.00
H1027  H     0.75603   0.69661   0.39928   0.00000  Uiso   1.00
C1028  C     0.74541   0.99977   0.66429   0.00000  Uiso   1.00
H1029  H     0.70418   0.99283   0.33336   0.00000  Uiso   1.00
H1030  H     0.76126   0.97314   0.64712   0.00000  Uiso   1.00
H1031  H     0.74791   0.69432   0.64292   0.00000  Uiso   1.00
O1032  O     0.78485   0.95966   0.56742   0.00000  Uiso   1.00
C1033  C     0.73546   0.94471   0.54602   0.00000  Uiso   1.00
H1034  H     0.72179   0.92189   0.57002   0.00000  Uiso   1.00
H1035  H     0.73654   0.92799   0.51204   0.00000  Uiso   1.00
C1036  C     0.69636   0.97931   0.53876   0.00000  Uiso   1.00
H1037  H     0.69616   0.99669   0.57224   0.00000  Uiso   1.00
H1038  H     0.70725   0.66764   0.51222   0.00000  Uiso   1.00
C1039  C     0.97537   0.96225   0.52175   0.00000  Uiso   1.00
H1040  H     0.97371   0.94647   0.48693   0.00000  Uiso   1.00
H1041  H     0.94826   0.98809   0.51843   0.00000  Uiso   1.00
H1042  H     0.96323   0.94021   0.54729   0.00000  Uiso   1.00
Br1043 Br    0.74442   0.77734   0.37245   0.00000  Uiso   1.00
Br1044 Br    0.91552   0.89557   0.62591   0.00000  Uiso   1.00
C1045  C     0.16625   0.08733   0.83281   0.00000  Uiso   1.00
C1046  C     0.16703   0.24579   0.83378   0.00000  Uiso   1.00
C1047  C     0.06794   0.16679   0.82119   0.00000  Uiso   1.00
C1048  C     0.26541   0.16693   0.84550   0.00000  Uiso   1.00
C1049  C     0.01251   0.16705   0.81464   0.00000  Uiso   1.00
C1050  C     0.32086   0.16726   0.85208   0.00000  Uiso   1.00
C1051  C     0.18127   0.01991   0.79434   0.00000  Uiso   1.00
C1052  C     0.14333   0.31238   0.86783   0.00000  Uiso   1.00
C1053  C     0.18616   0.31082   0.79843   0.00000  Uiso   1.00
C1054  C     0.14688   0.02173   0.86858   0.00000  Uiso   1.00
C1055  C     0.16621   0.29026   0.83415   0.00000  Uiso   1.00
C1056  C     0.16555   0.04245   0.83193   0.00000  Uiso   1.00
C1057  C     0.13152   0.14308   0.68543   0.00000  Uiso   1.00
C1058  C     0.20080   0.19128   0.98098   0.00000  Uiso   1.00
C1059  C     0.13223   0.14278   0.96966   0.00000  Uiso   1.00
C1060  C     0.20100   0.19073   0.69694   0.00000  Uiso   1.00
Cu1061 Cu    0.16667   0.16667   0.88022   0.00000  Uiso   1.00
Cu1062 Cu    0.16667   0.16666   0.78645   0.00000  Uiso   1.00
H1063  H     0.32553   0.16688   0.77884   0.00000  Uiso   1.00
H1064  H     0.00785   0.16752   0.88788   0.00000  Uiso   1.00
H1065  H     0.20318   0.29361   0.77224   0.00000  Uiso   1.00
H1066  H     0.13184   0.03861   0.89626   0.00000  Uiso   1.00
H1067  H     0.10453   0.12375   0.94662   0.00000  Uiso   1.00
H1068  H     0.22826   0.21018   0.71990   0.00000  Uiso   1.00
N1069  N     0.16668   0.16668   0.95069   0.00000  Uiso   1.00
N1070  N     0.16665   0.16666   0.71597   0.00000  Uiso   1.00
O1071  O     0.16666   0.10655   0.87291   0.00000  Uiso   1.00
O1072  O     0.16667   0.22678   0.79375   0.00000  Uiso   1.00
O1073  O     0.16666   0.10654   0.79372   0.00000  Uiso   1.00
O1074  O     0.16667   0.22679   0.87294   0.00000  Uiso   1.00
O1075  O     0.09161   0.16667   0.86379   0.00000  Uiso   1.00
O1076  O     0.24172   0.16666   0.80288   0.00000  Uiso   1.00
O1077  O     0.09161   0.16666   0.78460   0.00000  Uiso   1.00
O1078  O     0.24172   0.16667   0.88207   0.00000  Uiso   1.00
O1079  O     0.19079   0.03978   0.75396   0.00000  Uiso   1.00
C1080  C     0.16578   0.01969   0.71198   0.00000  Uiso   1.00
H1081  H     0.16696   0.04184   0.68317   0.00000  Uiso   1.00
H1082  H     0.18815   0.32619   0.70272   0.00000  Uiso   1.00
C1083  C     0.10867   0.00654   0.71334   0.00000  Uiso   1.00
H1084  H     0.10665   0.31052   0.73216   0.00000  Uiso   1.00
H1085  H     0.08936   0.02995   0.73262   0.00000  Uiso   1.00
C1086  C     0.07874   0.33310   0.99762   0.00000  Uiso   1.00
H1087  H     0.03751   0.32616   0.66669   0.00000  Uiso   1.00
H1088  H     0.09459   0.30648   0.98045   0.00000  Uiso   1.00
H1089  H     0.08125   0.02765   0.97625   0.00000  Uiso   1.00
O1090  O     0.11819   0.29300   0.90075   0.00000  Uiso   1.00
C1091  C     0.06879   0.27804   0.87935   0.00000  Uiso   1.00
H1092  H     0.05512   0.25522   0.90335   0.00000  Uiso   1.00
H1093  H     0.06987   0.26132   0.84537   0.00000  Uiso   1.00
C1094  C     0.02969   0.31264   0.87209   0.00000  Uiso   1.00
H1095  H     0.02949   0.33003   0.90558   0.00000  Uiso   1.00
H1096  H     0.04058   0.00097   0.84556   0.00000  Uiso   1.00
C1097  C     0.30871   0.29558   0.85508   0.00000  Uiso   1.00
H1098  H     0.30705   0.27980   0.82027   0.00000  Uiso   1.00
H1099  H     0.28159   0.32142   0.85177   0.00000  Uiso   1.00
H1100  H     0.29656   0.27355   0.88063   0.00000  Uiso   1.00
Br1101 Br    0.07776   0.11068   0.70578   0.00000  Uiso   1.00
Br1102 Br    0.24885   0.22890   0.95924   0.00000  Uiso   1.00
C1103  C     0.49958   0.08733   0.83281   0.00000  Uiso   1.00
C1104  C     0.50037   0.24579   0.83378   0.00000  Uiso   1.00
C1105  C     0.40127   0.16679   0.82119   0.00000  Uiso   1.00
C1106  C     0.59874   0.16693   0.84550   0.00000  Uiso   1.00
C1107  C     0.34584   0.16705   0.81464   0.00000  Uiso   1.00
C1108  C     0.65420   0.16726   0.85208   0.00000  Uiso   1.00
C1109  C     0.51460   0.01991   0.79434   0.00000  Uiso   1.00
C1110  C     0.47667   0.31238   0.86783   0.00000  Uiso   1.00
C1111  C     0.51949   0.31082   0.79843   0.00000  Uiso   1.00
C1112  C     0.48021   0.02173   0.86858   0.00000  Uiso   1.00
C1113  C     0.49955   0.29026   0.83415   0.00000  Uiso   1.00
C1114  C     0.49888   0.04245   0.83193   0.00000  Uiso   1.00
C1115  C     0.46485   0.14308   0.68543   0.00000  Uiso   1.00
C1116  C     0.53414   0.19128   0.98098   0.00000  Uiso   1.00
C1117  C     0.46556   0.14278   0.96966   0.00000  Uiso   1.00
C1118  C     0.53433   0.19073   0.69694   0.00000  Uiso   1.00
Cu1119 Cu    0.50000   0.16667   0.88022   0.00000  Uiso   1.00
Cu1120 Cu    0.50000   0.16666   0.78645   0.00000  Uiso   1.00
H1121  H     0.65886   0.16688   0.77884   0.00000  Uiso   1.00
H1122  H     0.34119   0.16752   0.88788   0.00000  Uiso   1.00
H1123  H     0.53651   0.29361   0.77224   0.00000  Uiso   1.00
H1124  H     0.46518   0.03861   0.89626   0.00000  Uiso   1.00
H1125  H     0.43786   0.12375   0.94662   0.00000  Uiso   1.00
H1126  H     0.56159   0.21018   0.71990   0.00000  Uiso   1.00
N1127  N     0.50001   0.16668   0.95069   0.00000  Uiso   1.00
N1128  N     0.49999   0.16666   0.71597   0.00000  Uiso   1.00
O1129  O     0.50000   0.10655   0.87291   0.00000  Uiso   1.00
O1130  O     0.50000   0.22678   0.79375   0.00000  Uiso   1.00
O1131  O     0.50000   0.10654   0.79372   0.00000  Uiso   1.00
O1132  O     0.50000   0.22679   0.87294   0.00000  Uiso   1.00
O1133  O     0.42495   0.16667   0.86379   0.00000  Uiso   1.00
O1134  O     0.57505   0.16666   0.80288   0.00000  Uiso   1.00
O1135  O     0.42494   0.16666   0.78460   0.00000  Uiso   1.00
O1136  O     0.57506   0.16667   0.88207   0.00000  Uiso   1.00
O1137  O     0.52412   0.03978   0.75396   0.00000  Uiso   1.00
C1138  C     0.49911   0.01969   0.71198   0.00000  Uiso   1.00
H1139  H     0.50029   0.04184   0.68317   0.00000  Uiso   1.00
H1140  H     0.52149   0.32619   0.70272   0.00000  Uiso   1.00
C1141  C     0.44201   0.00654   0.71334   0.00000  Uiso   1.00
H1142  H     0.43998   0.31052   0.73216   0.00000  Uiso   1.00
H1143  H     0.42269   0.02995   0.73262   0.00000  Uiso   1.00
C1144  C     0.41207   0.33310   0.99762   0.00000  Uiso   1.00
H1145  H     0.37084   0.32616   0.66669   0.00000  Uiso   1.00
H1146  H     0.42793   0.30648   0.98045   0.00000  Uiso   1.00
H1147  H     0.41458   0.02765   0.97625   0.00000  Uiso   1.00
O1148  O     0.45152   0.29300   0.90075   0.00000  Uiso   1.00
C1149  C     0.40213   0.27804   0.87935   0.00000  Uiso   1.00
H1150  H     0.38846   0.25522   0.90335   0.00000  Uiso   1.00
H1151  H     0.40321   0.26132   0.84537   0.00000  Uiso   1.00
C1152  C     0.36303   0.31264   0.87209   0.00000  Uiso   1.00
H1153  H     0.36283   0.33003   0.90558   0.00000  Uiso   1.00
H1154  H     0.37391   0.00097   0.84556   0.00000  Uiso   1.00
C1155  C     0.64204   0.29558   0.85508   0.00000  Uiso   1.00
H1156  H     0.64038   0.27980   0.82027   0.00000  Uiso   1.00
H1157  H     0.61492   0.32142   0.85177   0.00000  Uiso   1.00
H1158  H     0.62989   0.27355   0.88063   0.00000  Uiso   1.00
Br1159 Br    0.41109   0.11068   0.70578   0.00000  Uiso   1.00
Br1160 Br    0.58218   0.22890   0.95924   0.00000  Uiso   1.00
C1161  C     0.83292   0.08733   0.83281   0.00000  Uiso   1.00
C1162  C     0.83370   0.24579   0.83378   0.00000  Uiso   1.00
C1163  C     0.73461   0.16679   0.82119   0.00000  Uiso   1.00
C1164  C     0.93208   0.16693   0.84550   0.00000  Uiso   1.00
C1165  C     0.67918   0.16705   0.81464   0.00000  Uiso   1.00
C1166  C     0.98753   0.16726   0.85208   0.00000  Uiso   1.00
C1167  C     0.84794   0.01991   0.79434   0.00000  Uiso   1.00
C1168  C     0.81000   0.31238   0.86783   0.00000  Uiso   1.00
C1169  C     0.85283   0.31082   0.79843   0.00000  Uiso   1.00
C1170  C     0.81355   0.02173   0.86858   0.00000  Uiso   1.00
C1171  C     0.83288   0.29026   0.83415   0.00000  Uiso   1.00
C1172  C     0.83222   0.04245   0.83193   0.00000  Uiso   1.00
C1173  C     0.79819   0.14308   0.68543   0.00000  Uiso   1.00
C1174  C     0.86747   0.19128   0.98098   0.00000  Uiso   1.00
C1175  C     0.79890   0.14278   0.96966   0.00000  Uiso   1.00
C1176  C     0.86766   0.19073   0.69694   0.00000  Uiso   1.00
Cu1177 Cu    0.83333   0.16667   0.88022   0.00000  Uiso   1.00
Cu1178 Cu    0.83333   0.16666   0.78645   0.00000  Uiso   1.00
H1179  H     0.99219   0.16688   0.77884   0.00000  Uiso   1.00
H1180  H     0.67452   0.16752   0.88788   0.00000  Uiso   1.00
H1181  H     0.86985   0.29361   0.77224   0.00000  Uiso   1.00
H1182  H     0.79851   0.03861   0.89626   0.00000  Uiso   1.00
H1183  H     0.77119   0.12375   0.94662   0.00000  Uiso   1.00
H1184  H     0.89492   0.21018   0.71990   0.00000  Uiso   1.00
N1185  N     0.83335   0.16668   0.95069   0.00000  Uiso   1.00
N1186  N     0.83332   0.16666   0.71597   0.00000  Uiso   1.00
O1187  O     0.83333   0.10655   0.87291   0.00000  Uiso   1.00
O1188  O     0.83334   0.22678   0.79375   0.00000  Uiso   1.00
O1189  O     0.83333   0.10654   0.79372   0.00000  Uiso   1.00
O1190  O     0.83334   0.22679   0.87294   0.00000  Uiso   1.00
O1191  O     0.75828   0.16667   0.86379   0.00000  Uiso   1.00
O1192  O     0.90839   0.16666   0.80288   0.00000  Uiso   1.00
O1193  O     0.75828   0.16666   0.78460   0.00000  Uiso   1.00
O1194  O     0.90839   0.16667   0.88207   0.00000  Uiso   1.00
O1195  O     0.85745   0.03978   0.75396   0.00000  Uiso   1.00
C1196  C     0.83245   0.01969   0.71198   0.00000  Uiso   1.00
H1197  H     0.83363   0.04184   0.68317   0.00000  Uiso   1.00
H1198  H     0.85482   0.32619   0.70272   0.00000  Uiso   1.00
C1199  C     0.77534   0.00654   0.71334   0.00000  Uiso   1.00
H1200  H     0.77331   0.31052   0.73216   0.00000  Uiso   1.00
H1201  H     0.75603   0.02995   0.73262   0.00000  Uiso   1.00
C1202  C     0.74541   0.33310   0.99762   0.00000  Uiso   1.00
H1203  H     0.70418   0.32616   0.66669   0.00000  Uiso   1.00
H1204  H     0.76126   0.30648   0.98045   0.00000  Uiso   1.00
H1205  H     0.74791   0.02765   0.97625   0.00000  Uiso   1.00
O1206  O     0.78485   0.29300   0.90075   0.00000  Uiso   1.00
C1207  C     0.73546   0.27804   0.87935   0.00000  Uiso   1.00
H1208  H     0.72179   0.25522   0.90335   0.00000  Uiso   1.00
H1209  H     0.73654   0.26132   0.84537   0.00000  Uiso   1.00
C1210  C     0.69636   0.31264   0.87209   0.00000  Uiso   1.00
H1211  H     0.69616   0.33003   0.90558   0.00000  Uiso   1.00
H1212  H     0.70725   0.00097   0.84556   0.00000  Uiso   1.00
C1213  C     0.97537   0.29558   0.85508   0.00000  Uiso   1.00
H1214  H     0.97371   0.27980   0.82027   0.00000  Uiso   1.00
H1215  H     0.94826   0.32142   0.85177   0.00000  Uiso   1.00
H1216  H     0.96323   0.27355   0.88063   0.00000  Uiso   1.00
Br1217 Br    0.74442   0.11068   0.70578   0.00000  Uiso   1.00
Br1218 Br    0.91552   0.22890   0.95924   0.00000  Uiso   1.00
C1219  C     0.16625   0.42066   0.83281   0.00000  Uiso   1.00
C1220  C     0.16703   0.57912   0.83378   0.00000  Uiso   1.00
C1221  C     0.06794   0.50013   0.82119   0.00000  Uiso   1.00
C1222  C     0.26541   0.50026   0.84550   0.00000  Uiso   1.00
C1223  C     0.01251   0.50038   0.81464   0.00000  Uiso   1.00
C1224  C     0.32086   0.50059   0.85208   0.00000  Uiso   1.00
C1225  C     0.18127   0.35324   0.79434   0.00000  Uiso   1.00
C1226  C     0.14333   0.64571   0.86783   0.00000  Uiso   1.00
C1227  C     0.18616   0.64415   0.79843   0.00000  Uiso   1.00
C1228  C     0.14688   0.35507   0.86858   0.00000  Uiso   1.00
C1229  C     0.16621   0.62360   0.83415   0.00000  Uiso   1.00
C1230  C     0.16555   0.37578   0.83193   0.00000  Uiso   1.00
C1231  C     0.13152   0.47642   0.68543   0.00000  Uiso   1.00
C1232  C     0.20080   0.52461   0.98098   0.00000  Uiso   1.00
C1233  C     0.13223   0.47611   0.96966   0.00000  Uiso   1.00
C1234  C     0.20100   0.52407   0.69694   0.00000  Uiso   1.00
Cu1235 Cu    0.16667   0.50001   0.88022   0.00000  Uiso   1.00
Cu1236 Cu    0.16667   0.49999   0.78645   0.00000  Uiso   1.00
H1237  H     0.32553   0.50022   0.77884   0.00000  Uiso   1.00
H1238  H     0.00785   0.50085   0.88788   0.00000  Uiso   1.00
H1239  H     0.20318   0.62695   0.77224   0.00000  Uiso   1.00
H1240  H     0.13184   0.37194   0.89626   0.00000  Uiso   1.00
H1241  H     0.10453   0.45708   0.94662   0.00000  Uiso   1.00
H1242  H     0.22826   0.54352   0.71990   0.00000  Uiso   1.00
N1243  N     0.16668   0.50001   0.95069   0.00000  Uiso   1.00
N1244  N     0.16665   0.49999   0.71597   0.00000  Uiso   1.00
O1245  O     0.16666   0.43989   0.87291   0.00000  Uiso   1.00
O1246  O     0.16667   0.56011   0.79375   0.00000  Uiso   1.00
O1247  O     0.16666   0.43988   0.79372   0.00000  Uiso   1.00
O1248  O     0.16667   0.56012   0.87294   0.00000  Uiso   1.00
O1249  O     0.09161   0.50000   0.86379   0.00000  Uiso   1.00
O1250  O     0.24172   0.50000   0.80288   0.00000  Uiso   1.00
O1251  O     0.09161   0.49999   0.78460   0.00000  Uiso   1.00
O1252  O     0.24172   0.50001   0.88207   0.00000  Uiso   1.00
O1253  O     0.19079   0.37312   0.75396   0.00000  Uiso   1.00
C1254  C     0.16578   0.35302   0.71198   0.00000  Uiso   1.00
H1255  H     0.16696   0.37517   0.68317   0.00000  Uiso   1.00
H1256  H     0.18815   0.65953   0.70272   0.00000  Uiso   1.00
C1257  C     0.10867   0.33988   0.71334   0.00000  Uiso   1.00
H1258  H     0.10665   0.64386   0.73216   0.00000  Uiso   1.00
H1259  H     0.08936   0.36328   0.73262   0.00000  Uiso   1.00
C1260  C     0.07874   0.66644   0.99762   0.00000  Uiso   1.00
H1261  H     0.03751   0.65950   0.66669   0.00000  Uiso   1.00
H1262  H     0.09459   0.63981   0.98045   0.00000  Uiso   1.00
H1263  H     0.08125   0.36098   0.97625   0.00000  Uiso   1.00
O1264  O     0.11819   0.62633   0.90075   0.00000  Uiso   1.00
C1265  C     0.06879   0.61138   0.87935   0.00000  Uiso   1.00
H1266  H     0.05512   0.58855   0.90335   0.00000  Uiso   1.00
H1267  H     0.06987   0.59465   0.84537   0.00000  Uiso   1.00
C1268  C     0.02969   0.64598   0.87209   0.00000  Uiso   1.00
H1269  H     0.02949   0.66336   0.90558   0.00000  Uiso   1.00
H1270  H     0.04058   0.33430   0.84556   0.00000  Uiso   1.00
C1271  C     0.30871   0.62892   0.85508   0.00000  Uiso   1.00
H1272  H     0.30705   0.61314   0.82027   0.00000  Uiso   1.00
H1273  H     0.28159   0.65476   0.85177   0.00000  Uiso   1.00
H1274  H     0.29656   0.60688   0.88063   0.00000  Uiso   1.00
Br1275 Br    0.07776   0.44401   0.70578   0.00000  Uiso   1.00
Br1276 Br    0.24885   0.56224   0.95924   0.00000  Uiso   1.00
C1277  C     0.49958   0.42066   0.83281   0.00000  Uiso   1.00
C1278  C     0.50037   0.57912   0.83378   0.00000  Uiso   1.00
C1279  C     0.40127   0.50013   0.82119   0.00000  Uiso   1.00
C1280  C     0.59874   0.50026   0.84550   0.00000  Uiso   1.00
C1281  C     0.34584   0.50038   0.81464   0.00000  Uiso   1.00
C1282  C     0.65420   0.50059   0.85208   0.00000  Uiso   1.00
C1283  C     0.51460   0.35324   0.79434   0.00000  Uiso   1.00
C1284  C     0.47667   0.64571   0.86783   0.00000  Uiso   1.00
C1285  C     0.51949   0.64415   0.79843   0.00000  Uiso   1.00
C1286  C     0.48021   0.35507   0.86858   0.00000  Uiso   1.00
C1287  C     0.49955   0.62360   0.83415   0.00000  Uiso   1.00
C1288  C     0.49888   0.37578   0.83193   0.00000  Uiso   1.00
C1289  C     0.46485   0.47642   0.68543   0.00000  Uiso   1.00
C1290  C     0.53414   0.52461   0.98098   0.00000  Uiso   1.00
C1291  C     0.46556   0.47611   0.96966   0.00000  Uiso   1.00
C1292  C     0.53433   0.52407   0.69694   0.00000  Uiso   1.00
Cu1293 Cu    0.50000   0.50001   0.88022   0.00000  Uiso   1.00
Cu1294 Cu    0.50000   0.49999   0.78645   0.00000  Uiso   1.00
H1295  H     0.65886   0.50022   0.77884   0.00000  Uiso   1.00
H1296  H     0.34119   0.50085   0.88788   0.00000  Uiso   1.00
H1297  H     0.53651   0.62695   0.77224   0.00000  Uiso   1.00
H1298  H     0.46518   0.37194   0.89626   0.00000  Uiso   1.00
H1299  H     0.43786   0.45708   0.94662   0.00000  Uiso   1.00
H1300  H     0.56159   0.54352   0.71990   0.00000  Uiso   1.00
N1301  N     0.50001   0.50001   0.95069   0.00000  Uiso   1.00
N1302  N     0.49999   0.49999   0.71597   0.00000  Uiso   1.00
O1303  O     0.50000   0.43989   0.87291   0.00000  Uiso   1.00
O1304  O     0.50000   0.56011   0.79375   0.00000  Uiso   1.00
O1305  O     0.50000   0.43988   0.79372   0.00000  Uiso   1.00
O1306  O     0.50000   0.56012   0.87294   0.00000  Uiso   1.00
O1307  O     0.42495   0.50000   0.86379   0.00000  Uiso   1.00
O1308  O     0.57505   0.50000   0.80288   0.00000  Uiso   1.00
O1309  O     0.42494   0.49999   0.78460   0.00000  Uiso   1.00
O1310  O     0.57506   0.50001   0.88207   0.00000  Uiso   1.00
O1311  O     0.52412   0.37312   0.75396   0.00000  Uiso   1.00
C1312  C     0.49911   0.35302   0.71198   0.00000  Uiso   1.00
H1313  H     0.50029   0.37517   0.68317   0.00000  Uiso   1.00
H1314  H     0.52149   0.65953   0.70272   0.00000  Uiso   1.00
C1315  C     0.44201   0.33988   0.71334   0.00000  Uiso   1.00
H1316  H     0.43998   0.64386   0.73216   0.00000  Uiso   1.00
H1317  H     0.42269   0.36328   0.73262   0.00000  Uiso   1.00
C1318  C     0.41207   0.66644   0.99762   0.00000  Uiso   1.00
H1319  H     0.37084   0.65950   0.66669   0.00000  Uiso   1.00
H1320  H     0.42793   0.63981   0.98045   0.00000  Uiso   1.00
H1321  H     0.41458   0.36098   0.97625   0.00000  Uiso   1.00
O1322  O     0.45152   0.62633   0.90075   0.00000  Uiso   1.00
C1323  C     0.40213   0.61138   0.87935   0.00000  Uiso   1.00
H1324  H     0.38846   0.58855   0.90335   0.00000  Uiso   1.00
H1325  H     0.40321   0.59465   0.84537   0.00000  Uiso   1.00
C1326  C     0.36303   0.64598   0.87209   0.00000  Uiso   1.00
H1327  H     0.36283   0.66336   0.90558   0.00000  Uiso   1.00
H1328  H     0.37391   0.33430   0.84556   0.00000  Uiso   1.00
C1329  C     0.64204   0.62892   0.85508   0.00000  Uiso   1.00
H1330  H     0.64038   0.61314   0.82027   0.00000  Uiso   1.00
H1331  H     0.61492   0.65476   0.85177   0.00000  Uiso   1.00
H1332  H     0.62989   0.60688   0.88063   0.00000  Uiso   1.00
Br1333 Br    0.41109   0.44401   0.70578   0.00000  Uiso   1.00
Br1334 Br    0.58218   0.56224   0.95924   0.00000  Uiso   1.00
C1335  C     0.83292   0.42066   0.83281   0.00000  Uiso   1.00
C1336  C     0.83370   0.57912   0.83378   0.00000  Uiso   1.00
C1337  C     0.73461   0.50013   0.82119   0.00000  Uiso   1.00
C1338  C     0.93208   0.50026   0.84550   0.00000  Uiso   1.00
C1339  C     0.67918   0.50038   0.81464   0.00000  Uiso   1.00
C1340  C     0.98753   0.50059   0.85208   0.00000  Uiso   1.00
C1341  C     0.84794   0.35324   0.79434   0.00000  Uiso   1.00
C1342  C     0.81000   0.64571   0.86783   0.00000  Uiso   1.00
C1343  C     0.85283   0.64415   0.79843   0.00000  Uiso   1.00
C1344  C     0.81355   0.35507   0.86858   0.00000  Uiso   1.00
C1345  C     0.83288   0.62360   0.83415   0.00000  Uiso   1.00
C1346  C     0.83222   0.37578   0.83193   0.00000  Uiso   1.00
C1347  C     0.79819   0.47642   0.68543   0.00000  Uiso   1.00
C1348  C     0.86747   0.52461   0.98098   0.00000  Uiso   1.00
C1349  C     0.79890   0.47611   0.96966   0.00000  Uiso   1.00
C1350  C     0.86766   0.52407   0.69694   0.00000  Uiso   1.00
Cu1351 Cu    0.83333   0.50001   0.88022   0.00000  Uiso   1.00
Cu1352 Cu    0.83333   0.49999   0.78645   0.00000  Uiso   1.00
H1353  H     0.99219   0.50022   0.77884   0.00000  Uiso   1.00
H1354  H     0.67452   0.50085   0.88788   0.00000  Uiso   1.00
H1355  H     0.86985   0.62695   0.77224   0.00000  Uiso   1.00
H1356  H     0.79851   0.37194   0.89626   0.00000  Uiso   1.00
H1357  H     0.77119   0.45708   0.94662   0.00000  Uiso   1.00
H1358  H     0.89492   0.54352   0.71990   0.00000  Uiso   1.00
N1359  N     0.83335   0.50001   0.95069   0.00000  Uiso   1.00
N1360  N     0.83332   0.49999   0.71597   0.00000  Uiso   1.00
O1361  O     0.83333   0.43989   0.87291   0.00000  Uiso   1.00
O1362  O     0.83334   0.56011   0.79375   0.00000  Uiso   1.00
O1363  O     0.83333   0.43988   0.79372   0.00000  Uiso   1.00
O1364  O     0.83334   0.56012   0.87294   0.00000  Uiso   1.00
O1365  O     0.75828   0.50000   0.86379   0.00000  Uiso   1.00
O1366  O     0.90839   0.50000   0.80288   0.00000  Uiso   1.00
O1367  O     0.75828   0.49999   0.78460   0.00000  Uiso   1.00
O1368  O     0.90839   0.50001   0.88207   0.00000  Uiso   1.00
O1369  O     0.85745   0.37312   0.75396   0.00000  Uiso   1.00
C1370  C     0.83245   0.35302   0.71198   0.00000  Uiso   1.00
H1371  H     0.83363   0.37517   0.68317   0.00000  Uiso   1.00
H1372  H     0.85482   0.65953   0.70272   0.00000  Uiso   1.00
C1373  C     0.77534   0.33988   0.71334   0.00000  Uiso   1.00
H1374  H     0.77331   0.64386   0.73216   0.00000  Uiso   1.00
H1375  H     0.75603   0.36328   0.73262   0.00000  Uiso   1.00
C1376  C     0.74541   0.66644   0.99762   0.00000  Uiso   1.00
H1377  H     0.70418   0.65950   0.66669   0.00000  Uiso   1.00
H1378  H     0.76126   0.63981   0.98045   0.00000  Uiso   1.00
H1379  H     0.74791   0.36098   0.97625   0.00000  Uiso   1.00
O1380  O     0.78485   0.62633   0.90075   0.00000  Uiso   1.00
C1381  C     0.73546   0.61138   0.87935   0.00000  Uiso   1.00
H1382  H     0.72179   0.58855   0.90335   0.00000  Uiso   1.00
H1383  H     0.73654   0.59465   0.84537   0.00000  Uiso   1.00
C1384  C     0.69636   0.64598   0.87209   0.00000  Uiso   1.00
H1385  H     0.69616   0.66336   0.90558   0.00000  Uiso   1.00
H1386  H     0.70725   0.33430   0.84556   0.00000  Uiso   1.00
C1387  C     0.97537   0.62892   0.85508   0.00000  Uiso   1.00
H1388  H     0.97371   0.61314   0.82027   0.00000  Uiso   1.00
H1389  H     0.94826   0.65476   0.85177   0.00000  Uiso   1.00
H1390  H     0.96323   0.60688   0.88063   0.00000  Uiso   1.00
Br1391 Br    0.74442   0.44401   0.70578   0.00000  Uiso   1.00
Br1392 Br    0.91552   0.56224   0.95924   0.00000  Uiso   1.00
C1393  C     0.16625   0.75399   0.83281   0.00000  Uiso   1.00
C1394  C     0.16703   0.91246   0.83378   0.00000  Uiso   1.00
C1395  C     0.06794   0.83346   0.82119   0.00000  Uiso   1.00
C1396  C     0.26541   0.83360   0.84550   0.00000  Uiso   1.00
C1397  C     0.01251   0.83371   0.81464   0.00000  Uiso   1.00
C1398  C     0.32086   0.83392   0.85208   0.00000  Uiso   1.00
C1399  C     0.18127   0.68658   0.79434   0.00000  Uiso   1.00
C1400  C     0.14333   0.97904   0.86783   0.00000  Uiso   1.00
C1401  C     0.18616   0.97748   0.79843   0.00000  Uiso   1.00
C1402  C     0.14688   0.68840   0.86858   0.00000  Uiso   1.00
C1403  C     0.16621   0.95693   0.83415   0.00000  Uiso   1.00
C1404  C     0.16555   0.70911   0.83193   0.00000  Uiso   1.00
C1405  C     0.13152   0.80975   0.68543   0.00000  Uiso   1.00
C1406  C     0.20080   0.85794   0.98098   0.00000  Uiso   1.00
C1407  C     0.13223   0.80944   0.96966   0.00000  Uiso   1.00
C1408  C     0.20100   0.85740   0.69694   0.00000  Uiso   1.00
Cu1409 Cu    0.16667   0.83334   0.88022   0.00000  Uiso   1.00
Cu1410 Cu    0.16667   0.83333   0.78645   0.00000  Uiso   1.00
H1411  H     0.32553   0.83355   0.77884   0.00000  Uiso   1.00
H1412  H     0.00785   0.83418   0.88788   0.00000  Uiso   1.00
H1413  H     0.20318   0.96028   0.77224   0.00000  Uiso   1.00
H1414  H     0.13184   0.70527   0.89626   0.00000  Uiso   1.00
H1415  H     0.10453   0.79041   0.94662   0.00000  Uiso   1.00
H1416  H     0.22826   0.87685   0.71990   0.00000  Uiso   1.00
N1417  N     0.16668   0.83334   0.95069   0.00000  Uiso   1.00
N1418  N     0.16665   0.83332   0.71597   0.00000  Uiso   1.00
O1419  O     0.16666   0.77322   0.87291   0.00000  Uiso   1.00
O1420  O     0.16667   0.89345   0.79375   0.00000  Uiso   1.00
O1421  O     0.16666   0.77321   0.79372   0.00000  Uiso   1.00
O1422  O     0.16667   0.89346   0.87294   0.00000  Uiso   1.00
O1423  O     0.09161   0.83334   0.86379   0.00000  Uiso   1.00
O1424  O     0.24172   0.83333   0.80288   0.00000  Uiso   1.00
O1425  O     0.09161   0.83333   0.78460   0.00000  Uiso   1.00
O1426  O     0.24172   0.83334   0.88207   0.00000  Uiso   1.00
O1427  O     0.19079   0.70645   0.75396   0.00000  Uiso   1.00
C1428  C     0.16578   0.68635   0.71198   0.00000  Uiso   1.00
H1429  H     0.16696   0.70851   0.68317   0.00000  Uiso   1.00
H1430  H     0.18815   0.99286   0.70272   0.00000  Uiso   1.00
C1431  C     0.10867   0.67321   0.71334   0.00000  Uiso   1.00
H1432  H     0.10665   0.97719   0.73216   0.00000  Uiso   1.00
H1433  H     0.08936   0.69661   0.73262   0.00000  Uiso   1.00
C1434  C     0.07874   0.99977   0.99762   0.00000  Uiso   1.00
H1435  H     0.03751   0.99283   0.66669   0.00000  Uiso   1.00
H1436  H     0.09459   0.97314   0.98045   0.00000  Uiso   1.00
H1437  H     0.08125   0.69432   0.97625   0.00000  Uiso   1.00
O1438  O     0.11819   0.95966   0.90075   0.00000  Uiso   1.00
C1439  C     0.06879   0.94471   0.87935   0.00000  Uiso   1.00
H1440  H     0.05512   0.92189   0.90335   0.00000  Uiso   1.00
H1441  H     0.06987   0.92799   0.84537   0.00000  Uiso   1.00
C1442  C     0.02969   0.97931   0.87209   0.00000  Uiso   1.00
H1443  H     0.02949   0.99669   0.90558   0.00000  Uiso   1.00
H1444  H     0.04058   0.66764   0.84556   0.00000  Uiso   1.00
C1445  C     0.30871   0.96225   0.85508   0.00000  Uiso   1.00
H1446  H     0.30705   0.94647   0.82027   0.00000  Uiso   1.00
H1447  H     0.28159   0.98809   0.85177   0.00000  Uiso   1.00
H1448  H     0.29656   0.94021   0.88063   0.00000  Uiso   1.00
Br1449 Br    0.07776   0.77734   0.70578   0.00000  Uiso   1.00
Br1450 Br    0.24885   0.89557   0.95924   0.00000  Uiso   1.00
C1451  C     0.49958   0.75399   0.83281   0.00000  Uiso   1.00
C1452  C     0.50037   0.91246   0.83378   0.00000  Uiso   1.00
C1453  C     0.40127   0.83346   0.82119   0.00000  Uiso   1.00
C1454  C     0.59874   0.83360   0.84550   0.00000  Uiso   1.00
C1455  C     0.34584   0.83371   0.81464   0.00000  Uiso   1.00
C1456  C     0.65420   0.83392   0.85208   0.00000  Uiso   1.00
C1457  C     0.51460   0.68658   0.79434   0.00000  Uiso   1.00
C1458  C     0.47667   0.97904   0.86783   0.00000  Uiso   1.00
C1459  C     0.51949   0.97748   0.79843   0.00000  Uiso   1.00
C1460  C     0.48021   0.68840   0.86858   0.00000  Uiso   1.00
C1461  C     0.49955   0.95693   0.83415   0.00000  Uiso   1.00
C1462  C     0.49888   0.70911   0.83193   0.00000  Uiso   1.00
C1463  C     0.46485   0.80975   0.68543   0.00000  Uiso   1.00
C1464  C     0.53414   0.85794   0.98098   0.00000  Uiso   1.00
C1465  C     0.46556   0.80944   0.96966   0.00000  Uiso   1.00
C1466  C     0.53433   0.85740   0.69694   0.00000  Uiso   1.00
Cu1467 Cu    0.50000   0.83334   0.88022   0.00000  Uiso   1.00
Cu1468 Cu    0.50000   0.83333   0.78645   0.00000  Uiso   1.00
H1469  H     0.65886   0.83355   0.77884   0.00000  Uiso   1.00
H1470  H     0.34119   0.83418   0.88788   0.00000  Uiso   1.00
H1471  H     0.53651   0.96028   0.77224   0.00000  Uiso   1.00
H1472  H     0.46518   0.70527   0.89626   0.00000  Uiso   1.00
H1473  H     0.43786   0.79041   0.94662   0.00000  Uiso   1.00
H1474  H     0.56159   0.87685   0.71990   0.00000  Uiso   1.00
N1475  N     0.50001   0.83334   0.95069   0.00000  Uiso   1.00
N1476  N     0.49999   0.83332   0.71597   0.00000  Uiso   1.00
O1477  O     0.50000   0.77322   0.87291   0.00000  Uiso   1.00
O1478  O     0.50000   0.89345   0.79375   0.00000  Uiso   1.00
O1479  O     0.50000   0.77321   0.79372   0.00000  Uiso   1.00
O1480  O     0.50000   0.89346   0.87294   0.00000  Uiso   1.00
O1481  O     0.42495   0.83334   0.86379   0.00000  Uiso   1.00
O1482  O     0.57505   0.83333   0.80288   0.00000  Uiso   1.00
O1483  O     0.42494   0.83333   0.78460   0.00000  Uiso   1.00
O1484  O     0.57506   0.83334   0.88207   0.00000  Uiso   1.00
O1485  O     0.52412   0.70645   0.75396   0.00000  Uiso   1.00
C1486  C     0.49911   0.68635   0.71198   0.00000  Uiso   1.00
H1487  H     0.50029   0.70851   0.68317   0.00000  Uiso   1.00
H1488  H     0.52149   0.99286   0.70272   0.00000  Uiso   1.00
C1489  C     0.44201   0.67321   0.71334   0.00000  Uiso   1.00
H1490  H     0.43998   0.97719   0.73216   0.00000  Uiso   1.00
H1491  H     0.42269   0.69661   0.73262   0.00000  Uiso   1.00
C1492  C     0.41207   0.99977   0.99762   0.00000  Uiso   1.00
H1493  H     0.37084   0.99283   0.66669   0.00000  Uiso   1.00
H1494  H     0.42793   0.97314   0.98045   0.00000  Uiso   1.00
H1495  H     0.41458   0.69432   0.97625   0.00000  Uiso   1.00
O1496  O     0.45152   0.95966   0.90075   0.00000  Uiso   1.00
C1497  C     0.40213   0.94471   0.87935   0.00000  Uiso   1.00
H1498  H     0.38846   0.92189   0.90335   0.00000  Uiso   1.00
H1499  H     0.40321   0.92799   0.84537   0.00000  Uiso   1.00
C1500  C     0.36303   0.97931   0.87209   0.00000  Uiso   1.00
H1501  H     0.36283   0.99669   0.90558   0.00000  Uiso   1.00
H1502  H     0.37391   0.66764   0.84556   0.00000  Uiso   1.00
C1503  C     0.64204   0.96225   0.85508   0.00000  Uiso   1.00
H1504  H     0.64038   0.94647   0.82027   0.00000  Uiso   1.00
H1505  H     0.61492   0.98809   0.85177   0.00000  Uiso   1.00
H1506  H     0.62989   0.94021   0.88063   0.00000  Uiso   1.00
Br1507 Br    0.41109   0.77734   0.70578   0.00000  Uiso   1.00
Br1508 Br    0.58218   0.89557   0.95924   0.00000  Uiso   1.00
C1509  C     0.83292   0.75399   0.83281   0.00000  Uiso   1.00
C1510  C     0.83370   0.91246   0.83378   0.00000  Uiso   1.00
C1511  C     0.73461   0.83346   0.82119   0.00000  Uiso   1.00
C1512  C     0.93208   0.83360   0.84550   0.00000  Uiso   1.00
C1513  C     0.67918   0.83371   0.81464   0.00000  Uiso   1.00
C1514  C     0.98753   0.83392   0.85208   0.00000  Uiso   1.00
C1515  C     0.84794   0.68658   0.79434   0.00000  Uiso   1.00
C1516  C     0.81000   0.97904   0.86783   0.00000  Uiso   1.00
C1517  C     0.85283   0.97748   0.79843   0.00000  Uiso   1.00
C1518  C     0.81355   0.68840   0.86858   0.00000  Uiso   1.00
C1519  C     0.83288   0.95693   0.83415   0.00000  Uiso   1.00
C1520  C     0.83222   0.70911   0.83193   0.00000  Uiso   1.00
C1521  C     0.79819   0.80975   0.68543   0.00000  Uiso   1.00
C1522  C     0.86747   0.85794   0.98098   0.00000  Uiso   1.00
C1523  C     0.79890   0.80944   0.96966   0.00000  Uiso   1.00
C1524  C     0.86766   0.85740   0.69694   0.00000  Uiso   1.00
Cu1525 Cu    0.83333   0.83334   0.88022   0.00000  Uiso   1.00
Cu1526 Cu    0.83333   0.83333   0.78645   0.00000  Uiso   1.00
H1527  H     0.99219   0.83355   0.77884   0.00000  Uiso   1.00
H1528  H     0.67452   0.83418   0.88788   0.00000  Uiso   1.00
H1529  H     0.86985   0.96028   0.77224   0.00000  Uiso   1.00
H1530  H     0.79851   0.70527   0.89626   0.00000  Uiso   1.00
H1531  H     0.77119   0.79041   0.94662   0.00000  Uiso   1.00
H1532  H     0.89492   0.87685   0.71990   0.00000  Uiso   1.00
N1533  N     0.83335   0.83334   0.95069   0.00000  Uiso   1.00
N1534  N     0.83332   0.83332   0.71597   0.00000  Uiso   1.00
O1535  O     0.83333   0.77322   0.87291   0.00000  Uiso   1.00
O1536  O     0.83334   0.89345   0.79375   0.00000  Uiso   1.00
O1537  O     0.83333   0.77321   0.79372   0.00000  Uiso   1.00
O1538  O     0.83334   0.89346   0.87294   0.00000  Uiso   1.00
O1539  O     0.75828   0.83334   0.86379   0.00000  Uiso   1.00
O1540  O     0.90839   0.83333   0.80288   0.00000  Uiso   1.00
O1541  O     0.75828   0.83333   0.78460   0.00000  Uiso   1.00
O1542  O     0.90839   0.83334   0.88207   0.00000  Uiso   1.00
O1543  O     0.85745   0.70645   0.75396   0.00000  Uiso   1.00
C1544  C     0.83245   0.68635   0.71198   0.00000  Uiso   1.00
H1545  H     0.83363   0.70851   0.68317   0.00000  Uiso   1.00
H1546  H     0.85482   0.99286   0.70272   0.00000  Uiso   1.00
C1547  C     0.77534   0.67321   0.71334   0.00000  Uiso   1.00
H1548  H     0.77331   0.97719   0.73216   0.00000  Uiso   1.00
H1549  H     0.75603   0.69661   0.73262   0.00000  Uiso   1.00
C1550  C     0.74541   0.99977   0.99762   0.00000  Uiso   1.00
H1551  H     0.70418   0.99283   0.66669   0.00000  Uiso   1.00
H1552  H     0.76126   0.97314   0.98045   0.00000  Uiso   1.00
H1553  H     0.74791   0.69432   0.97625   0.00000  Uiso   1.00
O1554  O     0.78485   0.95966   0.90075   0.00000  Uiso   1.00
C1555  C     0.73546   0.94471   0.87935   0.00000  Uiso   1.00
H1556  H     0.72179   0.92189   0.90335   0.00000  Uiso   1.00
H1557  H     0.73654   0.92799   0.84537   0.00000  Uiso   1.00
C1558  C     0.69636   0.97931   0.87209   0.00000  Uiso   1.00
H1559  H     0.69616   0.99669   0.90558   0.00000  Uiso   1.00
H1560  H     0.70725   0.66764   0.84556   0.00000  Uiso   1.00
C1561  C     0.97537   0.96225   0.85508   0.00000  Uiso   1.00
H1562  H     0.97371   0.94647   0.82027   0.00000  Uiso   1.00
H1563  H     0.94826   0.98809   0.85177   0.00000  Uiso   1.00
H1564  H     0.96323   0.94021   0.88063   0.00000  Uiso   1.00
Br1565 Br    0.74442   0.77734   0.70578   0.00000  Uiso   1.00
Br1566 Br    0.91552   0.89557   0.95924   0.00000  Uiso   1.00
loop_
_geom_bond_atom_site_label_1
_geom_bond_atom_site_label_2
_geom_bond_distance
_geom_bond_site_symmetry_2
_ccdc_geom_bond_type
C1     O29     1.298   .     A
C1     C12     1.459   .     S
C1     O27     1.300   .     A
C2     O30     1.296   .     A
C2     C11     1.446   .     S
C2     O28     1.295   .     A
C3     O31     1.289   .     A
C3     O33     1.297   .     A
C3     C5      1.436   .     S
C4     O32     1.290   .     A
C4     O34     1.297   .     A
C4     C6      1.437   .     S
C5     C122    1.339   1_455 S
C5     H135    1.087   1_455 S
C6     C63     1.339   .     S
C6     H78     1.087   .     S
C7     C12     1.411   .     A
C7     O35     1.390   .     S
C7     C357    1.394   1_545 S
C8     C11     1.406   .     A
C8     O46     1.383   .     S
C8     C184    1.389   .     S
C9     C11     1.394   .     A
C9     H21     1.083   .     S
C9     C181    1.394   .     S
C10    H22     1.084   .     S
C10    C12     1.402   .     A
C10    C356    1.389   1_545 S
C13    N26     1.382   .     A
C13    Br57    1.906   .     S
C13    C1059   1.415   1_554 S
C14    Br58    1.913   .     S
C14    N25     1.382   .     A
C14    C538    1.417   .     S
C15    H23     1.082   .     S
C15    N25     1.358   .     A
C15    C535    1.415   .     S
C16    N26     1.360   .     A
C16    H24     1.082   .     S
C16    C1058   1.417   1_554 S
Cu17   N25     2.026   .     S
Cu17   O30     1.970   .     S
Cu17   Cu18    2.696   .     S
Cu17   O31     1.953   .     S
Cu17   O34     1.959   .     S
Cu17   O27     1.962   .     S
Cu18   N26     2.026   .     S
Cu18   O32     1.953   .     S
Cu18   O29     1.970   .     S
Cu18   O33     1.959   .     S
Cu18   O28     1.962   .     S
H19    C63     1.087   .     S
H20    C122    1.087   1_455 S
O35    C36     1.426   .     S
C36    H37     1.111   .     S
C36    C39     1.552   .     S
C36    H386    1.111   1_545 S
H38    C210    1.111   .     S
C39    H41     1.107   .     S
C39    H388    1.110   1_545 S
C39    C1434   1.519   1_544 S
H40    C213    1.110   .     S
C42    H44     1.107   .     S
C42    C735    1.519   .     S
C42    H565    1.111   .     S
C42    H219    1.111   .     S
H43    C1086   1.111   1_554 S
H45    C390    1.111   1_545 S
O46    C47     1.420   .     S
C47    H49     1.114   .     S
C47    C50     1.535   .     S
C47    H48     1.111   .     S
C50    H51     1.108   .     S
C50    H226    1.111   .     S
C50    C169    1.523   1_455 S
H52    C398    1.111   1_545 S
C53    H54     1.111   .     S
C53    H55     1.109   .     S
C53    H56     1.110   .     S
C53    C108    1.523   .     S
C59    O87     1.298   .     A
C59    C70     1.459   .     S
C59    O85     1.300   .     A
C60    O88     1.296   .     A
C60    C69     1.446   .     S
C60    O86     1.295   .     A
C61    O89     1.289   .     A
C61    O91     1.297   .     A
C61    C63     1.436   .     S
C62    O90     1.290   .     A
C62    O92     1.297   .     A
C62    C64     1.437   .     S
C64    C121    1.339   .     S
C64    H136    1.087   .     S
C65    C70     1.411   .     A
C65    O93     1.390   .     S
C65    C415    1.394   1_545 S
C66    C69     1.406   .     A
C66    O104    1.383   .     S
C66    C242    1.389   .     S
C67    C69     1.394   .     A
C67    H79     1.083   .     S
C67    C239    1.394   .     S
C68    H80     1.084   .     S
C68    C70     1.402   .     A
C68    C414    1.389   1_545 S
C71    N84     1.382   .     A
C71    Br115   1.906   .     S
C71    C1117   1.415   1_554 S
C72    Br116   1.913   .     S
C72    N83     1.382   .     A
C72    C596    1.417   .     S
C73    H81     1.082   .     S
C73    N83     1.358   .     A
C73    C593    1.415   .     S
C74    N84     1.360   .     A
C74    H82     1.082   .     S
C74    C1116   1.417   1_554 S
Cu75   N83     2.026   .     S
Cu75   O88     1.970   .     S
Cu75   Cu76    2.696   .     S
Cu75   O89     1.953   .     S
Cu75   O92     1.959   .     S
Cu75   O85     1.962   .     S
Cu76   N84     2.026   .     S
Cu76   O90     1.953   .     S
Cu76   O87     1.970   .     S
Cu76   O91     1.959   .     S
Cu76   O86     1.962   .     S
H77    C121    1.087   .     S
O93    C94     1.426   .     S
C94    H95     1.111   .     S
C94    C97     1.552   .     S
C94    H444    1.111   1_545 S
H96    C268    1.111   .     S
C97    H99     1.107   .     S
C97    H446    1.110   1_545 S
C97    C1492   1.519   1_544 S
H98    C271    1.110   .     S
C100   H102    1.107   .     S
C100   C793    1.519   .     S
C100   H623    1.111   .     S
C100   H277    1.111   .     S
H101   C1144   1.111   1_554 S
H103   C448    1.111   1_545 S
O104   C105    1.420   .     S
C105   H107    1.114   .     S
C105   C108    1.535   .     S
C105   H106    1.111   .     S
C108   H109    1.108   .     S
C108   H284    1.111   .     S
H110   C456    1.111   1_545 S
C111   H112    1.111   .     S
C111   H113    1.109   .     S
C111   H114    1.110   .     S
C111   C166    1.523   .     S
C117   O145    1.298   .     A
C117   C128    1.459   .     S
C117   O143    1.300   .     A
C118   O146    1.296   .     A
C118   C127    1.446   .     S
C118   O144    1.295   .     A
C119   O147    1.289   .     A
C119   O149    1.297   .     A
C119   C121    1.436   .     S
C120   O148    1.290   .     A
C120   O150    1.297   .     A
C120   C122    1.437   .     S
C122   C5      1.339   1_655 S
C122   H20     1.087   1_655 S
C123   C128    1.411   .     A
C123   O151    1.390   .     S
C123   C473    1.394   1_545 S
C124   C127    1.406   .     A
C124   O162    1.383   .     S
C124   C300    1.389   .     S
C125   C127    1.394   .     A
C125   H137    1.083   .     S
C125   C297    1.394   .     S
C126   H138    1.084   .     S
C126   C128    1.402   .     A
C126   C472    1.389   1_545 S
C129   N142    1.382   .     A
C129   Br173   1.906   .     S
C129   C1175   1.415   1_554 S
C130   Br174   1.913   .     S
C130   N141    1.382   .     A
C130   C654    1.417   .     S
C131   H139    1.082   .     S
C131   N141    1.358   .     A
C131   C651    1.415   .     S
C132   N142    1.360   .     A
C132   H140    1.082   .     S
C132   C1174   1.417   1_554 S
Cu133  N141    2.026   .     S
Cu133  O146    1.970   .     S
Cu133  Cu134   2.696   .     S
Cu133  O147    1.953   .     S
Cu133  O150    1.959   .     S
Cu133  O143    1.962   .     S
Cu134  N142    2.026   .     S
Cu134  O148    1.953   .     S
Cu134  O145    1.970   .     S
Cu134  O149    1.959   .     S
Cu134  O144    1.962   .     S
H135   C5      1.087   1_655 S
O151   C152    1.426   .     S
C152   H153    1.111   .     S
C152   C155    1.552   .     S
C152   H502    1.111   1_545 S
H154   C326    1.111   .     S
C155   H157    1.107   .     S
C155   H504    1.110   1_545 S
C155   C1550   1.519   1_544 S
H156   C329    1.110   .     S
C158   H160    1.107   .     S
C158   C851    1.519   .     S
C158   H681    1.111   .     S
C158   H335    1.111   .     S
H159   C1202   1.111   1_554 S
H161   C506    1.111   1_545 S
O162   C163    1.420   .     S
C163   H165    1.114   .     S
C163   C166    1.535   .     S
C163   H164    1.111   .     S
C166   H167    1.108   .     S
C166   H342    1.111   .     S
H168   C514    1.111   1_545 S
C169   H170    1.111   .     S
C169   H171    1.109   .     S
C169   H172    1.110   .     S
C169   C50     1.523   1_655 S
C175   O203    1.298   .     A
C175   C186    1.459   .     S
C175   O201    1.300   .     A
C176   O204    1.296   .     A
C176   C185    1.446   .     S
C176   O202    1.295   .     A
C177   O205    1.289   .     A
C177   O207    1.297   .     A
C177   C179    1.436   .     S
C178   O206    1.290   .     A
C178   O208    1.297   .     A
C178   C180    1.437   .     S
C179   C296    1.339   1_455 S
C179   H309    1.087   1_455 S
C180   C237    1.339   .     S
C180   H252    1.087   .     S
C181   C186    1.411   .     A
C181   O209    1.390   .     S
C182   C185    1.406   .     A
C182   O220    1.383   .     S
C182   C358    1.389   .     S
C183   C185    1.394   .     A
C183   H195    1.083   .     S
C183   C355    1.394   .     S
C184   H196    1.084   .     S
C184   C186    1.402   .     A
C187   N200    1.382   .     A
C187   Br231   1.906   .     S
C187   C1233   1.415   1_554 S
C188   Br232   1.913   .     S
C188   N199    1.382   .     A
C188   C712    1.417   .     S
C189   H197    1.082   .     S
C189   N199    1.358   .     A
C189   C709    1.415   .     S
C190   N200    1.360   .     A
C190   H198    1.082   .     S
C190   C1232   1.417   1_554 S
Cu191  N199    2.026   .     S
Cu191  O204    1.970   .     S
Cu191  Cu192   2.696   .     S
Cu191  O205    1.953   .     S
Cu191  O208    1.959   .     S
Cu191  O201    1.962   .     S
Cu192  N200    2.026   .     S
Cu192  O206    1.953   .     S
Cu192  O203    1.970   .     S
Cu192  O207    1.959   .     S
Cu192  O202    1.962   .     S
H193   C237    1.087   .     S
H194   C296    1.087   1_455 S
O209   C210    1.426   .     S
C210   H211    1.111   .     S
C210   C213    1.552   .     S
H212   C384    1.111   .     S
C213   H215    1.107   .     S
C213   C1086   1.519   1_554 S
H214   C387    1.110   .     S
C216   H218    1.107   .     S
C216   C909    1.519   .     S
C216   H739    1.111   .     S
C216   H393    1.111   .     S
H217   C1260   1.111   1_554 S
O220   C221    1.420   .     S
C221   H223    1.114   .     S
C221   C224    1.535   .     S
C221   H222    1.111   .     S
C224   H225    1.108   .     S
C224   H400    1.111   .     S
C224   C343    1.523   1_455 S
C227   H228    1.111   .     S
C227   H229    1.109   .     S
C227   H230    1.110   .     S
C227   C282    1.523   .     S
C233   O261    1.298   .     A
C233   C244    1.459   .     S
C233   O259    1.300   .     A
C234   O262    1.296   .     A
C234   C243    1.446   .     S
C234   O260    1.295   .     A
C235   O263    1.289   .     A
C235   O265    1.297   .     A
C235   C237    1.436   .     S
C236   O264    1.290   .     A
C236   O266    1.297   .     A
C236   C238    1.437   .     S
C238   C295    1.339   .     S
C238   H310    1.087   .     S
C239   C244    1.411   .     A
C239   O267    1.390   .     S
C240   C243    1.406   .     A
C240   O278    1.383   .     S
C240   C416    1.389   .     S
C241   C243    1.394   .     A
C241   H253    1.083   .     S
C241   C413    1.394   .     S
C242   H254    1.084   .     S
C242   C244    1.402   .     A
C245   N258    1.382   .     A
C245   Br289   1.906   .     S
C245   C1291   1.415   1_554 S
C246   Br290   1.913   .     S
C246   N257    1.382   .     A
C246   C770    1.417   .     S
C247   H255    1.082   .     S
C247   N257    1.358   .     A
C247   C767    1.415   .     S
C248   N258    1.360   .     A
C248   H256    1.082   .     S
C248   C1290   1.417   1_554 S
Cu249  N257    2.026   .     S
Cu249  O262    1.970   .     S
Cu249  Cu250   2.696   .     S
Cu249  O263    1.953   .     S
Cu249  O266    1.959   .     S
Cu249  O259    1.962   .     S
Cu250  N258    2.026   .     S
Cu250  O264    1.953   .     S
Cu250  O261    1.970   .     S
Cu250  O265    1.959   .     S
Cu250  O260    1.962   .     S
H251   C295    1.087   .     S
O267   C268    1.426   .     S
C268   H269    1.111   .     S
C268   C271    1.552   .     S
H270   C442    1.111   .     S
C271   H273    1.107   .     S
C271   C1144   1.519   1_554 S
H272   C445    1.110   .     S
C274   H276    1.107   .     S
C274   C967    1.519   .     S
C274   H797    1.111   .     S
C274   H451    1.111   .     S
H275   C1318   1.111   1_554 S
O278   C279    1.420   .     S
C279   H281    1.114   .     S
C279   C282    1.535   .     S
C279   H280    1.111   .     S
C282   H283    1.108   .     S
C282   H458    1.111   .     S
C285   H286    1.111   .     S
C285   H287    1.109   .     S
C285   H288    1.110   .     S
C285   C340    1.523   .     S
C291   O319    1.298   .     A
C291   C302    1.459   .     S
C291   O317    1.300   .     A
C292   O320    1.296   .     A
C292   C301    1.446   .     S
C292   O318    1.295   .     A
C293   O321    1.289   .     A
C293   O323    1.297   .     A
C293   C295    1.436   .     S
C294   O322    1.290   .     A
C294   O324    1.297   .     A
C294   C296    1.437   .     S
C296   C179    1.339   1_655 S
C296   H194    1.087   1_655 S
C297   C302    1.411   .     A
C297   O325    1.390   .     S
C298   C301    1.406   .     A
C298   O336    1.383   .     S
C298   C474    1.389   .     S
C299   C301    1.394   .     A
C299   H311    1.083   .     S
C299   C471    1.394   .     S
C300   H312    1.084   .     S
C300   C302    1.402   .     A
C303   N316    1.382   .     A
C303   Br347   1.906   .     S
C303   C1349   1.415   1_554 S
C304   Br348   1.913   .     S
C304   N315    1.382   .     A
C304   C828    1.417   .     S
C305   H313    1.082   .     S
C305   N315    1.358   .     A
C305   C825    1.415   .     S
C306   N316    1.360   .     A
C306   H314    1.082   .     S
C306   C1348   1.417   1_554 S
Cu307  N315    2.026   .     S
Cu307  O320    1.970   .     S
Cu307  Cu308   2.696   .     S
Cu307  O321    1.953   .     S
Cu307  O324    1.959   .     S
Cu307  O317    1.962   .     S
Cu308  N316    2.026   .     S
Cu308  O322    1.953   .     S
Cu308  O319    1.970   .     S
Cu308  O323    1.959   .     S
Cu308  O318    1.962   .     S
H309   C179    1.087   1_655 S
O325   C326    1.426   .     S
C326   H327    1.111   .     S
C326   C329    1.552   .     S
H328   C500    1.111   .     S
C329   H331    1.107   .     S
C329   C1202   1.519   1_554 S
H330   C503    1.110   .     S
C332   H334    1.107   .     S
C332   C1025   1.519   .     S
C332   H855    1.111   .     S
C332   H509    1.111   .     S
H333   C1376   1.111   1_554 S
O336   C337    1.420   .     S
C337   H339    1.114   .     S
C337   C340    1.535   .     S
C337   H338    1.111   .     S
C340   H341    1.108   .     S
C340   H516    1.111   .     S
C343   H344    1.111   .     S
C343   H345    1.109   .     S
C343   H346    1.110   .     S
C343   C224    1.523   1_655 S
C349   O377    1.298   .     A
C349   C360    1.459   .     S
C349   O375    1.300   .     A
C350   O378    1.296   .     A
C350   C359    1.446   .     S
C350   O376    1.295   .     A
C351   O379    1.289   .     A
C351   O381    1.297   .     A
C351   C353    1.436   .     S
C352   O380    1.290   .     A
C352   O382    1.297   .     A
C352   C354    1.437   .     S
C353   C470    1.339   1_455 S
C353   H483    1.087   1_455 S
C354   C411    1.339   .     S
C354   H426    1.087   .     S
C355   C360    1.411   .     A
C355   O383    1.390   .     S
C356   C359    1.406   .     A
C356   O394    1.383   .     S
C356   C10     1.389   1_565 S
C357   C359    1.394   .     A
C357   H369    1.083   .     S
C357   C7      1.394   1_565 S
C358   H370    1.084   .     S
C358   C360    1.402   .     A
C361   N374    1.382   .     A
C361   Br405   1.906   .     S
C361   C1407   1.415   1_554 S
C362   Br406   1.913   .     S
C362   N373    1.382   .     A
C362   C886    1.417   .     S
C363   H371    1.082   .     S
C363   N373    1.358   .     A
C363   C883    1.415   .     S
C364   N374    1.360   .     A
C364   H372    1.082   .     S
C364   C1406   1.417   1_554 S
Cu365  N373    2.026   .     S
Cu365  O378    1.970   .     S
Cu365  Cu366   2.696   .     S
Cu365  O379    1.953   .     S
Cu365  O382    1.959   .     S
Cu365  O375    1.962   .     S
Cu366  N374    2.026   .     S
Cu366  O380    1.953   .     S
Cu366  O377    1.970   .     S
Cu366  O381    1.959   .     S
Cu366  O376    1.962   .     S
H367   C411    1.087   .     S
H368   C470    1.087   1_455 S
O383   C384    1.426   .     S
C384   H385    1.111   .     S
C384   C387    1.552   .     S
H386   C36     1.111   1_565 S
C387   H389    1.107   .     S
C387   C1260   1.519   1_554 S
H388   C39     1.110   1_565 S
C390   H392    1.107   .     S
C390   C561    1.519   1_565 S
C390   H913    1.111   .     S
C390   H45     1.111   1_565 S
H391   C1434   1.111   1_554 S
O394   C395    1.420   .     S
C395   H397    1.114   .     S
C395   C398    1.535   .     S
C395   H396    1.111   .     S
C398   H399    1.108   .     S
C398   H52     1.111   1_565 S
C398   C517    1.523   1_455 S
C401   H402    1.111   .     S
C401   H403    1.109   .     S
C401   H404    1.110   .     S
C401   C456    1.523   .     S
C407   O435    1.298   .     A
C407   C418    1.459   .     S
C407   O433    1.300   .     A
C408   O436    1.296   .     A
C408   C417    1.446   .     S
C408   O434    1.295   .     A
C409   O437    1.289   .     A
C409   O439    1.297   .     A
C409   C411    1.436   .     S
C410   O438    1.290   .     A
C410   O440    1.297   .     A
C410   C412    1.437   .     S
C412   C469    1.339   .     S
C412   H484    1.087   .     S
C413   C418    1.411   .     A
C413   O441    1.390   .     S
C414   C417    1.406   .     A
C414   O452    1.383   .     S
C414   C68     1.389   1_565 S
C415   C417    1.394   .     A
C415   H427    1.083   .     S
C415   C65     1.394   1_565 S
C416   H428    1.084   .     S
C416   C418    1.402   .     A
C419   N432    1.382   .     A
C419   Br463   1.906   .     S
C419   C1465   1.415   1_554 S
C420   Br464   1.913   .     S
C420   N431    1.382   .     A
C420   C944    1.417   .     S
C421   H429    1.082   .     S
C421   N431    1.358   .     A
C421   C941    1.415   .     S
C422   N432    1.360   .     A
C422   H430    1.082   .     S
C422   C1464   1.417   1_554 S
Cu423  N431    2.026   .     S
Cu423  O436    1.970   .     S
Cu423  Cu424   2.696   .     S
Cu423  O437    1.953   .     S
Cu423  O440    1.959   .     S
Cu423  O433    1.962   .     S
Cu424  N432    2.026   .     S
Cu424  O438    1.953   .     S
Cu424  O435    1.970   .     S
Cu424  O439    1.959   .     S
Cu424  O434    1.962   .     S
H425   C469    1.087   .     S
O441   C442    1.426   .     S
C442   H443    1.111   .     S
C442   C445    1.552   .     S
H444   C94     1.111   1_565 S
C445   H447    1.107   .     S
C445   C1318   1.519   1_554 S
H446   C97     1.110   1_565 S
C448   H450    1.107   .     S
C448   C619    1.519   1_565 S
C448   H971    1.111   .     S
C448   H103    1.111   1_565 S
H449   C1492   1.111   1_554 S
O452   C453    1.420   .     S
C453   H455    1.114   .     S
C453   C456    1.535   .     S
C453   H454    1.111   .     S
C456   H457    1.108   .     S
C456   H110    1.111   1_565 S
C459   H460    1.111   .     S
C459   H461    1.109   .     S
C459   H462    1.110   .     S
C459   C514    1.523   .     S
C465   O493    1.298   .     A
C465   C476    1.459   .     S
C465   O491    1.300   .     A
C466   O494    1.296   .     A
C466   C475    1.446   .     S
C466   O492    1.295   .     A
C467   O495    1.289   .     A
C467   O497    1.297   .     A
C467   C469    1.436   .     S
C468   O496    1.290   .     A
C468   O498    1.297   .     A
C468   C470    1.437   .     S
C470   C353    1.339   1_655 S
C470   H368    1.087   1_655 S
C471   C476    1.411   .     A
C471   O499    1.390   .     S
C472   C475    1.406   .     A
C472   O510    1.383   .     S
C472   C126    1.389   1_565 S
C473   C475    1.394   .     A
C473   H485    1.083   .     S
C473   C123    1.394   1_565 S
C474   H486    1.084   .     S
C474   C476    1.402   .     A
C477   N490    1.382   .     A
C477   Br521   1.906   .     S
C477   C1523   1.415   1_554 S
C478   Br522   1.913   .     S
C478   N489    1.382   .     A
C478   C1002   1.417   .     S
C479   H487    1.082   .     S
C479   N489    1.358   .     A
C479   C999    1.415   .     S
C480   N490    1.360   .     A
C480   H488    1.082   .     S
C480   C1522   1.417   1_554 S
Cu481  N489    2.026   .     S
Cu481  O494    1.970   .     S
Cu481  Cu482   2.696   .     S
Cu481  O495    1.953   .     S
Cu481  O498    1.959   .     S
Cu481  O491    1.962   .     S
Cu482  N490    2.026   .     S
Cu482  O496    1.953   .     S
Cu482  O493    1.970   .     S
Cu482  O497    1.959   .     S
Cu482  O492    1.962   .     S
H483   C353    1.087   1_655 S
O499   C500    1.426   .     S
C500   H501    1.111   .     S
C500   C503    1.552   .     S
H502   C152    1.111   1_565 S
C503   H505    1.107   .     S
C503   C1376   1.519   1_554 S
H504   C155    1.110   1_565 S
C506   H508    1.107   .     S
C506   C677    1.519   1_565 S
C506   H1029   1.111   .     S
C506   H161    1.111   1_565 S
H507   C1550   1.111   1_554 S
O510   C511    1.420   .     S
C511   H513    1.114   .     S
C511   C514    1.535   .     S
C511   H512    1.111   .     S
C514   H515    1.108   .     S
C514   H168    1.111   1_565 S
C517   H518    1.111   .     S
C517   H519    1.109   .     S
C517   H520    1.110   .     S
C517   C398    1.523   1_655 S
C523   O551    1.298   .     A
C523   C534    1.459   .     S
C523   O549    1.300   .     A
C524   O552    1.296   .     A
C524   C533    1.446   .     S
C524   O550    1.295   .     A
C525   O553    1.289   .     A
C525   O555    1.297   .     A
C525   C527    1.436   .     S
C526   O554    1.290   .     A
C526   O556    1.297   .     A
C526   C528    1.437   .     S
C527   C644    1.339   1_455 S
C527   H657    1.087   1_455 S
C528   C585    1.339   .     S
C528   H600    1.087   .     S
C529   C534    1.411   .     A
C529   O557    1.390   .     S
C529   C879    1.394   1_545 S
C530   C533    1.406   .     A
C530   O568    1.383   .     S
C530   C706    1.389   .     S
C531   C533    1.394   .     A
C531   H543    1.083   .     S
C531   C703    1.394   .     S
C532   H544    1.084   .     S
C532   C534    1.402   .     A
C532   C878    1.389   1_545 S
C535   N548    1.382   .     A
C535   Br579   1.906   .     S
C536   Br580   1.913   .     S
C536   N547    1.382   .     A
C536   C1060   1.417   .     S
C537   H545    1.082   .     S
C537   N547    1.358   .     A
C537   C1057   1.415   .     S
C538   N548    1.360   .     A
C538   H546    1.082   .     S
Cu539  N547    2.026   .     S
Cu539  O552    1.970   .     S
Cu539  Cu540   2.696   .     S
Cu539  O553    1.953   .     S
Cu539  O556    1.959   .     S
Cu539  O549    1.962   .     S
Cu540  N548    2.026   .     S
Cu540  O554    1.953   .     S
Cu540  O551    1.970   .     S
Cu540  O555    1.959   .     S
Cu540  O550    1.962   .     S
H541   C585    1.087   .     S
H542   C644    1.087   1_455 S
O557   C558    1.426   .     S
C558   H559    1.111   .     S
C558   C561    1.552   .     S
C558   H908    1.111   1_545 S
H560   C732    1.111   .     S
C561   H563    1.107   .     S
C561   H910    1.110   1_545 S
C561   C390    1.519   1_545 S
H562   C735    1.110   .     S
C564   H566    1.107   .     S
C564   C1257   1.519   .     S
C564   H1087   1.111   .     S
C564   H741    1.111   .     S
H567   C912    1.111   1_545 S
O568   C569    1.420   .     S
C569   H571    1.114   .     S
C569   C572    1.535   .     S
C569   H570    1.111   .     S
C572   H573    1.108   .     S
C572   H748    1.111   .     S
C572   C691    1.523   1_455 S
H574   C920    1.111   1_545 S
C575   H576    1.111   .     S
C575   H577    1.109   .     S
C575   H578    1.110   .     S
C575   C630    1.523   .     S
C581   O609    1.298   .     A
C581   C592    1.459   .     S
C581   O607    1.300   .     A
C582   O610    1.296   .     A
C582   C591    1.446   .     S
C582   O608    1.295   .     A
C583   O611    1.289   .     A
C583   O613    1.297   .     A
C583   C585    1.436   .     S
C584   O612    1.290   .     A
C584   O614    1.297   .     A
C584   C586    1.437   .     S
C586   C643    1.339   .     S
C586   H658    1.087   .     S
C587   C592    1.411   .     A
C587   O615    1.390   .     S
C587   C937    1.394   1_545 S
C588   C591    1.406   .     A
C588   O626    1.383   .     S
C588   C764    1.389   .     S
C589   C591    1.394   .     A
C589   H601    1.083   .     S
C589   C761    1.394   .     S
C590   H602    1.084   .     S
C590   C592    1.402   .     A
C590   C936    1.389   1_545 S
C593   N606    1.382   .     A
C593   Br637   1.906   .     S
C594   Br638   1.913   .     S
C594   N605    1.382   .     A
C594   C1118   1.417   .     S
C595   H603    1.082   .     S
C595   N605    1.358   .     A
C595   C1115   1.415   .     S
C596   N606    1.360   .     A
C596   H604    1.082   .     S
Cu597  N605    2.026   .     S
Cu597  O610    1.970   .     S
Cu597  Cu598   2.696   .     S
Cu597  O611    1.953   .     S
Cu597  O614    1.959   .     S
Cu597  O607    1.962   .     S
Cu598  N606    2.026   .     S
Cu598  O612    1.953   .     S
Cu598  O609    1.970   .     S
Cu598  O613    1.959   .     S
Cu598  O608    1.962   .     S
H599   C643    1.087   .     S
O615   C616    1.426   .     S
C616   H617    1.111   .     S
C616   C619    1.552   .     S
C616   H966    1.111   1_545 S
H618   C790    1.111   .     S
C619   H621    1.107   .     S
C619   H968    1.110   1_545 S
C619   C448    1.519   1_545 S
H620   C793    1.110   .     S
C622   H624    1.107   .     S
C622   C1315   1.519   .     S
C622   H1145   1.111   .     S
C622   H799    1.111   .     S
H625   C970    1.111   1_545 S
O626   C627    1.420   .     S
C627   H629    1.114   .     S
C627   C630    1.535   .     S
C627   H628    1.111   .     S
C630   H631    1.108   .     S
C630   H806    1.111   .     S
H632   C978    1.111   1_545 S
C633   H634    1.111   .     S
C633   H635    1.109   .     S
C633   H636    1.110   .     S
C633   C688    1.523   .     S
C639   O667    1.298   .     A
C639   C650    1.459   .     S
C639   O665    1.300   .     A
C640   O668    1.296   .     A
C640   C649    1.446   .     S
C640   O666    1.295   .     A
C641   O669    1.289   .     A
C641   O671    1.297   .     A
C641   C643    1.436   .     S
C642   O670    1.290   .     A
C642   O672    1.297   .     A
C642   C644    1.437   .     S
C644   C527    1.339   1_655 S
C644   H542    1.087   1_655 S
C645   C650    1.411   .     A
C645   O673    1.390   .     S
C645   C995    1.394   1_545 S
C646   C649    1.406   .     A
C646   O684    1.383   .     S
C646   C822    1.389   .     S
C647   C649    1.394   .     A
C647   H659    1.083   .     S
C647   C819    1.394   .     S
C648   H660    1.084   .     S
C648   C650    1.402   .     A
C648   C994    1.389   1_545 S
C651   N664    1.382   .     A
C651   Br695   1.906   .     S
C652   Br696   1.913   .     S
C652   N663    1.382   .     A
C652   C1176   1.417   .     S
C653   H661    1.082   .     S
C653   N663    1.358   .     A
C653   C1173   1.415   .     S
C654   N664    1.360   .     A
C654   H662    1.082   .     S
Cu655  N663    2.026   .     S
Cu655  O668    1.970   .     S
Cu655  Cu656   2.696   .     S
Cu655  O669    1.953   .     S
Cu655  O672    1.959   .     S
Cu655  O665    1.962   .     S
Cu656  N664    2.026   .     S
Cu656  O670    1.953   .     S
Cu656  O667    1.970   .     S
Cu656  O671    1.959   .     S
Cu656  O666    1.962   .     S
H657   C527    1.087   1_655 S
O673   C674    1.426   .     S
C674   H675    1.111   .     S
C674   C677    1.552   .     S
C674   H1024   1.111   1_545 S
H676   C848    1.111   .     S
C677   H679    1.107   .     S
C677   H1026   1.110   1_545 S
C677   C506    1.519   1_545 S
H678   C851    1.110   .     S
C680   H682    1.107   .     S
C680   C1373   1.519   .     S
C680   H1203   1.111   .     S
C680   H857    1.111   .     S
H683   C1028   1.111   1_545 S
O684   C685    1.420   .     S
C685   H687    1.114   .     S
C685   C688    1.535   .     S
C685   H686    1.111   .     S
C688   H689    1.108   .     S
C688   H864    1.111   .     S
H690   C1036   1.111   1_545 S
C691   H692    1.111   .     S
C691   H693    1.109   .     S
C691   H694    1.110   .     S
C691   C572    1.523   1_655 S
C697   O725    1.298   .     A
C697   C708    1.459   .     S
C697   O723    1.300   .     A
C698   O726    1.296   .     A
C698   C707    1.446   .     S
C698   O724    1.295   .     A
C699   O727    1.289   .     A
C699   O729    1.297   .     A
C699   C701    1.436   .     S
C700   O728    1.290   .     A
C700   O730    1.297   .     A
C700   C702    1.437   .     S
C701   C818    1.339   1_455 S
C701   H831    1.087   1_455 S
C702   C759    1.339   .     S
C702   H774    1.087   .     S
C703   C708    1.411   .     A
C703   O731    1.390   .     S
C704   C707    1.406   .     A
C704   O742    1.383   .     S
C704   C880    1.389   .     S
C705   C707    1.394   .     A
C705   H717    1.083   .     S
C705   C877    1.394   .     S
C706   H718    1.084   .     S
C706   C708    1.402   .     A
C709   N722    1.382   .     A
C709   Br753   1.906   .     S
C710   Br754   1.913   .     S
C710   N721    1.382   .     A
C710   C1234   1.417   .     S
C711   H719    1.082   .     S
C711   N721    1.358   .     A
C711   C1231   1.415   .     S
C712   N722    1.360   .     A
C712   H720    1.082   .     S
Cu713  N721    2.026   .     S
Cu713  O726    1.970   .     S
Cu713  Cu714   2.696   .     S
Cu713  O727    1.953   .     S
Cu713  O730    1.959   .     S
Cu713  O723    1.962   .     S
Cu714  N722    2.026   .     S
Cu714  O728    1.953   .     S
Cu714  O725    1.970   .     S
Cu714  O729    1.959   .     S
Cu714  O724    1.962   .     S
H715   C759    1.087   .     S
H716   C818    1.087   1_455 S
O731   C732    1.426   .     S
C732   H733    1.111   .     S
C732   C735    1.552   .     S
H734   C906    1.111   .     S
C735   H737    1.107   .     S
H736   C909    1.110   .     S
C738   H740    1.107   .     S
C738   C1431   1.519   .     S
C738   H1261   1.111   .     S
C738   H915    1.111   .     S
O742   C743    1.420   .     S
C743   H745    1.114   .     S
C743   C746    1.535   .     S
C743   H744    1.111   .     S
C746   H747    1.108   .     S
C746   H922    1.111   .     S
C746   C865    1.523   1_455 S
C749   H750    1.111   .     S
C749   H751    1.109   .     S
C749   H752    1.110   .     S
C749   C804    1.523   .     S
C755   O783    1.298   .     A
C755   C766    1.459   .     S
C755   O781    1.300   .     A
C756   O784    1.296   .     A
C756   C765    1.446   .     S
C756   O782    1.295   .     A
C757   O785    1.289   .     A
C757   O787    1.297   .     A
C757   C759    1.436   .     S
C758   O786    1.290   .     A
C758   O788    1.297   .     A
C758   C760    1.437   .     S
C760   C817    1.339   .     S
C760   H832    1.087   .     S
C761   C766    1.411   .     A
C761   O789    1.390   .     S
C762   C765    1.406   .     A
C762   O800    1.383   .     S
C762   C938    1.389   .     S
C763   C765    1.394   .     A
C763   H775    1.083   .     S
C763   C935    1.394   .     S
C764   H776    1.084   .     S
C764   C766    1.402   .     A
C767   N780    1.382   .     A
C767   Br811   1.906   .     S
C768   Br812   1.913   .     S
C768   N779    1.382   .     A
C768   C1292   1.417   .     S
C769   H777    1.082   .     S
C769   N779    1.358   .     A
C769   C1289   1.415   .     S
C770   N780    1.360   .     A
C770   H778    1.082   .     S
Cu771  N779    2.026   .     S
Cu771  O784    1.970   .     S
Cu771  Cu772   2.696   .     S
Cu771  O785    1.953   .     S
Cu771  O788    1.959   .     S
Cu771  O781    1.962   .     S
Cu772  N780    2.026   .     S
Cu772  O786    1.953   .     S
Cu772  O783    1.970   .     S
Cu772  O787    1.959   .     S
Cu772  O782    1.962   .     S
H773   C817    1.087   .     S
O789   C790    1.426   .     S
C790   H791    1.111   .     S
C790   C793    1.552   .     S
H792   C964    1.111   .     S
C793   H795    1.107   .     S
H794   C967    1.110   .     S
C796   H798    1.107   .     S
C796   C1489   1.519   .     S
C796   H1319   1.111   .     S
C796   H973    1.111   .     S
O800   C801    1.420   .     S
C801   H803    1.114   .     S
C801   C804    1.535   .     S
C801   H802    1.111   .     S
C804   H805    1.108   .     S
C804   H980    1.111   .     S
C807   H808    1.111   .     S
C807   H809    1.109   .     S
C807   H810    1.110   .     S
C807   C862    1.523   .     S
C813   O841    1.298   .     A
C813   C824    1.459   .     S
C813   O839    1.300   .     A
C814   O842    1.296   .     A
C814   C823    1.446   .     S
C814   O840    1.295   .     A
C815   O843    1.289   .     A
C815   O845    1.297   .     A
C815   C817    1.436   .     S
C816   O844    1.290   .     A
C816   O846    1.297   .     A
C816   C818    1.437   .     S
C818   C701    1.339   1_655 S
C818   H716    1.087   1_655 S
C819   C824    1.411   .     A
C819   O847    1.390   .     S
C820   C823    1.406   .     A
C820   O858    1.383   .     S
C820   C996    1.389   .     S
C821   C823    1.394   .     A
C821   H833    1.083   .     S
C821   C993    1.394   .     S
C822   H834    1.084   .     S
C822   C824    1.402   .     A
C825   N838    1.382   .     A
C825   Br869   1.906   .     S
C826   Br870   1.913   .     S
C826   N837    1.382   .     A
C826   C1350   1.417   .     S
C827   H835    1.082   .     S
C827   N837    1.358   .     A
C827   C1347   1.415   .     S
C828   N838    1.360   .     A
C828   H836    1.082   .     S
Cu829  N837    2.026   .     S
Cu829  O842    1.970   .     S
Cu829  Cu830   2.696   .     S
Cu829  O843    1.953   .     S
Cu829  O846    1.959   .     S
Cu829  O839    1.962   .     S
Cu830  N838    2.026   .     S
Cu830  O844    1.953   .     S
Cu830  O841    1.970   .     S
Cu830  O845    1.959   .     S
Cu830  O840    1.962   .     S
H831   C701    1.087   1_655 S
O847   C848    1.426   .     S
C848   H849    1.111   .     S
C848   C851    1.552   .     S
H850   C1022   1.111   .     S
C851   H853    1.107   .     S
H852   C1025   1.110   .     S
C854   H856    1.107   .     S
C854   C1547   1.519   .     S
C854   H1377   1.111   .     S
C854   H1031   1.111   .     S
O858   C859    1.420   .     S
C859   H861    1.114   .     S
C859   C862    1.535   .     S
C859   H860    1.111   .     S
C862   H863    1.108   .     S
C862   H1038   1.111   .     S
C865   H866    1.111   .     S
C865   H867    1.109   .     S
C865   H868    1.110   .     S
C865   C746    1.523   1_655 S
C871   O899    1.298   .     A
C871   C882    1.459   .     S
C871   O897    1.300   .     A
C872   O900    1.296   .     A
C872   C881    1.446   .     S
C872   O898    1.295   .     A
C873   O901    1.289   .     A
C873   O903    1.297   .     A
C873   C875    1.436   .     S
C874   O902    1.290   .     A
C874   O904    1.297   .     A
C874   C876    1.437   .     S
C875   C992    1.339   1_455 S
C875   H1005   1.087   1_455 S
C876   C933    1.339   .     S
C876   H948    1.087   .     S
C877   C882    1.411   .     A
C877   O905    1.390   .     S
C878   C881    1.406   .     A
C878   O916    1.383   .     S
C878   C532    1.389   1_565 S
C879   C881    1.394   .     A
C879   H891    1.083   .     S
C879   C529    1.394   1_565 S
C880   H892    1.084   .     S
C880   C882    1.402   .     A
C883   N896    1.382   .     A
C883   Br927   1.906   .     S
C884   Br928   1.913   .     S
C884   N895    1.382   .     A
C884   C1408   1.417   .     S
C885   H893    1.082   .     S
C885   N895    1.358   .     A
C885   C1405   1.415   .     S
C886   N896    1.360   .     A
C886   H894    1.082   .     S
Cu887  N895    2.026   .     S
Cu887  O900    1.970   .     S
Cu887  Cu888   2.696   .     S
Cu887  O901    1.953   .     S
Cu887  O904    1.959   .     S
Cu887  O897    1.962   .     S
Cu888  N896    2.026   .     S
Cu888  O902    1.953   .     S
Cu888  O899    1.970   .     S
Cu888  O903    1.959   .     S
Cu888  O898    1.962   .     S
H889   C933    1.087   .     S
H890   C992    1.087   1_455 S
O905   C906    1.426   .     S
C906   H907    1.111   .     S
C906   C909    1.552   .     S
H908   C558    1.111   1_565 S
C909   H911    1.107   .     S
H910   C561    1.110   1_565 S
C912   H914    1.107   .     S
C912   C1083   1.519   1_565 S
C912   H1435   1.111   .     S
C912   H567    1.111   1_565 S
O916   C917    1.420   .     S
C917   H919    1.114   .     S
C917   C920    1.535   .     S
C917   H918    1.111   .     S
C920   H921    1.108   .     S
C920   H574    1.111   1_565 S
C920   C1039   1.523   1_455 S
C923   H924    1.111   .     S
C923   H925    1.109   .     S
C923   H926    1.110   .     S
C923   C978    1.523   .     S
C929   O957    1.298   .     A
C929   C940    1.459   .     S
C929   O955    1.300   .     A
C930   O958    1.296   .     A
C930   C939    1.446   .     S
C930   O956    1.295   .     A
C931   O959    1.289   .     A
C931   O961    1.297   .     A
C931   C933    1.436   .     S
C932   O960    1.290   .     A
C932   O962    1.297   .     A
C932   C934    1.437   .     S
C934   C991    1.339   .     S
C934   H1006   1.087   .     S
C935   C940    1.411   .     A
C935   O963    1.390   .     S
C936   C939    1.406   .     A
C936   O974    1.383   .     S
C936   C590    1.389   1_565 S
C937   C939    1.394   .     A
C937   H949    1.083   .     S
C937   C587    1.394   1_565 S
C938   H950    1.084   .     S
C938   C940    1.402   .     A
C941   N954    1.382   .     A
C941   Br985   1.906   .     S
C942   Br986   1.913   .     S
C942   N953    1.382   .     A
C942   C1466   1.417   .     S
C943   H951    1.082   .     S
C943   N953    1.358   .     A
C943   C1463   1.415   .     S
C944   N954    1.360   .     A
C944   H952    1.082   .     S
Cu945  N953    2.026   .     S
Cu945  O958    1.970   .     S
Cu945  Cu946   2.696   .     S
Cu945  O959    1.953   .     S
Cu945  O962    1.959   .     S
Cu945  O955    1.962   .     S
Cu946  N954    2.026   .     S
Cu946  O960    1.953   .     S
Cu946  O957    1.970   .     S
Cu946  O961    1.959   .     S
Cu946  O956    1.962   .     S
H947   C991    1.087   .     S
O963   C964    1.426   .     S
C964   H965    1.111   .     S
C964   C967    1.552   .     S
H966   C616    1.111   1_565 S
C967   H969    1.107   .     S
H968   C619    1.110   1_565 S
C970   H972    1.107   .     S
C970   C1141   1.519   1_565 S
C970   H1493   1.111   .     S
C970   H625    1.111   1_565 S
O974   C975    1.420   .     S
C975   H977    1.114   .     S
C975   C978    1.535   .     S
C975   H976    1.111   .     S
C978   H979    1.108   .     S
C978   H632    1.111   1_565 S
C981   H982    1.111   .     S
C981   H983    1.109   .     S
C981   H984    1.110   .     S
C981   C1036   1.523   .     S
C987   O1015   1.298   .     A
C987   C998    1.459   .     S
C987   O1013   1.300   .     A
C988   O1016   1.296   .     A
C988   C997    1.446   .     S
C988   O1014   1.295   .     A
C989   O1017   1.289   .     A
C989   O1019   1.297   .     A
C989   C991    1.436   .     S
C990   O1018   1.290   .     A
C990   O1020   1.297   .     A
C990   C992    1.437   .     S
C992   C875    1.339   1_655 S
C992   H890    1.087   1_655 S
C993   C998    1.411   .     A
C993   O1021   1.390   .     S
C994   C997    1.406   .     A
C994   O1032   1.383   .     S
C994   C648    1.389   1_565 S
C995   C997    1.394   .     A
C995   H1007   1.083   .     S
C995   C645    1.394   1_565 S
C996   H1008   1.084   .     S
C996   C998    1.402   .     A
C999   N1012   1.382   .     A
C999   Br1043  1.906   .     S
C1000  Br1044  1.913   .     S
C1000  N1011   1.382   .     A
C1000  C1524   1.417   .     S
C1001  H1009   1.082   .     S
C1001  N1011   1.358   .     A
C1001  C1521   1.415   .     S
C1002  N1012   1.360   .     A
C1002  H1010   1.082   .     S
Cu1003 N1011   2.026   .     S
Cu1003 O1016   1.970   .     S
Cu1003 Cu1004  2.696   .     S
Cu1003 O1017   1.953   .     S
Cu1003 O1020   1.959   .     S
Cu1003 O1013   1.962   .     S
Cu1004 N1012   2.026   .     S
Cu1004 O1018   1.953   .     S
Cu1004 O1015   1.970   .     S
Cu1004 O1019   1.959   .     S
Cu1004 O1014   1.962   .     S
H1005  C875    1.087   1_655 S
O1021  C1022   1.426   .     S
C1022  H1023   1.111   .     S
C1022  C1025   1.552   .     S
H1024  C674    1.111   1_565 S
C1025  H1027   1.107   .     S
H1026  C677    1.110   1_565 S
C1028  H1030   1.107   .     S
C1028  C1199   1.519   1_565 S
C1028  H1551   1.111   .     S
C1028  H683    1.111   1_565 S
O1032  C1033   1.420   .     S
C1033  H1035   1.114   .     S
C1033  C1036   1.535   .     S
C1033  H1034   1.111   .     S
C1036  H1037   1.108   .     S
C1036  H690    1.111   1_565 S
C1039  H1040   1.111   .     S
C1039  H1041   1.109   .     S
C1039  H1042   1.110   .     S
C1039  C920    1.523   1_655 S
C1045  O1073   1.298   .     A
C1045  C1056   1.459   .     S
C1045  O1071   1.300   .     A
C1046  O1074   1.296   .     A
C1046  C1055   1.446   .     S
C1046  O1072   1.295   .     A
C1047  O1075   1.289   .     A
C1047  O1077   1.297   .     A
C1047  C1049   1.436   .     S
C1048  O1076   1.290   .     A
C1048  O1078   1.297   .     A
C1048  C1050   1.437   .     S
C1049  C1166   1.339   1_455 S
C1049  H1179   1.087   1_455 S
C1050  C1107   1.339   .     S
C1050  H1122   1.087   .     S
C1051  C1056   1.411   .     A
C1051  O1079   1.390   .     S
C1051  C1401   1.394   1_545 S
C1052  C1055   1.406   .     A
C1052  O1090   1.383   .     S
C1052  C1228   1.389   .     S
C1053  C1055   1.394   .     A
C1053  H1065   1.083   .     S
C1053  C1225   1.394   .     S
C1054  H1066   1.084   .     S
C1054  C1056   1.402   .     A
C1054  C1400   1.389   1_545 S
C1057  N1070   1.382   .     A
C1057  Br1101  1.906   .     S
C1058  Br1102  1.913   .     S
C1058  N1069   1.382   .     A
C1058  C16     1.417   1_556 S
C1059  H1067   1.082   .     S
C1059  N1069   1.358   .     A
C1059  C13     1.415   1_556 S
C1060  N1070   1.360   .     A
C1060  H1068   1.082   .     S
Cu1061 N1069   2.026   .     S
Cu1061 O1074   1.970   .     S
Cu1061 Cu1062  2.696   .     S
Cu1061 O1075   1.953   .     S
Cu1061 O1078   1.959   .     S
Cu1061 O1071   1.962   .     S
Cu1062 N1070   2.026   .     S
Cu1062 O1076   1.953   .     S
Cu1062 O1073   1.970   .     S
Cu1062 O1077   1.959   .     S
Cu1062 O1072   1.962   .     S
H1063  C1107   1.087   .     S
H1064  C1166   1.087   1_455 S
O1079  C1080   1.426   .     S
C1080  H1081   1.111   .     S
C1080  C1083   1.552   .     S
C1080  H1430   1.111   1_545 S
H1082  C1254   1.111   .     S
C1083  H1085   1.107   .     S
C1083  H1432   1.110   1_545 S
C1083  C912    1.519   1_545 S
H1084  C1257   1.110   .     S
C1086  H1088   1.107   .     S
C1086  C213    1.519   1_556 S
C1086  H43     1.111   1_556 S
C1086  H1263   1.111   .     S
H1089  C1434   1.111   1_545 S
O1090  C1091   1.420   .     S
C1091  H1093   1.114   .     S
C1091  C1094   1.535   .     S
C1091  H1092   1.111   .     S
C1094  H1095   1.108   .     S
C1094  H1270   1.111   .     S
C1094  C1213   1.523   1_455 S
H1096  C1442   1.111   1_545 S
C1097  H1098   1.111   .     S
C1097  H1099   1.109   .     S
C1097  H1100   1.110   .     S
C1097  C1152   1.523   .     S
C1103  O1131   1.298   .     A
C1103  C1114   1.459   .     S
C1103  O1129   1.300   .     A
C1104  O1132   1.296   .     A
C1104  C1113   1.446   .     S
C1104  O1130   1.295   .     A
C1105  O1133   1.289   .     A
C1105  O1135   1.297   .     A
C1105  C1107   1.436   .     S
C1106  O1134   1.290   .     A
C1106  O1136   1.297   .     A
C1106  C1108   1.437   .     S
C1108  C1165   1.339   .     S
C1108  H1180   1.087   .     S
C1109  C1114   1.411   .     A
C1109  O1137   1.390   .     S
C1109  C1459   1.394   1_545 S
C1110  C1113   1.406   .     A
C1110  O1148   1.383   .     S
C1110  C1286   1.389   .     S
C1111  C1113   1.394   .     A
C1111  H1123   1.083   .     S
C1111  C1283   1.394   .     S
C1112  H1124   1.084   .     S
C1112  C1114   1.402   .     A
C1112  C1458   1.389   1_545 S
C1115  N1128   1.382   .     A
C1115  Br1159  1.906   .     S
C1116  Br1160  1.913   .     S
C1116  N1127   1.382   .     A
C1116  C74     1.417   1_556 S
C1117  H1125   1.082   .     S
C1117  N1127   1.358   .     A
C1117  C71     1.415   1_556 S
C1118  N1128   1.360   .     A
C1118  H1126   1.082   .     S
Cu1119 N1127   2.026   .     S
Cu1119 O1132   1.970   .     S
Cu1119 Cu1120  2.696   .     S
Cu1119 O1133   1.953   .     S
Cu1119 O1136   1.959   .     S
Cu1119 O1129   1.962   .     S
Cu1120 N1128   2.026   .     S
Cu1120 O1134   1.953   .     S
Cu1120 O1131   1.970   .     S
Cu1120 O1135   1.959   .     S
Cu1120 O1130   1.962   .     S
H1121  C1165   1.087   .     S
O1137  C1138   1.426   .     S
C1138  H1139   1.111   .     S
C1138  C1141   1.552   .     S
C1138  H1488   1.111   1_545 S
H1140  C1312   1.111   .     S
C1141  H1143   1.107   .     S
C1141  H1490   1.110   1_545 S
C1141  C970    1.519   1_545 S
H1142  C1315   1.110   .     S
C1144  H1146   1.107   .     S
C1144  C271    1.519   1_556 S
C1144  H101    1.111   1_556 S
C1144  H1321   1.111   .     S
H1147  C1492   1.111   1_545 S
O1148  C1149   1.420   .     S
C1149  H1151   1.114   .     S
C1149  C1152   1.535   .     S
C1149  H1150   1.111   .     S
C1152  H1153   1.108   .     S
C1152  H1328   1.111   .     S
H1154  C1500   1.111   1_545 S
C1155  H1156   1.111   .     S
C1155  H1157   1.109   .     S
C1155  H1158   1.110   .     S
C1155  C1210   1.523   .     S
C1161  O1189   1.298   .     A
C1161  C1172   1.459   .     S
C1161  O1187   1.300   .     A
C1162  O1190   1.296   .     A
C1162  C1171   1.446   .     S
C1162  O1188   1.295   .     A
C1163  O1191   1.289   .     A
C1163  O1193   1.297   .     A
C1163  C1165   1.436   .     S
C1164  O1192   1.290   .     A
C1164  O1194   1.297   .     A
C1164  C1166   1.437   .     S
C1166  C1049   1.339   1_655 S
C1166  H1064   1.087   1_655 S
C1167  C1172   1.411   .     A
C1167  O1195   1.390   .     S
C1167  C1517   1.394   1_545 S
C1168  C1171   1.406   .     A
C1168  O1206   1.383   .     S
C1168  C1344   1.389   .     S
C1169  C1171   1.394   .     A
C1169  H1181   1.083   .     S
C1169  C1341   1.394   .     S
C1170  H1182   1.084   .     S
C1170  C1172   1.402   .     A
C1170  C1516   1.389   1_545 S
C1173  N1186   1.382   .     A
C1173  Br1217  1.906   .     S
C1174  Br1218  1.913   .     S
C1174  N1185   1.382   .     A
C1174  C132    1.417   1_556 S
C1175  H1183   1.082   .     S
C1175  N1185   1.358   .     A
C1175  C129    1.415   1_556 S
C1176  N1186   1.360   .     A
C1176  H1184   1.082   .     S
Cu1177 N1185   2.026   .     S
Cu1177 O1190   1.970   .     S
Cu1177 Cu1178  2.696   .     S
Cu1177 O1191   1.953   .     S
Cu1177 O1194   1.959   .     S
Cu1177 O1187   1.962   .     S
Cu1178 N1186   2.026   .     S
Cu1178 O1192   1.953   .     S
Cu1178 O1189   1.970   .     S
Cu1178 O1193   1.959   .     S
Cu1178 O1188   1.962   .     S
H1179  C1049   1.087   1_655 S
O1195  C1196   1.426   .     S
C1196  H1197   1.111   .     S
C1196  C1199   1.552   .     S
C1196  H1546   1.111   1_545 S
H1198  C1370   1.111   .     S
C1199  H1201   1.107   .     S
C1199  H1548   1.110   1_545 S
C1199  C1028   1.519   1_545 S
H1200  C1373   1.110   .     S
C1202  H1204   1.107   .     S
C1202  C329    1.519   1_556 S
C1202  H159    1.111   1_556 S
C1202  H1379   1.111   .     S
H1205  C1550   1.111   1_545 S
O1206  C1207   1.420   .     S
C1207  H1209   1.114   .     S
C1207  C1210   1.535   .     S
C1207  H1208   1.111   .     S
C1210  H1211   1.108   .     S
C1210  H1386   1.111   .     S
H1212  C1558   1.111   1_545 S
C1213  H1214   1.111   .     S
C1213  H1215   1.109   .     S
C1213  H1216   1.110   .     S
C1213  C1094   1.523   1_655 S
C1219  O1247   1.298   .     A
C1219  C1230   1.459   .     S
C1219  O1245   1.300   .     A
C1220  O1248   1.296   .     A
C1220  C1229   1.446   .     S
C1220  O1246   1.295   .     A
C1221  O1249   1.289   .     A
C1221  O1251   1.297   .     A
C1221  C1223   1.436   .     S
C1222  O1250   1.290   .     A
C1222  O1252   1.297   .     A
C1222  C1224   1.437   .     S
C1223  C1340   1.339   1_455 S
C1223  H1353   1.087   1_455 S
C1224  C1281   1.339   .     S
C1224  H1296   1.087   .     S
C1225  C1230   1.411   .     A
C1225  O1253   1.390   .     S
C1226  C1229   1.406   .     A
C1226  O1264   1.383   .     S
C1226  C1402   1.389   .     S
C1227  C1229   1.394   .     A
C1227  H1239   1.083   .     S
C1227  C1399   1.394   .     S
C1228  H1240   1.084   .     S
C1228  C1230   1.402   .     A
C1231  N1244   1.382   .     A
C1231  Br1275  1.906   .     S
C1232  Br1276  1.913   .     S
C1232  N1243   1.382   .     A
C1232  C190    1.417   1_556 S
C1233  H1241   1.082   .     S
C1233  N1243   1.358   .     A
C1233  C187    1.415   1_556 S
C1234  N1244   1.360   .     A
C1234  H1242   1.082   .     S
Cu1235 N1243   2.026   .     S
Cu1235 O1248   1.970   .     S
Cu1235 Cu1236  2.696   .     S
Cu1235 O1249   1.953   .     S
Cu1235 O1252   1.959   .     S
Cu1235 O1245   1.962   .     S
Cu1236 N1244   2.026   .     S
Cu1236 O1250   1.953   .     S
Cu1236 O1247   1.970   .     S
Cu1236 O1251   1.959   .     S
Cu1236 O1246   1.962   .     S
H1237  C1281   1.087   .     S
H1238  C1340   1.087   1_455 S
O1253  C1254   1.426   .     S
C1254  H1255   1.111   .     S
C1254  C1257   1.552   .     S
H1256  C1428   1.111   .     S
C1257  H1259   1.107   .     S
H1258  C1431   1.110   .     S
C1260  H1262   1.107   .     S
C1260  C387    1.519   1_556 S
C1260  H217    1.111   1_556 S
C1260  H1437   1.111   .     S
O1264  C1265   1.420   .     S
C1265  H1267   1.114   .     S
C1265  C1268   1.535   .     S
C1265  H1266   1.111   .     S
C1268  H1269   1.108   .     S
C1268  H1444   1.111   .     S
C1268  C1387   1.523   1_455 S
C1271  H1272   1.111   .     S
C1271  H1273   1.109   .     S
C1271  H1274   1.110   .     S
C1271  C1326   1.523   .     S
C1277  O1305   1.298   .     A
C1277  C1288   1.459   .     S
C1277  O1303   1.300   .     A
C1278  O1306   1.296   .     A
C1278  C1287   1.446   .     S
C1278  O1304   1.295   .     A
C1279  O1307   1.289   .     A
C1279  O1309   1.297   .     A
C1279  C1281   1.436   .     S
C1280  O1308   1.290   .     A
C1280  O1310   1.297   .     A
C1280  C1282   1.437   .     S
C1282  C1339   1.339   .     S
C1282  H1354   1.087   .     S
C1283  C1288   1.411   .     A
C1283  O1311   1.390   .     S
C1284  C1287   1.406   .     A
C1284  O1322   1.383   .     S
C1284  C1460   1.389   .     S
C1285  C1287   1.394   .     A
C1285  H1297   1.083   .     S
C1285  C1457   1.394   .     S
C1286  H1298   1.084   .     S
C1286  C1288   1.402   .     A
C1289  N1302   1.382   .     A
C1289  Br1333  1.906   .     S
C1290  Br1334  1.913   .     S
C1290  N1301   1.382   .     A
C1290  C248    1.417   1_556 S
C1291  H1299   1.082   .     S
C1291  N1301   1.358   .     A
C1291  C245    1.415   1_556 S
C1292  N1302   1.360   .     A
C1292  H1300   1.082   .     S
Cu1293 N1301   2.026   .     S
Cu1293 O1306   1.970   .     S
Cu1293 Cu1294  2.696   .     S
Cu1293 O1307   1.953   .     S
Cu1293 O1310   1.959   .     S
Cu1293 O1303   1.962   .     S
Cu1294 N1302   2.026   .     S
Cu1294 O1308   1.953   .     S
Cu1294 O1305   1.970   .     S
Cu1294 O1309   1.959   .     S
Cu1294 O1304   1.962   .     S
H1295  C1339   1.087   .     S
O1311  C1312   1.426   .     S
C1312  H1313   1.111   .     S
C1312  C1315   1.552   .     S
H1314  C1486   1.111   .     S
C1315  H1317   1.107   .     S
H1316  C1489   1.110   .     S
C1318  H1320   1.107   .     S
C1318  C445    1.519   1_556 S
C1318  H275    1.111   1_556 S
C1318  H1495   1.111   .     S
O1322  C1323   1.420   .     S
C1323  H1325   1.114   .     S
C1323  C1326   1.535   .     S
C1323  H1324   1.111   .     S
C1326  H1327   1.108   .     S
C1326  H1502   1.111   .     S
C1329  H1330   1.111   .     S
C1329  H1331   1.109   .     S
C1329  H1332   1.110   .     S
C1329  C1384   1.523   .     S
C1335  O1363   1.298   .     A
C1335  C1346   1.459   .     S
C1335  O1361   1.300   .     A
C1336  O1364   1.296   .     A
C1336  C1345   1.446   .     S
C1336  O1362   1.295   .     A
C1337  O1365   1.289   .     A
C1337  O1367   1.297   .     A
C1337  C1339   1.436   .     S
C1338  O1366   1.290   .     A
C1338  O1368   1.297   .     A
C1338  C1340   1.437   .     S
C1340  C1223   1.339   1_655 S
C1340  H1238   1.087   1_655 S
C1341  C1346   1.411   .     A
C1341  O1369   1.390   .     S
C1342  C1345   1.406   .     A
C1342  O1380   1.383   .     S
C1342  C1518   1.389   .     S
C1343  C1345   1.394   .     A
C1343  H1355   1.083   .     S
C1343  C1515   1.394   .     S
C1344  H1356   1.084   .     S
C1344  C1346   1.402   .     A
C1347  N1360   1.382   .     A
C1347  Br1391  1.906   .     S
C1348  Br1392  1.913   .     S
C1348  N1359   1.382   .     A
C1348  C306    1.417   1_556 S
C1349  H1357   1.082   .     S
C1349  N1359   1.358   .     A
C1349  C303    1.415   1_556 S
C1350  N1360   1.360   .     A
C1350  H1358   1.082   .     S
Cu1351 N1359   2.026   .     S
Cu1351 O1364   1.970   .     S
Cu1351 Cu1352  2.696   .     S
Cu1351 O1365   1.953   .     S
Cu1351 O1368   1.959   .     S
Cu1351 O1361   1.962   .     S
Cu1352 N1360   2.026   .     S
Cu1352 O1366   1.953   .     S
Cu1352 O1363   1.970   .     S
Cu1352 O1367   1.959   .     S
Cu1352 O1362   1.962   .     S
H1353  C1223   1.087   1_655 S
O1369  C1370   1.426   .     S
C1370  H1371   1.111   .     S
C1370  C1373   1.552   .     S
H1372  C1544   1.111   .     S
C1373  H1375   1.107   .     S
H1374  C1547   1.110   .     S
C1376  H1378   1.107   .     S
C1376  C503    1.519   1_556 S
C1376  H333    1.111   1_556 S
C1376  H1553   1.111   .     S
O1380  C1381   1.420   .     S
C1381  H1383   1.114   .     S
C1381  C1384   1.535   .     S
C1381  H1382   1.111   .     S
C1384  H1385   1.108   .     S
C1384  H1560   1.111   .     S
C1387  H1388   1.111   .     S
C1387  H1389   1.109   .     S
C1387  H1390   1.110   .     S
C1387  C1268   1.523   1_655 S
C1393  O1421   1.298   .     A
C1393  C1404   1.459   .     S
C1393  O1419   1.300   .     A
C1394  O1422   1.296   .     A
C1394  C1403   1.446   .     S
C1394  O1420   1.295   .     A
C1395  O1423   1.289   .     A
C1395  O1425   1.297   .     A
C1395  C1397   1.436   .     S
C1396  O1424   1.290   .     A
C1396  O1426   1.297   .     A
C1396  C1398   1.437   .     S
C1397  C1514   1.339   1_455 S
C1397  H1527   1.087   1_455 S
C1398  C1455   1.339   .     S
C1398  H1470   1.087   .     S
C1399  C1404   1.411   .     A
C1399  O1427   1.390   .     S
C1400  C1403   1.406   .     A
C1400  O1438   1.383   .     S
C1400  C1054   1.389   1_565 S
C1401  C1403   1.394   .     A
C1401  H1413   1.083   .     S
C1401  C1051   1.394   1_565 S
C1402  H1414   1.084   .     S
C1402  C1404   1.402   .     A
C1405  N1418   1.382   .     A
C1405  Br1449  1.906   .     S
C1406  Br1450  1.913   .     S
C1406  N1417   1.382   .     A
C1406  C364    1.417   1_556 S
C1407  H1415   1.082   .     S
C1407  N1417   1.358   .     A
C1407  C361    1.415   1_556 S
C1408  N1418   1.360   .     A
C1408  H1416   1.082   .     S
Cu1409 N1417   2.026   .     S
Cu1409 O1422   1.970   .     S
Cu1409 Cu1410  2.696   .     S
Cu1409 O1423   1.953   .     S
Cu1409 O1426   1.959   .     S
Cu1409 O1419   1.962   .     S
Cu1410 N1418   2.026   .     S
Cu1410 O1424   1.953   .     S
Cu1410 O1421   1.970   .     S
Cu1410 O1425   1.959   .     S
Cu1410 O1420   1.962   .     S
H1411  C1455   1.087   .     S
H1412  C1514   1.087   1_455 S
O1427  C1428   1.426   .     S
C1428  H1429   1.111   .     S
C1428  C1431   1.552   .     S
H1430  C1080   1.111   1_565 S
C1431  H1433   1.107   .     S
H1432  C1083   1.110   1_565 S
C1434  H1436   1.107   .     S
C1434  C39     1.519   1_566 S
C1434  H391    1.111   1_556 S
C1434  H1089   1.111   1_565 S
O1438  C1439   1.420   .     S
C1439  H1441   1.114   .     S
C1439  C1442   1.535   .     S
C1439  H1440   1.111   .     S
C1442  H1443   1.108   .     S
C1442  H1096   1.111   1_565 S
C1442  C1561   1.523   1_455 S
C1445  H1446   1.111   .     S
C1445  H1447   1.109   .     S
C1445  H1448   1.110   .     S
C1445  C1500   1.523   .     S
C1451  O1479   1.298   .     A
C1451  C1462   1.459   .     S
C1451  O1477   1.300   .     A
C1452  O1480   1.296   .     A
C1452  C1461   1.446   .     S
C1452  O1478   1.295   .     A
C1453  O1481   1.289   .     A
C1453  O1483   1.297   .     A
C1453  C1455   1.436   .     S
C1454  O1482   1.290   .     A
C1454  O1484   1.297   .     A
C1454  C1456   1.437   .     S
C1456  C1513   1.339   .     S
C1456  H1528   1.087   .     S
C1457  C1462   1.411   .     A
C1457  O1485   1.390   .     S
C1458  C1461   1.406   .     A
C1458  O1496   1.383   .     S
C1458  C1112   1.389   1_565 S
C1459  C1461   1.394   .     A
C1459  H1471   1.083   .     S
C1459  C1109   1.394   1_565 S
C1460  H1472   1.084   .     S
C1460  C1462   1.402   .     A
C1463  N1476   1.382   .     A
C1463  Br1507  1.906   .     S
C1464  Br1508  1.913   .     S
C1464  N1475   1.382   .     A
C1464  C422    1.417   1_556 S
C1465  H1473   1.082   .     S
C1465  N1475   1.358   .     A
C1465  C419    1.415   1_556 S
C1466  N1476   1.360   .     A
C1466  H1474   1.082   .     S
Cu1467 N1475   2.026   .     S
Cu1467 O1480   1.970   .     S
Cu1467 Cu1468  2.696   .     S
Cu1467 O1481   1.953   .     S
Cu1467 O1484   1.959   .     S
Cu1467 O1477   1.962   .     S
Cu1468 N1476   2.026   .     S
Cu1468 O1482   1.953   .     S
Cu1468 O1479   1.970   .     S
Cu1468 O1483   1.959   .     S
Cu1468 O1478   1.962   .     S
H1469  C1513   1.087   .     S
O1485  C1486   1.426   .     S
C1486  H1487   1.111   .     S
C1486  C1489   1.552   .     S
H1488  C1138   1.111   1_565 S
C1489  H1491   1.107   .     S
H1490  C1141   1.110   1_565 S
C1492  H1494   1.107   .     S
C1492  C97     1.519   1_566 S
C1492  H449    1.111   1_556 S
C1492  H1147   1.111   1_565 S
O1496  C1497   1.420   .     S
C1497  H1499   1.114   .     S
C1497  C1500   1.535   .     S
C1497  H1498   1.111   .     S
C1500  H1501   1.108   .     S
C1500  H1154   1.111   1_565 S
C1503  H1504   1.111   .     S
C1503  H1505   1.109   .     S
C1503  H1506   1.110   .     S
C1503  C1558   1.523   .     S
C1509  O1537   1.298   .     A
C1509  C1520   1.459   .     S
C1509  O1535   1.300   .     A
C1510  O1538   1.296   .     A
C1510  C1519   1.446   .     S
C1510  O1536   1.295   .     A
C1511  O1539   1.289   .     A
C1511  O1541   1.297   .     A
C1511  C1513   1.436   .     S
C1512  O1540   1.290   .     A
C1512  O1542   1.297   .     A
C1512  C1514   1.437   .     S
C1514  C1397   1.339   1_655 S
C1514  H1412   1.087   1_655 S
C1515  C1520   1.411   .     A
C1515  O1543   1.390   .     S
C1516  C1519   1.406   .     A
C1516  O1554   1.383   .     S
C1516  C1170   1.389   1_565 S
C1517  C1519   1.394   .     A
C1517  H1529   1.083   .     S
C1517  C1167   1.394   1_565 S
C1518  H1530   1.084   .     S
C1518  C1520   1.402   .     A
C1521  N1534   1.382   .     A
C1521  Br1565  1.906   .     S
C1522  Br1566  1.913   .     S
C1522  N1533   1.382   .     A
C1522  C480    1.417   1_556 S
C1523  H1531   1.082   .     S
C1523  N1533   1.358   .     A
C1523  C477    1.415   1_556 S
C1524  N1534   1.360   .     A
C1524  H1532   1.082   .     S
Cu1525 N1533   2.026   .     S
Cu1525 O1538   1.970   .     S
Cu1525 Cu1526  2.696   .     S
Cu1525 O1539   1.953   .     S
Cu1525 O1542   1.959   .     S
Cu1525 O1535   1.962   .     S
Cu1526 N1534   2.026   .     S
Cu1526 O1540   1.953   .     S
Cu1526 O1537   1.970   .     S
Cu1526 O1541   1.959   .     S
Cu1526 O1536   1.962   .     S
H1527  C1397   1.087   1_655 S
O1543  C1544   1.426   .     S
C1544  H1545   1.111   .     S
C1544  C1547   1.552   .     S
H1546  C1196   1.111   1_565 S
C1547  H1549   1.107   .     S
H1548  C1199   1.110   1_565 S
C1550  H1552   1.107   .     S
C1550  C155    1.519   1_566 S
C1550  H507    1.111   1_556 S
C1550  H1205   1.111   1_565 S
O1554  C1555   1.420   .     S
C1555  H1557   1.114   .     S
C1555  C1558   1.535   .     S
C1555  H1556   1.111   .     S
C1558  H1559   1.108   .     S
C1558  H1212   1.111   1_565 S
C1561  H1562   1.111   .     S
C1561  H1563   1.109   .     S
C1561  H1564   1.110   .     S
C1561  C1442   1.523   1_655 S
