data_str_m2_o1_o17_pcu_sym.230
_audit_creation_date              2020-01-03
_audit_creation_method            'Materials Studio'
_symmetry_space_group_name_H-M    'P1'
_symmetry_Int_Tables_number       1
_symmetry_cell_setting            triclinic
loop_
_symmetry_equiv_pos_as_xyz
  x,y,z
_cell_length_a                    32.4886
_cell_length_b                    28.7280
_cell_length_c                    30.1632
_cell_angle_alpha                 90.0100
_cell_angle_beta                  91.5000
_cell_angle_gamma                 89.9639
loop_
_atom_site_label
_atom_site_type_symbol
_atom_site_fract_x
_atom_site_fract_y
_atom_site_fract_z
_atom_site_U_iso_or_equiv
_atom_site_adp_type
_atom_site_occupancy
C1     C     0.08741   0.16667   0.24995   0.00000  Uiso   1.00
C2     C     0.24592   0.16666   0.25005   0.00000  Uiso   1.00
C3     C     0.14701   0.24919   0.02206   0.00000  Uiso   1.00
C4     C     0.18632   0.08414   0.47794   0.00000  Uiso   1.00
C5     C     0.02130   0.12438   0.24951   0.00000  Uiso   1.00
C6     C     0.31203   0.20896   0.25049   0.00000  Uiso   1.00
C7     C     0.31206   0.12437   0.24952   0.00000  Uiso   1.00
C8     C     0.02128   0.20897   0.25048   0.00000  Uiso   1.00
C9     C     0.29057   0.16666   0.25004   0.00000  Uiso   1.00
C10    C     0.04277   0.16668   0.24996   0.00000  Uiso   1.00
C11    C     0.14063   0.02483   0.22209   0.00000  Uiso   1.00
C12    C     0.19270   0.30850   0.27792   0.00000  Uiso   1.00
C13    C     0.19279   0.02478   0.27782   0.00000  Uiso   1.00
C14    C     0.14054   0.30855   0.22218   0.00000  Uiso   1.00
C15    C     0.16664   0.16666   0.16437   0.00000  Uiso   1.00
C16    C     0.16669   0.16667   0.33563   0.00000  Uiso   1.00
C17    C     0.17580   0.12562   0.40738   0.00000  Uiso   1.00
C18    C     0.15753   0.20772   0.09262   0.00000  Uiso   1.00
C19    C     0.16670   0.16664   0.38404   0.00000  Uiso   1.00
C20    C     0.16664   0.16669   0.11596   0.00000  Uiso   1.00
C21    C     0.15753   0.20754   0.40696   0.00000  Uiso   1.00
C22    C     0.17581   0.12579   0.09304   0.00000  Uiso   1.00
C23    C     0.15717   0.20768   0.45311   0.00000  Uiso   1.00
C24    C     0.17617   0.12566   0.04689   0.00000  Uiso   1.00
C25    C     0.16672   0.16648   0.47673   0.00000  Uiso   1.00
C26    C     0.16661   0.16685   0.02327   0.00000  Uiso   1.00
C27    C     0.17635   0.12499   0.45381   0.00000  Uiso   1.00
C28    C     0.15698   0.20834   0.04619   0.00000  Uiso   1.00
C29    C     0.14720   0.24847   0.47581   0.00000  Uiso   1.00
C30    C     0.18613   0.08486   0.02419   0.00000  Uiso   1.00
Cu31   Cu    0.16667   0.21355   0.25000   0.00000  Uiso   1.00
Cu32   Cu    0.16667   0.11978   0.25000   0.00000  Uiso   1.00
H33    H     0.18270   0.09425   0.38916   0.00000  Uiso   1.00
H34    H     0.15064   0.23908   0.11084   0.00000  Uiso   1.00
H35    H     0.15023   0.23924   0.38887   0.00000  Uiso   1.00
H36    H     0.18310   0.09409   0.11114   0.00000  Uiso   1.00
H37    H     0.13936   0.27983   0.45741   0.00000  Uiso   1.00
H38    H     0.19398   0.05350   0.04259   0.00000  Uiso   1.00
N39    N     0.16667   0.28402   0.25000   0.00000  Uiso   1.00
N40    N     0.16667   0.04931   0.25000   0.00000  Uiso   1.00
O41    O     0.10655   0.20625   0.25000   0.00000  Uiso   1.00
O42    O     0.22679   0.12709   0.25001   0.00000  Uiso   1.00
O43    O     0.22679   0.20625   0.25001   0.00000  Uiso   1.00
O44    O     0.10655   0.12709   0.25000   0.00000  Uiso   1.00
O45    O     0.16666   0.20627   0.18513   0.00000  Uiso   1.00
O46    O     0.16668   0.12707   0.31487   0.00000  Uiso   1.00
O47    O     0.16668   0.20627   0.31487   0.00000  Uiso   1.00
O48    O     0.16666   0.12707   0.18513   0.00000  Uiso   1.00
C49    C     0.13591   0.29215   0.04372   0.00000  Uiso   1.00
N50    N     0.12692   0.32646   0.06111   0.00000  Uiso   1.00
C51    C     0.19742   0.04118   0.45628   0.00000  Uiso   1.00
N52    N     0.20642   0.00688   0.43889   0.00000  Uiso   1.00
H53    H     0.03731   0.09130   0.24914   0.00000  Uiso   1.00
H54    H     0.29603   0.24204   0.25086   0.00000  Uiso   1.00
H55    H     0.29608   0.09129   0.24910   0.00000  Uiso   1.00
H56    H     0.03726   0.24205   0.25090   0.00000  Uiso   1.00
C57    C     0.11307   0.04954   0.19199   0.00000  Uiso   1.00
N58    N     0.09087   0.06895   0.16769   0.00000  Uiso   1.00
C59    C     0.22026   0.28380   0.30801   0.00000  Uiso   1.00
N60    N     0.24246   0.26439   0.33231   0.00000  Uiso   1.00
C61    C     0.22108   0.04939   0.30716   0.00000  Uiso   1.00
N62    N     0.24400   0.06866   0.33076   0.00000  Uiso   1.00
C63    C     0.11225   0.28394   0.19284   0.00000  Uiso   1.00
N64    N     0.08934   0.26467   0.16924   0.00000  Uiso   1.00
C65    C     0.42074   0.16667   0.24995   0.00000  Uiso   1.00
C66    C     0.57926   0.16666   0.25005   0.00000  Uiso   1.00
C67    C     0.48035   0.24919   0.02206   0.00000  Uiso   1.00
C68    C     0.51965   0.08414   0.47794   0.00000  Uiso   1.00
C69    C     0.35464   0.12438   0.24951   0.00000  Uiso   1.00
C70    C     0.64536   0.20896   0.25049   0.00000  Uiso   1.00
C71    C     0.64539   0.12437   0.24952   0.00000  Uiso   1.00
C72    C     0.35461   0.20897   0.25048   0.00000  Uiso   1.00
C73    C     0.62390   0.16666   0.25004   0.00000  Uiso   1.00
C74    C     0.37610   0.16668   0.24996   0.00000  Uiso   1.00
C75    C     0.47397   0.02483   0.22209   0.00000  Uiso   1.00
C76    C     0.52603   0.30850   0.27792   0.00000  Uiso   1.00
C77    C     0.52612   0.02478   0.27782   0.00000  Uiso   1.00
C78    C     0.47388   0.30855   0.22218   0.00000  Uiso   1.00
C79    C     0.49997   0.16666   0.16437   0.00000  Uiso   1.00
C80    C     0.50003   0.16667   0.33563   0.00000  Uiso   1.00
C81    C     0.50914   0.12562   0.40738   0.00000  Uiso   1.00
C82    C     0.49086   0.20772   0.09262   0.00000  Uiso   1.00
C83    C     0.50003   0.16664   0.38404   0.00000  Uiso   1.00
C84    C     0.49997   0.16669   0.11596   0.00000  Uiso   1.00
C85    C     0.49086   0.20754   0.40696   0.00000  Uiso   1.00
C86    C     0.50914   0.12579   0.09304   0.00000  Uiso   1.00
C87    C     0.49050   0.20768   0.45311   0.00000  Uiso   1.00
C88    C     0.50950   0.12566   0.04689   0.00000  Uiso   1.00
C89    C     0.50006   0.16648   0.47673   0.00000  Uiso   1.00
C90    C     0.49994   0.16685   0.02327   0.00000  Uiso   1.00
C91    C     0.50968   0.12499   0.45381   0.00000  Uiso   1.00
C92    C     0.49032   0.20834   0.04619   0.00000  Uiso   1.00
C93    C     0.48054   0.24847   0.47581   0.00000  Uiso   1.00
C94    C     0.51946   0.08486   0.02419   0.00000  Uiso   1.00
Cu95   Cu    0.50000   0.21355   0.25000   0.00000  Uiso   1.00
Cu96   Cu    0.50000   0.11978   0.25000   0.00000  Uiso   1.00
H97    H     0.51603   0.09425   0.38916   0.00000  Uiso   1.00
H98    H     0.48397   0.23908   0.11084   0.00000  Uiso   1.00
H99    H     0.48356   0.23924   0.38887   0.00000  Uiso   1.00
H100   H     0.51644   0.09409   0.11114   0.00000  Uiso   1.00
H101   H     0.47269   0.27983   0.45741   0.00000  Uiso   1.00
H102   H     0.52731   0.05350   0.04259   0.00000  Uiso   1.00
N103   N     0.50000   0.28402   0.25000   0.00000  Uiso   1.00
N104   N     0.50000   0.04931   0.25000   0.00000  Uiso   1.00
O105   O     0.43988   0.20625   0.25000   0.00000  Uiso   1.00
O106   O     0.56012   0.12709   0.25001   0.00000  Uiso   1.00
O107   O     0.56012   0.20625   0.25001   0.00000  Uiso   1.00
O108   O     0.43988   0.12709   0.25000   0.00000  Uiso   1.00
O109   O     0.49999   0.20627   0.18513   0.00000  Uiso   1.00
O110   O     0.50001   0.12707   0.31487   0.00000  Uiso   1.00
O111   O     0.50001   0.20627   0.31487   0.00000  Uiso   1.00
O112   O     0.49999   0.12707   0.18513   0.00000  Uiso   1.00
C113   C     0.46924   0.29215   0.04372   0.00000  Uiso   1.00
N114   N     0.46025   0.32646   0.06111   0.00000  Uiso   1.00
C115   C     0.53076   0.04118   0.45628   0.00000  Uiso   1.00
N116   N     0.53975   0.00688   0.43889   0.00000  Uiso   1.00
H117   H     0.37064   0.09130   0.24914   0.00000  Uiso   1.00
H118   H     0.62936   0.24204   0.25086   0.00000  Uiso   1.00
H119   H     0.62941   0.09129   0.24910   0.00000  Uiso   1.00
H120   H     0.37059   0.24205   0.25090   0.00000  Uiso   1.00
C121   C     0.44640   0.04954   0.19199   0.00000  Uiso   1.00
N122   N     0.42421   0.06895   0.16769   0.00000  Uiso   1.00
C123   C     0.55360   0.28380   0.30801   0.00000  Uiso   1.00
N124   N     0.57579   0.26439   0.33231   0.00000  Uiso   1.00
C125   C     0.55442   0.04939   0.30716   0.00000  Uiso   1.00
N126   N     0.57733   0.06866   0.33076   0.00000  Uiso   1.00
C127   C     0.44559   0.28394   0.19284   0.00000  Uiso   1.00
N128   N     0.42267   0.26467   0.16924   0.00000  Uiso   1.00
C129   C     0.75408   0.16667   0.24995   0.00000  Uiso   1.00
C130   C     0.91259   0.16666   0.25005   0.00000  Uiso   1.00
C131   C     0.81368   0.24919   0.02206   0.00000  Uiso   1.00
C132   C     0.85299   0.08414   0.47794   0.00000  Uiso   1.00
C133   C     0.68797   0.12438   0.24951   0.00000  Uiso   1.00
C134   C     0.97870   0.20896   0.25049   0.00000  Uiso   1.00
C135   C     0.97872   0.12437   0.24952   0.00000  Uiso   1.00
C136   C     0.68794   0.20897   0.25048   0.00000  Uiso   1.00
C137   C     0.95723   0.16666   0.25004   0.00000  Uiso   1.00
C138   C     0.70943   0.16668   0.24996   0.00000  Uiso   1.00
C139   C     0.80730   0.02483   0.22209   0.00000  Uiso   1.00
C140   C     0.85937   0.30850   0.27792   0.00000  Uiso   1.00
C141   C     0.85946   0.02478   0.27782   0.00000  Uiso   1.00
C142   C     0.80721   0.30855   0.22218   0.00000  Uiso   1.00
C143   C     0.83331   0.16666   0.16437   0.00000  Uiso   1.00
C144   C     0.83336   0.16667   0.33563   0.00000  Uiso   1.00
C145   C     0.84247   0.12562   0.40738   0.00000  Uiso   1.00
C146   C     0.82420   0.20772   0.09262   0.00000  Uiso   1.00
C147   C     0.83336   0.16664   0.38404   0.00000  Uiso   1.00
C148   C     0.83330   0.16669   0.11596   0.00000  Uiso   1.00
C149   C     0.82419   0.20754   0.40696   0.00000  Uiso   1.00
C150   C     0.84247   0.12579   0.09304   0.00000  Uiso   1.00
C151   C     0.82383   0.20768   0.45311   0.00000  Uiso   1.00
C152   C     0.84283   0.12566   0.04689   0.00000  Uiso   1.00
C153   C     0.83339   0.16648   0.47673   0.00000  Uiso   1.00
C154   C     0.83328   0.16685   0.02327   0.00000  Uiso   1.00
C155   C     0.84302   0.12499   0.45381   0.00000  Uiso   1.00
C156   C     0.82365   0.20834   0.04619   0.00000  Uiso   1.00
C157   C     0.81387   0.24847   0.47581   0.00000  Uiso   1.00
C158   C     0.85280   0.08486   0.02419   0.00000  Uiso   1.00
Cu159  Cu    0.83333   0.21355   0.25000   0.00000  Uiso   1.00
Cu160  Cu    0.83333   0.11978   0.25000   0.00000  Uiso   1.00
H161   H     0.84936   0.09425   0.38916   0.00000  Uiso   1.00
H162   H     0.81730   0.23908   0.11084   0.00000  Uiso   1.00
H163   H     0.81690   0.23924   0.38887   0.00000  Uiso   1.00
H164   H     0.84977   0.09409   0.11114   0.00000  Uiso   1.00
H165   H     0.80602   0.27983   0.45741   0.00000  Uiso   1.00
H166   H     0.86064   0.05350   0.04259   0.00000  Uiso   1.00
N167   N     0.83333   0.28402   0.25000   0.00000  Uiso   1.00
N168   N     0.83333   0.04931   0.25000   0.00000  Uiso   1.00
O169   O     0.77321   0.20625   0.25000   0.00000  Uiso   1.00
O170   O     0.89345   0.12709   0.25001   0.00000  Uiso   1.00
O171   O     0.89345   0.20625   0.25001   0.00000  Uiso   1.00
O172   O     0.77321   0.12709   0.25000   0.00000  Uiso   1.00
O173   O     0.83332   0.20627   0.18513   0.00000  Uiso   1.00
O174   O     0.83334   0.12707   0.31487   0.00000  Uiso   1.00
O175   O     0.83334   0.20627   0.31487   0.00000  Uiso   1.00
O176   O     0.83332   0.12707   0.18513   0.00000  Uiso   1.00
C177   C     0.80257   0.29215   0.04372   0.00000  Uiso   1.00
N178   N     0.79358   0.32646   0.06111   0.00000  Uiso   1.00
C179   C     0.86409   0.04118   0.45628   0.00000  Uiso   1.00
N180   N     0.87308   0.00688   0.43889   0.00000  Uiso   1.00
H181   H     0.70397   0.09130   0.24914   0.00000  Uiso   1.00
H182   H     0.96269   0.24204   0.25086   0.00000  Uiso   1.00
H183   H     0.96274   0.09129   0.24910   0.00000  Uiso   1.00
H184   H     0.70392   0.24205   0.25090   0.00000  Uiso   1.00
C185   C     0.77974   0.04954   0.19199   0.00000  Uiso   1.00
N186   N     0.75754   0.06895   0.16769   0.00000  Uiso   1.00
C187   C     0.88693   0.28380   0.30801   0.00000  Uiso   1.00
N188   N     0.90913   0.26439   0.33231   0.00000  Uiso   1.00
C189   C     0.88775   0.04939   0.30716   0.00000  Uiso   1.00
N190   N     0.91066   0.06866   0.33076   0.00000  Uiso   1.00
C191   C     0.77892   0.28394   0.19284   0.00000  Uiso   1.00
N192   N     0.75600   0.26467   0.16924   0.00000  Uiso   1.00
C193   C     0.08741   0.50001   0.24995   0.00000  Uiso   1.00
C194   C     0.24592   0.49999   0.25005   0.00000  Uiso   1.00
C195   C     0.14701   0.58252   0.02206   0.00000  Uiso   1.00
C196   C     0.18632   0.41748   0.47794   0.00000  Uiso   1.00
C197   C     0.02130   0.45771   0.24951   0.00000  Uiso   1.00
C198   C     0.31203   0.54229   0.25049   0.00000  Uiso   1.00
C199   C     0.31206   0.45770   0.24952   0.00000  Uiso   1.00
C200   C     0.02128   0.54230   0.25048   0.00000  Uiso   1.00
C201   C     0.29057   0.49999   0.25004   0.00000  Uiso   1.00
C202   C     0.04277   0.50001   0.24996   0.00000  Uiso   1.00
C203   C     0.14063   0.35817   0.22209   0.00000  Uiso   1.00
C204   C     0.19270   0.64183   0.27792   0.00000  Uiso   1.00
C205   C     0.19279   0.35812   0.27782   0.00000  Uiso   1.00
C206   C     0.14054   0.64188   0.22218   0.00000  Uiso   1.00
C207   C     0.16664   0.50000   0.16437   0.00000  Uiso   1.00
C208   C     0.16669   0.50000   0.33563   0.00000  Uiso   1.00
C209   C     0.17580   0.45895   0.40738   0.00000  Uiso   1.00
C210   C     0.15753   0.54105   0.09262   0.00000  Uiso   1.00
C211   C     0.16670   0.49997   0.38404   0.00000  Uiso   1.00
C212   C     0.16664   0.50003   0.11596   0.00000  Uiso   1.00
C213   C     0.15753   0.54087   0.40696   0.00000  Uiso   1.00
C214   C     0.17581   0.45913   0.09304   0.00000  Uiso   1.00
C215   C     0.15717   0.54101   0.45311   0.00000  Uiso   1.00
C216   C     0.17617   0.45899   0.04689   0.00000  Uiso   1.00
C217   C     0.16672   0.49982   0.47673   0.00000  Uiso   1.00
C218   C     0.16661   0.50018   0.02327   0.00000  Uiso   1.00
C219   C     0.17635   0.45832   0.45381   0.00000  Uiso   1.00
C220   C     0.15698   0.54168   0.04619   0.00000  Uiso   1.00
C221   C     0.14720   0.58180   0.47581   0.00000  Uiso   1.00
C222   C     0.18613   0.41820   0.02419   0.00000  Uiso   1.00
Cu223  Cu    0.16667   0.54689   0.25000   0.00000  Uiso   1.00
Cu224  Cu    0.16667   0.45311   0.25000   0.00000  Uiso   1.00
H225   H     0.18270   0.42758   0.38916   0.00000  Uiso   1.00
H226   H     0.15064   0.57242   0.11084   0.00000  Uiso   1.00
H227   H     0.15023   0.57258   0.38887   0.00000  Uiso   1.00
H228   H     0.18310   0.42742   0.11114   0.00000  Uiso   1.00
H229   H     0.13936   0.61317   0.45741   0.00000  Uiso   1.00
H230   H     0.19398   0.38683   0.04259   0.00000  Uiso   1.00
N231   N     0.16667   0.61736   0.25000   0.00000  Uiso   1.00
N232   N     0.16667   0.38264   0.25000   0.00000  Uiso   1.00
O233   O     0.10655   0.53958   0.25000   0.00000  Uiso   1.00
O234   O     0.22679   0.46042   0.25001   0.00000  Uiso   1.00
O235   O     0.22679   0.53958   0.25001   0.00000  Uiso   1.00
O236   O     0.10655   0.46042   0.25000   0.00000  Uiso   1.00
O237   O     0.16666   0.53960   0.18513   0.00000  Uiso   1.00
O238   O     0.16668   0.46040   0.31487   0.00000  Uiso   1.00
O239   O     0.16668   0.53960   0.31487   0.00000  Uiso   1.00
O240   O     0.16666   0.46040   0.18513   0.00000  Uiso   1.00
C241   C     0.13591   0.62548   0.04372   0.00000  Uiso   1.00
N242   N     0.12692   0.65979   0.06111   0.00000  Uiso   1.00
C243   C     0.19742   0.37452   0.45628   0.00000  Uiso   1.00
N244   N     0.20642   0.34021   0.43889   0.00000  Uiso   1.00
H245   H     0.03731   0.42463   0.24914   0.00000  Uiso   1.00
H246   H     0.29603   0.57537   0.25086   0.00000  Uiso   1.00
H247   H     0.29608   0.42462   0.24910   0.00000  Uiso   1.00
H248   H     0.03726   0.57538   0.25090   0.00000  Uiso   1.00
C249   C     0.11307   0.38287   0.19199   0.00000  Uiso   1.00
N250   N     0.09087   0.40228   0.16769   0.00000  Uiso   1.00
C251   C     0.22026   0.61713   0.30801   0.00000  Uiso   1.00
N252   N     0.24246   0.59772   0.33231   0.00000  Uiso   1.00
C253   C     0.22108   0.38272   0.30716   0.00000  Uiso   1.00
N254   N     0.24400   0.40200   0.33076   0.00000  Uiso   1.00
C255   C     0.11225   0.61728   0.19284   0.00000  Uiso   1.00
N256   N     0.08934   0.59800   0.16924   0.00000  Uiso   1.00
C257   C     0.42074   0.50001   0.24995   0.00000  Uiso   1.00
C258   C     0.57926   0.49999   0.25005   0.00000  Uiso   1.00
C259   C     0.48035   0.58252   0.02206   0.00000  Uiso   1.00
C260   C     0.51965   0.41748   0.47794   0.00000  Uiso   1.00
C261   C     0.35464   0.45771   0.24951   0.00000  Uiso   1.00
C262   C     0.64536   0.54229   0.25049   0.00000  Uiso   1.00
C263   C     0.64539   0.45770   0.24952   0.00000  Uiso   1.00
C264   C     0.35461   0.54230   0.25048   0.00000  Uiso   1.00
C265   C     0.62390   0.49999   0.25004   0.00000  Uiso   1.00
C266   C     0.37610   0.50001   0.24996   0.00000  Uiso   1.00
C267   C     0.47397   0.35817   0.22209   0.00000  Uiso   1.00
C268   C     0.52603   0.64183   0.27792   0.00000  Uiso   1.00
C269   C     0.52612   0.35812   0.27782   0.00000  Uiso   1.00
C270   C     0.47388   0.64188   0.22218   0.00000  Uiso   1.00
C271   C     0.49997   0.50000   0.16437   0.00000  Uiso   1.00
C272   C     0.50003   0.50000   0.33563   0.00000  Uiso   1.00
C273   C     0.50914   0.45895   0.40738   0.00000  Uiso   1.00
C274   C     0.49086   0.54105   0.09262   0.00000  Uiso   1.00
C275   C     0.50003   0.49997   0.38404   0.00000  Uiso   1.00
C276   C     0.49997   0.50003   0.11596   0.00000  Uiso   1.00
C277   C     0.49086   0.54087   0.40696   0.00000  Uiso   1.00
C278   C     0.50914   0.45913   0.09304   0.00000  Uiso   1.00
C279   C     0.49050   0.54101   0.45311   0.00000  Uiso   1.00
C280   C     0.50950   0.45899   0.04689   0.00000  Uiso   1.00
C281   C     0.50006   0.49982   0.47673   0.00000  Uiso   1.00
C282   C     0.49994   0.50018   0.02327   0.00000  Uiso   1.00
C283   C     0.50968   0.45832   0.45381   0.00000  Uiso   1.00
C284   C     0.49032   0.54168   0.04619   0.00000  Uiso   1.00
C285   C     0.48054   0.58180   0.47581   0.00000  Uiso   1.00
C286   C     0.51946   0.41820   0.02419   0.00000  Uiso   1.00
Cu287  Cu    0.50000   0.54689   0.25000   0.00000  Uiso   1.00
Cu288  Cu    0.50000   0.45311   0.25000   0.00000  Uiso   1.00
H289   H     0.51603   0.42758   0.38916   0.00000  Uiso   1.00
H290   H     0.48397   0.57242   0.11084   0.00000  Uiso   1.00
H291   H     0.48356   0.57258   0.38887   0.00000  Uiso   1.00
H292   H     0.51644   0.42742   0.11114   0.00000  Uiso   1.00
H293   H     0.47269   0.61317   0.45741   0.00000  Uiso   1.00
H294   H     0.52731   0.38683   0.04259   0.00000  Uiso   1.00
N295   N     0.50000   0.61736   0.25000   0.00000  Uiso   1.00
N296   N     0.50000   0.38264   0.25000   0.00000  Uiso   1.00
O297   O     0.43988   0.53958   0.25000   0.00000  Uiso   1.00
O298   O     0.56012   0.46042   0.25001   0.00000  Uiso   1.00
O299   O     0.56012   0.53958   0.25001   0.00000  Uiso   1.00
O300   O     0.43988   0.46042   0.25000   0.00000  Uiso   1.00
O301   O     0.49999   0.53960   0.18513   0.00000  Uiso   1.00
O302   O     0.50001   0.46040   0.31487   0.00000  Uiso   1.00
O303   O     0.50001   0.53960   0.31487   0.00000  Uiso   1.00
O304   O     0.49999   0.46040   0.18513   0.00000  Uiso   1.00
C305   C     0.46924   0.62548   0.04372   0.00000  Uiso   1.00
N306   N     0.46025   0.65979   0.06111   0.00000  Uiso   1.00
C307   C     0.53076   0.37452   0.45628   0.00000  Uiso   1.00
N308   N     0.53975   0.34021   0.43889   0.00000  Uiso   1.00
H309   H     0.37064   0.42463   0.24914   0.00000  Uiso   1.00
H310   H     0.62936   0.57537   0.25086   0.00000  Uiso   1.00
H311   H     0.62941   0.42462   0.24910   0.00000  Uiso   1.00
H312   H     0.37059   0.57538   0.25090   0.00000  Uiso   1.00
C313   C     0.44640   0.38287   0.19199   0.00000  Uiso   1.00
N314   N     0.42421   0.40228   0.16769   0.00000  Uiso   1.00
C315   C     0.55360   0.61713   0.30801   0.00000  Uiso   1.00
N316   N     0.57579   0.59772   0.33231   0.00000  Uiso   1.00
C317   C     0.55442   0.38272   0.30716   0.00000  Uiso   1.00
N318   N     0.57733   0.40200   0.33076   0.00000  Uiso   1.00
C319   C     0.44559   0.61728   0.19284   0.00000  Uiso   1.00
N320   N     0.42267   0.59800   0.16924   0.00000  Uiso   1.00
C321   C     0.75408   0.50001   0.24995   0.00000  Uiso   1.00
C322   C     0.91259   0.49999   0.25005   0.00000  Uiso   1.00
C323   C     0.81368   0.58252   0.02206   0.00000  Uiso   1.00
C324   C     0.85299   0.41748   0.47794   0.00000  Uiso   1.00
C325   C     0.68797   0.45771   0.24951   0.00000  Uiso   1.00
C326   C     0.97870   0.54229   0.25049   0.00000  Uiso   1.00
C327   C     0.97872   0.45770   0.24952   0.00000  Uiso   1.00
C328   C     0.68794   0.54230   0.25048   0.00000  Uiso   1.00
C329   C     0.95723   0.49999   0.25004   0.00000  Uiso   1.00
C330   C     0.70943   0.50001   0.24996   0.00000  Uiso   1.00
C331   C     0.80730   0.35817   0.22209   0.00000  Uiso   1.00
C332   C     0.85937   0.64183   0.27792   0.00000  Uiso   1.00
C333   C     0.85946   0.35812   0.27782   0.00000  Uiso   1.00
C334   C     0.80721   0.64188   0.22218   0.00000  Uiso   1.00
C335   C     0.83331   0.50000   0.16437   0.00000  Uiso   1.00
C336   C     0.83336   0.50000   0.33563   0.00000  Uiso   1.00
C337   C     0.84247   0.45895   0.40738   0.00000  Uiso   1.00
C338   C     0.82420   0.54105   0.09262   0.00000  Uiso   1.00
C339   C     0.83336   0.49997   0.38404   0.00000  Uiso   1.00
C340   C     0.83330   0.50003   0.11596   0.00000  Uiso   1.00
C341   C     0.82419   0.54087   0.40696   0.00000  Uiso   1.00
C342   C     0.84247   0.45913   0.09304   0.00000  Uiso   1.00
C343   C     0.82383   0.54101   0.45311   0.00000  Uiso   1.00
C344   C     0.84283   0.45899   0.04689   0.00000  Uiso   1.00
C345   C     0.83339   0.49982   0.47673   0.00000  Uiso   1.00
C346   C     0.83328   0.50018   0.02327   0.00000  Uiso   1.00
C347   C     0.84302   0.45832   0.45381   0.00000  Uiso   1.00
C348   C     0.82365   0.54168   0.04619   0.00000  Uiso   1.00
C349   C     0.81387   0.58180   0.47581   0.00000  Uiso   1.00
C350   C     0.85280   0.41820   0.02419   0.00000  Uiso   1.00
Cu351  Cu    0.83333   0.54689   0.25000   0.00000  Uiso   1.00
Cu352  Cu    0.83333   0.45311   0.25000   0.00000  Uiso   1.00
H353   H     0.84936   0.42758   0.38916   0.00000  Uiso   1.00
H354   H     0.81730   0.57242   0.11084   0.00000  Uiso   1.00
H355   H     0.81690   0.57258   0.38887   0.00000  Uiso   1.00
H356   H     0.84977   0.42742   0.11114   0.00000  Uiso   1.00
H357   H     0.80602   0.61317   0.45741   0.00000  Uiso   1.00
H358   H     0.86064   0.38683   0.04259   0.00000  Uiso   1.00
N359   N     0.83333   0.61736   0.25000   0.00000  Uiso   1.00
N360   N     0.83333   0.38264   0.25000   0.00000  Uiso   1.00
O361   O     0.77321   0.53958   0.25000   0.00000  Uiso   1.00
O362   O     0.89345   0.46042   0.25001   0.00000  Uiso   1.00
O363   O     0.89345   0.53958   0.25001   0.00000  Uiso   1.00
O364   O     0.77321   0.46042   0.25000   0.00000  Uiso   1.00
O365   O     0.83332   0.53960   0.18513   0.00000  Uiso   1.00
O366   O     0.83334   0.46040   0.31487   0.00000  Uiso   1.00
O367   O     0.83334   0.53960   0.31487   0.00000  Uiso   1.00
O368   O     0.83332   0.46040   0.18513   0.00000  Uiso   1.00
C369   C     0.80257   0.62548   0.04372   0.00000  Uiso   1.00
N370   N     0.79358   0.65979   0.06111   0.00000  Uiso   1.00
C371   C     0.86409   0.37452   0.45628   0.00000  Uiso   1.00
N372   N     0.87308   0.34021   0.43889   0.00000  Uiso   1.00
H373   H     0.70397   0.42463   0.24914   0.00000  Uiso   1.00
H374   H     0.96269   0.57537   0.25086   0.00000  Uiso   1.00
H375   H     0.96274   0.42462   0.24910   0.00000  Uiso   1.00
H376   H     0.70392   0.57538   0.25090   0.00000  Uiso   1.00
C377   C     0.77974   0.38287   0.19199   0.00000  Uiso   1.00
N378   N     0.75754   0.40228   0.16769   0.00000  Uiso   1.00
C379   C     0.88693   0.61713   0.30801   0.00000  Uiso   1.00
N380   N     0.90913   0.59772   0.33231   0.00000  Uiso   1.00
C381   C     0.88775   0.38272   0.30716   0.00000  Uiso   1.00
N382   N     0.91066   0.40200   0.33076   0.00000  Uiso   1.00
C383   C     0.77892   0.61728   0.19284   0.00000  Uiso   1.00
N384   N     0.75600   0.59800   0.16924   0.00000  Uiso   1.00
C385   C     0.08741   0.83334   0.24995   0.00000  Uiso   1.00
C386   C     0.24592   0.83332   0.25005   0.00000  Uiso   1.00
C387   C     0.14701   0.91585   0.02206   0.00000  Uiso   1.00
C388   C     0.18632   0.75081   0.47794   0.00000  Uiso   1.00
C389   C     0.02130   0.79104   0.24951   0.00000  Uiso   1.00
C390   C     0.31203   0.87562   0.25049   0.00000  Uiso   1.00
C391   C     0.31206   0.79103   0.24952   0.00000  Uiso   1.00
C392   C     0.02128   0.87563   0.25048   0.00000  Uiso   1.00
C393   C     0.29057   0.83332   0.25004   0.00000  Uiso   1.00
C394   C     0.04277   0.83334   0.24996   0.00000  Uiso   1.00
C395   C     0.14063   0.69150   0.22209   0.00000  Uiso   1.00
C396   C     0.19270   0.97517   0.27792   0.00000  Uiso   1.00
C397   C     0.19279   0.69145   0.27782   0.00000  Uiso   1.00
C398   C     0.14054   0.97522   0.22218   0.00000  Uiso   1.00
C399   C     0.16664   0.83333   0.16437   0.00000  Uiso   1.00
C400   C     0.16669   0.83334   0.33563   0.00000  Uiso   1.00
C401   C     0.17580   0.79228   0.40738   0.00000  Uiso   1.00
C402   C     0.15753   0.87438   0.09262   0.00000  Uiso   1.00
C403   C     0.16670   0.83331   0.38404   0.00000  Uiso   1.00
C404   C     0.16664   0.83336   0.11596   0.00000  Uiso   1.00
C405   C     0.15753   0.87421   0.40696   0.00000  Uiso   1.00
C406   C     0.17581   0.79246   0.09304   0.00000  Uiso   1.00
C407   C     0.15717   0.87434   0.45311   0.00000  Uiso   1.00
C408   C     0.17617   0.79232   0.04689   0.00000  Uiso   1.00
C409   C     0.16672   0.83315   0.47673   0.00000  Uiso   1.00
C410   C     0.16661   0.83352   0.02327   0.00000  Uiso   1.00
C411   C     0.17635   0.79166   0.45381   0.00000  Uiso   1.00
C412   C     0.15698   0.87501   0.04619   0.00000  Uiso   1.00
C413   C     0.14720   0.91514   0.47581   0.00000  Uiso   1.00
C414   C     0.18613   0.75153   0.02419   0.00000  Uiso   1.00
Cu415  Cu    0.16667   0.88022   0.25000   0.00000  Uiso   1.00
Cu416  Cu    0.16667   0.78645   0.25000   0.00000  Uiso   1.00
H417   H     0.18270   0.76092   0.38916   0.00000  Uiso   1.00
H418   H     0.15064   0.90575   0.11084   0.00000  Uiso   1.00
H419   H     0.15023   0.90591   0.38887   0.00000  Uiso   1.00
H420   H     0.18310   0.76076   0.11114   0.00000  Uiso   1.00
H421   H     0.13936   0.94650   0.45741   0.00000  Uiso   1.00
H422   H     0.19398   0.72017   0.04259   0.00000  Uiso   1.00
N423   N     0.16667   0.95069   0.25000   0.00000  Uiso   1.00
N424   N     0.16667   0.71598   0.25000   0.00000  Uiso   1.00
O425   O     0.10655   0.87291   0.25000   0.00000  Uiso   1.00
O426   O     0.22679   0.79375   0.25001   0.00000  Uiso   1.00
O427   O     0.22679   0.87291   0.25001   0.00000  Uiso   1.00
O428   O     0.10655   0.79375   0.25000   0.00000  Uiso   1.00
O429   O     0.16666   0.87293   0.18513   0.00000  Uiso   1.00
O430   O     0.16668   0.79373   0.31487   0.00000  Uiso   1.00
O431   O     0.16668   0.87293   0.31487   0.00000  Uiso   1.00
O432   O     0.16666   0.79373   0.18513   0.00000  Uiso   1.00
C433   C     0.13591   0.95882   0.04372   0.00000  Uiso   1.00
N434   N     0.12692   0.99312   0.06111   0.00000  Uiso   1.00
C435   C     0.19742   0.70785   0.45628   0.00000  Uiso   1.00
N436   N     0.20642   0.67354   0.43889   0.00000  Uiso   1.00
H437   H     0.03731   0.75796   0.24914   0.00000  Uiso   1.00
H438   H     0.29603   0.90870   0.25086   0.00000  Uiso   1.00
H439   H     0.29608   0.75795   0.24910   0.00000  Uiso   1.00
H440   H     0.03726   0.90871   0.25090   0.00000  Uiso   1.00
C441   C     0.11307   0.71620   0.19199   0.00000  Uiso   1.00
N442   N     0.09087   0.73561   0.16769   0.00000  Uiso   1.00
C443   C     0.22026   0.95046   0.30801   0.00000  Uiso   1.00
N444   N     0.24246   0.93105   0.33231   0.00000  Uiso   1.00
C445   C     0.22108   0.71606   0.30716   0.00000  Uiso   1.00
N446   N     0.24400   0.73533   0.33076   0.00000  Uiso   1.00
C447   C     0.11225   0.95061   0.19284   0.00000  Uiso   1.00
N448   N     0.08934   0.93134   0.16924   0.00000  Uiso   1.00
C449   C     0.42074   0.83334   0.24995   0.00000  Uiso   1.00
C450   C     0.57926   0.83332   0.25005   0.00000  Uiso   1.00
C451   C     0.48035   0.91585   0.02206   0.00000  Uiso   1.00
C452   C     0.51965   0.75081   0.47794   0.00000  Uiso   1.00
C453   C     0.35464   0.79104   0.24951   0.00000  Uiso   1.00
C454   C     0.64536   0.87562   0.25049   0.00000  Uiso   1.00
C455   C     0.64539   0.79103   0.24952   0.00000  Uiso   1.00
C456   C     0.35461   0.87563   0.25048   0.00000  Uiso   1.00
C457   C     0.62390   0.83332   0.25004   0.00000  Uiso   1.00
C458   C     0.37610   0.83334   0.24996   0.00000  Uiso   1.00
C459   C     0.47397   0.69150   0.22209   0.00000  Uiso   1.00
C460   C     0.52603   0.97517   0.27792   0.00000  Uiso   1.00
C461   C     0.52612   0.69145   0.27782   0.00000  Uiso   1.00
C462   C     0.47388   0.97522   0.22218   0.00000  Uiso   1.00
C463   C     0.49997   0.83333   0.16437   0.00000  Uiso   1.00
C464   C     0.50003   0.83334   0.33563   0.00000  Uiso   1.00
C465   C     0.50914   0.79228   0.40738   0.00000  Uiso   1.00
C466   C     0.49086   0.87438   0.09262   0.00000  Uiso   1.00
C467   C     0.50003   0.83331   0.38404   0.00000  Uiso   1.00
C468   C     0.49997   0.83336   0.11596   0.00000  Uiso   1.00
C469   C     0.49086   0.87421   0.40696   0.00000  Uiso   1.00
C470   C     0.50914   0.79246   0.09304   0.00000  Uiso   1.00
C471   C     0.49050   0.87434   0.45311   0.00000  Uiso   1.00
C472   C     0.50950   0.79232   0.04689   0.00000  Uiso   1.00
C473   C     0.50006   0.83315   0.47673   0.00000  Uiso   1.00
C474   C     0.49994   0.83352   0.02327   0.00000  Uiso   1.00
C475   C     0.50968   0.79166   0.45381   0.00000  Uiso   1.00
C476   C     0.49032   0.87501   0.04619   0.00000  Uiso   1.00
C477   C     0.48054   0.91514   0.47581   0.00000  Uiso   1.00
C478   C     0.51946   0.75153   0.02419   0.00000  Uiso   1.00
Cu479  Cu    0.50000   0.88022   0.25000   0.00000  Uiso   1.00
Cu480  Cu    0.50000   0.78645   0.25000   0.00000  Uiso   1.00
H481   H     0.51603   0.76092   0.38916   0.00000  Uiso   1.00
H482   H     0.48397   0.90575   0.11084   0.00000  Uiso   1.00
H483   H     0.48356   0.90591   0.38887   0.00000  Uiso   1.00
H484   H     0.51644   0.76076   0.11114   0.00000  Uiso   1.00
H485   H     0.47269   0.94650   0.45741   0.00000  Uiso   1.00
H486   H     0.52731   0.72017   0.04259   0.00000  Uiso   1.00
N487   N     0.50000   0.95069   0.25000   0.00000  Uiso   1.00
N488   N     0.50000   0.71598   0.25000   0.00000  Uiso   1.00
O489   O     0.43988   0.87291   0.25000   0.00000  Uiso   1.00
O490   O     0.56012   0.79375   0.25001   0.00000  Uiso   1.00
O491   O     0.56012   0.87291   0.25001   0.00000  Uiso   1.00
O492   O     0.43988   0.79375   0.25000   0.00000  Uiso   1.00
O493   O     0.49999   0.87293   0.18513   0.00000  Uiso   1.00
O494   O     0.50001   0.79373   0.31487   0.00000  Uiso   1.00
O495   O     0.50001   0.87293   0.31487   0.00000  Uiso   1.00
O496   O     0.49999   0.79373   0.18513   0.00000  Uiso   1.00
C497   C     0.46924   0.95882   0.04372   0.00000  Uiso   1.00
N498   N     0.46025   0.99312   0.06111   0.00000  Uiso   1.00
C499   C     0.53076   0.70785   0.45628   0.00000  Uiso   1.00
N500   N     0.53975   0.67354   0.43889   0.00000  Uiso   1.00
H501   H     0.37064   0.75796   0.24914   0.00000  Uiso   1.00
H502   H     0.62936   0.90870   0.25086   0.00000  Uiso   1.00
H503   H     0.62941   0.75795   0.24910   0.00000  Uiso   1.00
H504   H     0.37059   0.90871   0.25090   0.00000  Uiso   1.00
C505   C     0.44640   0.71620   0.19199   0.00000  Uiso   1.00
N506   N     0.42421   0.73561   0.16769   0.00000  Uiso   1.00
C507   C     0.55360   0.95046   0.30801   0.00000  Uiso   1.00
N508   N     0.57579   0.93105   0.33231   0.00000  Uiso   1.00
C509   C     0.55442   0.71606   0.30716   0.00000  Uiso   1.00
N510   N     0.57733   0.73533   0.33076   0.00000  Uiso   1.00
C511   C     0.44559   0.95061   0.19284   0.00000  Uiso   1.00
N512   N     0.42267   0.93134   0.16924   0.00000  Uiso   1.00
C513   C     0.75408   0.83334   0.24995   0.00000  Uiso   1.00
C514   C     0.91259   0.83332   0.25005   0.00000  Uiso   1.00
C515   C     0.81368   0.91585   0.02206   0.00000  Uiso   1.00
C516   C     0.85299   0.75081   0.47794   0.00000  Uiso   1.00
C517   C     0.68797   0.79104   0.24951   0.00000  Uiso   1.00
C518   C     0.97870   0.87562   0.25049   0.00000  Uiso   1.00
C519   C     0.97872   0.79103   0.24952   0.00000  Uiso   1.00
C520   C     0.68794   0.87563   0.25048   0.00000  Uiso   1.00
C521   C     0.95723   0.83332   0.25004   0.00000  Uiso   1.00
C522   C     0.70943   0.83334   0.24996   0.00000  Uiso   1.00
C523   C     0.80730   0.69150   0.22209   0.00000  Uiso   1.00
C524   C     0.85937   0.97517   0.27792   0.00000  Uiso   1.00
C525   C     0.85946   0.69145   0.27782   0.00000  Uiso   1.00
C526   C     0.80721   0.97522   0.22218   0.00000  Uiso   1.00
C527   C     0.83331   0.83333   0.16437   0.00000  Uiso   1.00
C528   C     0.83336   0.83334   0.33563   0.00000  Uiso   1.00
C529   C     0.84247   0.79228   0.40738   0.00000  Uiso   1.00
C530   C     0.82420   0.87438   0.09262   0.00000  Uiso   1.00
C531   C     0.83336   0.83331   0.38404   0.00000  Uiso   1.00
C532   C     0.83330   0.83336   0.11596   0.00000  Uiso   1.00
C533   C     0.82419   0.87421   0.40696   0.00000  Uiso   1.00
C534   C     0.84247   0.79246   0.09304   0.00000  Uiso   1.00
C535   C     0.82383   0.87434   0.45311   0.00000  Uiso   1.00
C536   C     0.84283   0.79232   0.04689   0.00000  Uiso   1.00
C537   C     0.83339   0.83315   0.47673   0.00000  Uiso   1.00
C538   C     0.83328   0.83352   0.02327   0.00000  Uiso   1.00
C539   C     0.84302   0.79166   0.45381   0.00000  Uiso   1.00
C540   C     0.82365   0.87501   0.04619   0.00000  Uiso   1.00
C541   C     0.81387   0.91514   0.47581   0.00000  Uiso   1.00
C542   C     0.85280   0.75153   0.02419   0.00000  Uiso   1.00
Cu543  Cu    0.83333   0.88022   0.25000   0.00000  Uiso   1.00
Cu544  Cu    0.83333   0.78645   0.25000   0.00000  Uiso   1.00
H545   H     0.84936   0.76092   0.38916   0.00000  Uiso   1.00
H546   H     0.81730   0.90575   0.11084   0.00000  Uiso   1.00
H547   H     0.81690   0.90591   0.38887   0.00000  Uiso   1.00
H548   H     0.84977   0.76076   0.11114   0.00000  Uiso   1.00
H549   H     0.80602   0.94650   0.45741   0.00000  Uiso   1.00
H550   H     0.86064   0.72017   0.04259   0.00000  Uiso   1.00
N551   N     0.83333   0.95069   0.25000   0.00000  Uiso   1.00
N552   N     0.83333   0.71598   0.25000   0.00000  Uiso   1.00
O553   O     0.77321   0.87291   0.25000   0.00000  Uiso   1.00
O554   O     0.89345   0.79375   0.25001   0.00000  Uiso   1.00
O555   O     0.89345   0.87291   0.25001   0.00000  Uiso   1.00
O556   O     0.77321   0.79375   0.25000   0.00000  Uiso   1.00
O557   O     0.83332   0.87293   0.18513   0.00000  Uiso   1.00
O558   O     0.83334   0.79373   0.31487   0.00000  Uiso   1.00
O559   O     0.83334   0.87293   0.31487   0.00000  Uiso   1.00
O560   O     0.83332   0.79373   0.18513   0.00000  Uiso   1.00
C561   C     0.80257   0.95882   0.04372   0.00000  Uiso   1.00
N562   N     0.79358   0.99312   0.06111   0.00000  Uiso   1.00
C563   C     0.86409   0.70785   0.45628   0.00000  Uiso   1.00
N564   N     0.87308   0.67354   0.43889   0.00000  Uiso   1.00
H565   H     0.70397   0.75796   0.24914   0.00000  Uiso   1.00
H566   H     0.96269   0.90870   0.25086   0.00000  Uiso   1.00
H567   H     0.96274   0.75795   0.24910   0.00000  Uiso   1.00
H568   H     0.70392   0.90871   0.25090   0.00000  Uiso   1.00
C569   C     0.77974   0.71620   0.19199   0.00000  Uiso   1.00
N570   N     0.75754   0.73561   0.16769   0.00000  Uiso   1.00
C571   C     0.88693   0.95046   0.30801   0.00000  Uiso   1.00
N572   N     0.90913   0.93105   0.33231   0.00000  Uiso   1.00
C573   C     0.88775   0.71606   0.30716   0.00000  Uiso   1.00
N574   N     0.91066   0.73533   0.33076   0.00000  Uiso   1.00
C575   C     0.77892   0.95061   0.19284   0.00000  Uiso   1.00
N576   N     0.75600   0.93134   0.16924   0.00000  Uiso   1.00
C577   C     0.08741   0.16667   0.74995   0.00000  Uiso   1.00
C578   C     0.24592   0.16666   0.75005   0.00000  Uiso   1.00
C579   C     0.14701   0.24919   0.52206   0.00000  Uiso   1.00
C580   C     0.18632   0.08414   0.97794   0.00000  Uiso   1.00
C581   C     0.02130   0.12438   0.74951   0.00000  Uiso   1.00
C582   C     0.31203   0.20896   0.75049   0.00000  Uiso   1.00
C583   C     0.31206   0.12437   0.74952   0.00000  Uiso   1.00
C584   C     0.02128   0.20897   0.75048   0.00000  Uiso   1.00
C585   C     0.29057   0.16666   0.75004   0.00000  Uiso   1.00
C586   C     0.04277   0.16668   0.74996   0.00000  Uiso   1.00
C587   C     0.14063   0.02483   0.72209   0.00000  Uiso   1.00
C588   C     0.19270   0.30850   0.77792   0.00000  Uiso   1.00
C589   C     0.19279   0.02478   0.77782   0.00000  Uiso   1.00
C590   C     0.14054   0.30855   0.72218   0.00000  Uiso   1.00
C591   C     0.16664   0.16666   0.66437   0.00000  Uiso   1.00
C592   C     0.16669   0.16667   0.83563   0.00000  Uiso   1.00
C593   C     0.17580   0.12562   0.90738   0.00000  Uiso   1.00
C594   C     0.15753   0.20772   0.59262   0.00000  Uiso   1.00
C595   C     0.16670   0.16664   0.88404   0.00000  Uiso   1.00
C596   C     0.16664   0.16669   0.61596   0.00000  Uiso   1.00
C597   C     0.15753   0.20754   0.90696   0.00000  Uiso   1.00
C598   C     0.17581   0.12579   0.59304   0.00000  Uiso   1.00
C599   C     0.15717   0.20768   0.95311   0.00000  Uiso   1.00
C600   C     0.17617   0.12566   0.54689   0.00000  Uiso   1.00
C601   C     0.16672   0.16648   0.97673   0.00000  Uiso   1.00
C602   C     0.16661   0.16685   0.52327   0.00000  Uiso   1.00
C603   C     0.17635   0.12499   0.95381   0.00000  Uiso   1.00
C604   C     0.15698   0.20834   0.54619   0.00000  Uiso   1.00
C605   C     0.14720   0.24847   0.97581   0.00000  Uiso   1.00
C606   C     0.18613   0.08486   0.52419   0.00000  Uiso   1.00
Cu607  Cu    0.16667   0.21355   0.75000   0.00000  Uiso   1.00
Cu608  Cu    0.16667   0.11978   0.75000   0.00000  Uiso   1.00
H609   H     0.18270   0.09425   0.88916   0.00000  Uiso   1.00
H610   H     0.15064   0.23908   0.61084   0.00000  Uiso   1.00
H611   H     0.15023   0.23924   0.88887   0.00000  Uiso   1.00
H612   H     0.18310   0.09409   0.61114   0.00000  Uiso   1.00
H613   H     0.13936   0.27983   0.95741   0.00000  Uiso   1.00
H614   H     0.19398   0.05350   0.54259   0.00000  Uiso   1.00
N615   N     0.16667   0.28402   0.75000   0.00000  Uiso   1.00
N616   N     0.16667   0.04931   0.75000   0.00000  Uiso   1.00
O617   O     0.10655   0.20625   0.75000   0.00000  Uiso   1.00
O618   O     0.22679   0.12709   0.75001   0.00000  Uiso   1.00
O619   O     0.22679   0.20625   0.75001   0.00000  Uiso   1.00
O620   O     0.10655   0.12709   0.75000   0.00000  Uiso   1.00
O621   O     0.16666   0.20627   0.68513   0.00000  Uiso   1.00
O622   O     0.16668   0.12707   0.81487   0.00000  Uiso   1.00
O623   O     0.16668   0.20627   0.81487   0.00000  Uiso   1.00
O624   O     0.16666   0.12707   0.68513   0.00000  Uiso   1.00
C625   C     0.13591   0.29215   0.54372   0.00000  Uiso   1.00
N626   N     0.12692   0.32646   0.56111   0.00000  Uiso   1.00
C627   C     0.19742   0.04118   0.95628   0.00000  Uiso   1.00
N628   N     0.20642   0.00688   0.93889   0.00000  Uiso   1.00
H629   H     0.03731   0.09130   0.74914   0.00000  Uiso   1.00
H630   H     0.29603   0.24204   0.75086   0.00000  Uiso   1.00
H631   H     0.29608   0.09129   0.74910   0.00000  Uiso   1.00
H632   H     0.03726   0.24205   0.75090   0.00000  Uiso   1.00
C633   C     0.11307   0.04954   0.69199   0.00000  Uiso   1.00
N634   N     0.09087   0.06895   0.66769   0.00000  Uiso   1.00
C635   C     0.22026   0.28380   0.80801   0.00000  Uiso   1.00
N636   N     0.24246   0.26439   0.83231   0.00000  Uiso   1.00
C637   C     0.22108   0.04939   0.80716   0.00000  Uiso   1.00
N638   N     0.24400   0.06866   0.83076   0.00000  Uiso   1.00
C639   C     0.11225   0.28394   0.69284   0.00000  Uiso   1.00
N640   N     0.08934   0.26467   0.66924   0.00000  Uiso   1.00
C641   C     0.42074   0.16667   0.74995   0.00000  Uiso   1.00
C642   C     0.57926   0.16666   0.75005   0.00000  Uiso   1.00
C643   C     0.48035   0.24919   0.52206   0.00000  Uiso   1.00
C644   C     0.51965   0.08414   0.97794   0.00000  Uiso   1.00
C645   C     0.35464   0.12438   0.74951   0.00000  Uiso   1.00
C646   C     0.64536   0.20896   0.75049   0.00000  Uiso   1.00
C647   C     0.64539   0.12437   0.74952   0.00000  Uiso   1.00
C648   C     0.35461   0.20897   0.75048   0.00000  Uiso   1.00
C649   C     0.62390   0.16666   0.75004   0.00000  Uiso   1.00
C650   C     0.37610   0.16668   0.74996   0.00000  Uiso   1.00
C651   C     0.47397   0.02483   0.72209   0.00000  Uiso   1.00
C652   C     0.52603   0.30850   0.77792   0.00000  Uiso   1.00
C653   C     0.52612   0.02478   0.77782   0.00000  Uiso   1.00
C654   C     0.47388   0.30855   0.72218   0.00000  Uiso   1.00
C655   C     0.49997   0.16666   0.66437   0.00000  Uiso   1.00
C656   C     0.50003   0.16667   0.83563   0.00000  Uiso   1.00
C657   C     0.50914   0.12562   0.90738   0.00000  Uiso   1.00
C658   C     0.49086   0.20772   0.59262   0.00000  Uiso   1.00
C659   C     0.50003   0.16664   0.88404   0.00000  Uiso   1.00
C660   C     0.49997   0.16669   0.61596   0.00000  Uiso   1.00
C661   C     0.49086   0.20754   0.90696   0.00000  Uiso   1.00
C662   C     0.50914   0.12579   0.59304   0.00000  Uiso   1.00
C663   C     0.49050   0.20768   0.95311   0.00000  Uiso   1.00
C664   C     0.50950   0.12566   0.54689   0.00000  Uiso   1.00
C665   C     0.50006   0.16648   0.97673   0.00000  Uiso   1.00
C666   C     0.49994   0.16685   0.52327   0.00000  Uiso   1.00
C667   C     0.50968   0.12499   0.95381   0.00000  Uiso   1.00
C668   C     0.49032   0.20834   0.54619   0.00000  Uiso   1.00
C669   C     0.48054   0.24847   0.97581   0.00000  Uiso   1.00
C670   C     0.51946   0.08486   0.52419   0.00000  Uiso   1.00
Cu671  Cu    0.50000   0.21355   0.75000   0.00000  Uiso   1.00
Cu672  Cu    0.50000   0.11978   0.75000   0.00000  Uiso   1.00
H673   H     0.51603   0.09425   0.88916   0.00000  Uiso   1.00
H674   H     0.48397   0.23908   0.61084   0.00000  Uiso   1.00
H675   H     0.48356   0.23924   0.88887   0.00000  Uiso   1.00
H676   H     0.51644   0.09409   0.61114   0.00000  Uiso   1.00
H677   H     0.47269   0.27983   0.95741   0.00000  Uiso   1.00
H678   H     0.52731   0.05350   0.54259   0.00000  Uiso   1.00
N679   N     0.50000   0.28402   0.75000   0.00000  Uiso   1.00
N680   N     0.50000   0.04931   0.75000   0.00000  Uiso   1.00
O681   O     0.43988   0.20625   0.75000   0.00000  Uiso   1.00
O682   O     0.56012   0.12709   0.75001   0.00000  Uiso   1.00
O683   O     0.56012   0.20625   0.75001   0.00000  Uiso   1.00
O684   O     0.43988   0.12709   0.75000   0.00000  Uiso   1.00
O685   O     0.49999   0.20627   0.68513   0.00000  Uiso   1.00
O686   O     0.50001   0.12707   0.81487   0.00000  Uiso   1.00
O687   O     0.50001   0.20627   0.81487   0.00000  Uiso   1.00
O688   O     0.49999   0.12707   0.68513   0.00000  Uiso   1.00
C689   C     0.46924   0.29215   0.54372   0.00000  Uiso   1.00
N690   N     0.46025   0.32646   0.56111   0.00000  Uiso   1.00
C691   C     0.53076   0.04118   0.95628   0.00000  Uiso   1.00
N692   N     0.53975   0.00688   0.93889   0.00000  Uiso   1.00
H693   H     0.37064   0.09130   0.74914   0.00000  Uiso   1.00
H694   H     0.62936   0.24204   0.75086   0.00000  Uiso   1.00
H695   H     0.62941   0.09129   0.74910   0.00000  Uiso   1.00
H696   H     0.37059   0.24205   0.75090   0.00000  Uiso   1.00
C697   C     0.44640   0.04954   0.69199   0.00000  Uiso   1.00
N698   N     0.42421   0.06895   0.66769   0.00000  Uiso   1.00
C699   C     0.55360   0.28380   0.80801   0.00000  Uiso   1.00
N700   N     0.57579   0.26439   0.83231   0.00000  Uiso   1.00
C701   C     0.55442   0.04939   0.80716   0.00000  Uiso   1.00
N702   N     0.57733   0.06866   0.83076   0.00000  Uiso   1.00
C703   C     0.44559   0.28394   0.69284   0.00000  Uiso   1.00
N704   N     0.42267   0.26467   0.66924   0.00000  Uiso   1.00
C705   C     0.75408   0.16667   0.74995   0.00000  Uiso   1.00
C706   C     0.91259   0.16666   0.75005   0.00000  Uiso   1.00
C707   C     0.81368   0.24919   0.52206   0.00000  Uiso   1.00
C708   C     0.85299   0.08414   0.97794   0.00000  Uiso   1.00
C709   C     0.68797   0.12438   0.74951   0.00000  Uiso   1.00
C710   C     0.97870   0.20896   0.75049   0.00000  Uiso   1.00
C711   C     0.97872   0.12437   0.74952   0.00000  Uiso   1.00
C712   C     0.68794   0.20897   0.75048   0.00000  Uiso   1.00
C713   C     0.95723   0.16666   0.75004   0.00000  Uiso   1.00
C714   C     0.70943   0.16668   0.74996   0.00000  Uiso   1.00
C715   C     0.80730   0.02483   0.72209   0.00000  Uiso   1.00
C716   C     0.85937   0.30850   0.77792   0.00000  Uiso   1.00
C717   C     0.85946   0.02478   0.77782   0.00000  Uiso   1.00
C718   C     0.80721   0.30855   0.72218   0.00000  Uiso   1.00
C719   C     0.83331   0.16666   0.66437   0.00000  Uiso   1.00
C720   C     0.83336   0.16667   0.83563   0.00000  Uiso   1.00
C721   C     0.84247   0.12562   0.90738   0.00000  Uiso   1.00
C722   C     0.82420   0.20772   0.59262   0.00000  Uiso   1.00
C723   C     0.83336   0.16664   0.88404   0.00000  Uiso   1.00
C724   C     0.83330   0.16669   0.61596   0.00000  Uiso   1.00
C725   C     0.82419   0.20754   0.90696   0.00000  Uiso   1.00
C726   C     0.84247   0.12579   0.59304   0.00000  Uiso   1.00
C727   C     0.82383   0.20768   0.95311   0.00000  Uiso   1.00
C728   C     0.84283   0.12566   0.54689   0.00000  Uiso   1.00
C729   C     0.83339   0.16648   0.97673   0.00000  Uiso   1.00
C730   C     0.83328   0.16685   0.52327   0.00000  Uiso   1.00
C731   C     0.84302   0.12499   0.95381   0.00000  Uiso   1.00
C732   C     0.82365   0.20834   0.54619   0.00000  Uiso   1.00
C733   C     0.81387   0.24847   0.97581   0.00000  Uiso   1.00
C734   C     0.85280   0.08486   0.52419   0.00000  Uiso   1.00
Cu735  Cu    0.83333   0.21355   0.75000   0.00000  Uiso   1.00
Cu736  Cu    0.83333   0.11978   0.75000   0.00000  Uiso   1.00
H737   H     0.84936   0.09425   0.88916   0.00000  Uiso   1.00
H738   H     0.81730   0.23908   0.61084   0.00000  Uiso   1.00
H739   H     0.81690   0.23924   0.88887   0.00000  Uiso   1.00
H740   H     0.84977   0.09409   0.61114   0.00000  Uiso   1.00
H741   H     0.80602   0.27983   0.95741   0.00000  Uiso   1.00
H742   H     0.86064   0.05350   0.54259   0.00000  Uiso   1.00
N743   N     0.83333   0.28402   0.75000   0.00000  Uiso   1.00
N744   N     0.83333   0.04931   0.75000   0.00000  Uiso   1.00
O745   O     0.77321   0.20625   0.75000   0.00000  Uiso   1.00
O746   O     0.89345   0.12709   0.75001   0.00000  Uiso   1.00
O747   O     0.89345   0.20625   0.75001   0.00000  Uiso   1.00
O748   O     0.77321   0.12709   0.75000   0.00000  Uiso   1.00
O749   O     0.83332   0.20627   0.68513   0.00000  Uiso   1.00
O750   O     0.83334   0.12707   0.81487   0.00000  Uiso   1.00
O751   O     0.83334   0.20627   0.81487   0.00000  Uiso   1.00
O752   O     0.83332   0.12707   0.68513   0.00000  Uiso   1.00
C753   C     0.80257   0.29215   0.54372   0.00000  Uiso   1.00
N754   N     0.79358   0.32646   0.56111   0.00000  Uiso   1.00
C755   C     0.86409   0.04118   0.95628   0.00000  Uiso   1.00
N756   N     0.87308   0.00688   0.93889   0.00000  Uiso   1.00
H757   H     0.70397   0.09130   0.74914   0.00000  Uiso   1.00
H758   H     0.96269   0.24204   0.75086   0.00000  Uiso   1.00
H759   H     0.96274   0.09129   0.74910   0.00000  Uiso   1.00
H760   H     0.70392   0.24205   0.75090   0.00000  Uiso   1.00
C761   C     0.77974   0.04954   0.69199   0.00000  Uiso   1.00
N762   N     0.75754   0.06895   0.66769   0.00000  Uiso   1.00
C763   C     0.88693   0.28380   0.80801   0.00000  Uiso   1.00
N764   N     0.90913   0.26439   0.83231   0.00000  Uiso   1.00
C765   C     0.88775   0.04939   0.80716   0.00000  Uiso   1.00
N766   N     0.91066   0.06866   0.83076   0.00000  Uiso   1.00
C767   C     0.77892   0.28394   0.69284   0.00000  Uiso   1.00
N768   N     0.75600   0.26467   0.66924   0.00000  Uiso   1.00
C769   C     0.08741   0.50001   0.74995   0.00000  Uiso   1.00
C770   C     0.24592   0.49999   0.75005   0.00000  Uiso   1.00
C771   C     0.14701   0.58252   0.52206   0.00000  Uiso   1.00
C772   C     0.18632   0.41748   0.97794   0.00000  Uiso   1.00
C773   C     0.02130   0.45771   0.74951   0.00000  Uiso   1.00
C774   C     0.31203   0.54229   0.75049   0.00000  Uiso   1.00
C775   C     0.31206   0.45770   0.74952   0.00000  Uiso   1.00
C776   C     0.02128   0.54230   0.75048   0.00000  Uiso   1.00
C777   C     0.29057   0.49999   0.75004   0.00000  Uiso   1.00
C778   C     0.04277   0.50001   0.74996   0.00000  Uiso   1.00
C779   C     0.14063   0.35817   0.72209   0.00000  Uiso   1.00
C780   C     0.19270   0.64183   0.77792   0.00000  Uiso   1.00
C781   C     0.19279   0.35812   0.77782   0.00000  Uiso   1.00
C782   C     0.14054   0.64188   0.72218   0.00000  Uiso   1.00
C783   C     0.16664   0.50000   0.66437   0.00000  Uiso   1.00
C784   C     0.16669   0.50000   0.83563   0.00000  Uiso   1.00
C785   C     0.17580   0.45895   0.90738   0.00000  Uiso   1.00
C786   C     0.15753   0.54105   0.59262   0.00000  Uiso   1.00
C787   C     0.16670   0.49997   0.88404   0.00000  Uiso   1.00
C788   C     0.16664   0.50003   0.61596   0.00000  Uiso   1.00
C789   C     0.15753   0.54087   0.90696   0.00000  Uiso   1.00
C790   C     0.17581   0.45913   0.59304   0.00000  Uiso   1.00
C791   C     0.15717   0.54101   0.95311   0.00000  Uiso   1.00
C792   C     0.17617   0.45899   0.54689   0.00000  Uiso   1.00
C793   C     0.16672   0.49982   0.97673   0.00000  Uiso   1.00
C794   C     0.16661   0.50018   0.52327   0.00000  Uiso   1.00
C795   C     0.17635   0.45832   0.95381   0.00000  Uiso   1.00
C796   C     0.15698   0.54168   0.54619   0.00000  Uiso   1.00
C797   C     0.14720   0.58180   0.97581   0.00000  Uiso   1.00
C798   C     0.18613   0.41820   0.52419   0.00000  Uiso   1.00
Cu799  Cu    0.16667   0.54689   0.75000   0.00000  Uiso   1.00
Cu800  Cu    0.16667   0.45311   0.75000   0.00000  Uiso   1.00
H801   H     0.18270   0.42758   0.88916   0.00000  Uiso   1.00
H802   H     0.15064   0.57242   0.61084   0.00000  Uiso   1.00
H803   H     0.15023   0.57258   0.88887   0.00000  Uiso   1.00
H804   H     0.18310   0.42742   0.61114   0.00000  Uiso   1.00
H805   H     0.13936   0.61317   0.95741   0.00000  Uiso   1.00
H806   H     0.19398   0.38683   0.54259   0.00000  Uiso   1.00
N807   N     0.16667   0.61736   0.75000   0.00000  Uiso   1.00
N808   N     0.16667   0.38264   0.75000   0.00000  Uiso   1.00
O809   O     0.10655   0.53958   0.75000   0.00000  Uiso   1.00
O810   O     0.22679   0.46042   0.75001   0.00000  Uiso   1.00
O811   O     0.22679   0.53958   0.75001   0.00000  Uiso   1.00
O812   O     0.10655   0.46042   0.75000   0.00000  Uiso   1.00
O813   O     0.16666   0.53960   0.68513   0.00000  Uiso   1.00
O814   O     0.16668   0.46040   0.81487   0.00000  Uiso   1.00
O815   O     0.16668   0.53960   0.81487   0.00000  Uiso   1.00
O816   O     0.16666   0.46040   0.68513   0.00000  Uiso   1.00
C817   C     0.13591   0.62548   0.54372   0.00000  Uiso   1.00
N818   N     0.12692   0.65979   0.56111   0.00000  Uiso   1.00
C819   C     0.19742   0.37452   0.95628   0.00000  Uiso   1.00
N820   N     0.20642   0.34021   0.93889   0.00000  Uiso   1.00
H821   H     0.03731   0.42463   0.74914   0.00000  Uiso   1.00
H822   H     0.29603   0.57537   0.75086   0.00000  Uiso   1.00
H823   H     0.29608   0.42462   0.74910   0.00000  Uiso   1.00
H824   H     0.03726   0.57538   0.75090   0.00000  Uiso   1.00
C825   C     0.11307   0.38287   0.69199   0.00000  Uiso   1.00
N826   N     0.09087   0.40228   0.66769   0.00000  Uiso   1.00
C827   C     0.22026   0.61713   0.80801   0.00000  Uiso   1.00
N828   N     0.24246   0.59772   0.83231   0.00000  Uiso   1.00
C829   C     0.22108   0.38272   0.80716   0.00000  Uiso   1.00
N830   N     0.24400   0.40200   0.83076   0.00000  Uiso   1.00
C831   C     0.11225   0.61728   0.69284   0.00000  Uiso   1.00
N832   N     0.08934   0.59800   0.66924   0.00000  Uiso   1.00
C833   C     0.42074   0.50001   0.74995   0.00000  Uiso   1.00
C834   C     0.57926   0.49999   0.75005   0.00000  Uiso   1.00
C835   C     0.48035   0.58252   0.52206   0.00000  Uiso   1.00
C836   C     0.51965   0.41748   0.97794   0.00000  Uiso   1.00
C837   C     0.35464   0.45771   0.74951   0.00000  Uiso   1.00
C838   C     0.64536   0.54229   0.75049   0.00000  Uiso   1.00
C839   C     0.64539   0.45770   0.74952   0.00000  Uiso   1.00
C840   C     0.35461   0.54230   0.75048   0.00000  Uiso   1.00
C841   C     0.62390   0.49999   0.75004   0.00000  Uiso   1.00
C842   C     0.37610   0.50001   0.74996   0.00000  Uiso   1.00
C843   C     0.47397   0.35817   0.72209   0.00000  Uiso   1.00
C844   C     0.52603   0.64183   0.77792   0.00000  Uiso   1.00
C845   C     0.52612   0.35812   0.77782   0.00000  Uiso   1.00
C846   C     0.47388   0.64188   0.72218   0.00000  Uiso   1.00
C847   C     0.49997   0.50000   0.66437   0.00000  Uiso   1.00
C848   C     0.50003   0.50000   0.83563   0.00000  Uiso   1.00
C849   C     0.50914   0.45895   0.90738   0.00000  Uiso   1.00
C850   C     0.49086   0.54105   0.59262   0.00000  Uiso   1.00
C851   C     0.50003   0.49997   0.88404   0.00000  Uiso   1.00
C852   C     0.49997   0.50003   0.61596   0.00000  Uiso   1.00
C853   C     0.49086   0.54087   0.90696   0.00000  Uiso   1.00
C854   C     0.50914   0.45913   0.59304   0.00000  Uiso   1.00
C855   C     0.49050   0.54101   0.95311   0.00000  Uiso   1.00
C856   C     0.50950   0.45899   0.54689   0.00000  Uiso   1.00
C857   C     0.50006   0.49982   0.97673   0.00000  Uiso   1.00
C858   C     0.49994   0.50018   0.52327   0.00000  Uiso   1.00
C859   C     0.50968   0.45832   0.95381   0.00000  Uiso   1.00
C860   C     0.49032   0.54168   0.54619   0.00000  Uiso   1.00
C861   C     0.48054   0.58180   0.97581   0.00000  Uiso   1.00
C862   C     0.51946   0.41820   0.52419   0.00000  Uiso   1.00
Cu863  Cu    0.50000   0.54689   0.75000   0.00000  Uiso   1.00
Cu864  Cu    0.50000   0.45311   0.75000   0.00000  Uiso   1.00
H865   H     0.51603   0.42758   0.88916   0.00000  Uiso   1.00
H866   H     0.48397   0.57242   0.61084   0.00000  Uiso   1.00
H867   H     0.48356   0.57258   0.88887   0.00000  Uiso   1.00
H868   H     0.51644   0.42742   0.61114   0.00000  Uiso   1.00
H869   H     0.47269   0.61317   0.95741   0.00000  Uiso   1.00
H870   H     0.52731   0.38683   0.54259   0.00000  Uiso   1.00
N871   N     0.50000   0.61736   0.75000   0.00000  Uiso   1.00
N872   N     0.50000   0.38264   0.75000   0.00000  Uiso   1.00
O873   O     0.43988   0.53958   0.75000   0.00000  Uiso   1.00
O874   O     0.56012   0.46042   0.75001   0.00000  Uiso   1.00
O875   O     0.56012   0.53958   0.75001   0.00000  Uiso   1.00
O876   O     0.43988   0.46042   0.75000   0.00000  Uiso   1.00
O877   O     0.49999   0.53960   0.68513   0.00000  Uiso   1.00
O878   O     0.50001   0.46040   0.81487   0.00000  Uiso   1.00
O879   O     0.50001   0.53960   0.81487   0.00000  Uiso   1.00
O880   O     0.49999   0.46040   0.68513   0.00000  Uiso   1.00
C881   C     0.46924   0.62548   0.54372   0.00000  Uiso   1.00
N882   N     0.46025   0.65979   0.56111   0.00000  Uiso   1.00
C883   C     0.53076   0.37452   0.95628   0.00000  Uiso   1.00
N884   N     0.53975   0.34021   0.93889   0.00000  Uiso   1.00
H885   H     0.37064   0.42463   0.74914   0.00000  Uiso   1.00
H886   H     0.62936   0.57537   0.75086   0.00000  Uiso   1.00
H887   H     0.62941   0.42462   0.74910   0.00000  Uiso   1.00
H888   H     0.37059   0.57538   0.75090   0.00000  Uiso   1.00
C889   C     0.44640   0.38287   0.69199   0.00000  Uiso   1.00
N890   N     0.42421   0.40228   0.66769   0.00000  Uiso   1.00
C891   C     0.55360   0.61713   0.80801   0.00000  Uiso   1.00
N892   N     0.57579   0.59772   0.83231   0.00000  Uiso   1.00
C893   C     0.55442   0.38272   0.80716   0.00000  Uiso   1.00
N894   N     0.57733   0.40200   0.83076   0.00000  Uiso   1.00
C895   C     0.44559   0.61728   0.69284   0.00000  Uiso   1.00
N896   N     0.42267   0.59800   0.66924   0.00000  Uiso   1.00
C897   C     0.75408   0.50001   0.74995   0.00000  Uiso   1.00
C898   C     0.91259   0.49999   0.75005   0.00000  Uiso   1.00
C899   C     0.81368   0.58252   0.52206   0.00000  Uiso   1.00
C900   C     0.85299   0.41748   0.97794   0.00000  Uiso   1.00
C901   C     0.68797   0.45771   0.74951   0.00000  Uiso   1.00
C902   C     0.97870   0.54229   0.75049   0.00000  Uiso   1.00
C903   C     0.97872   0.45770   0.74952   0.00000  Uiso   1.00
C904   C     0.68794   0.54230   0.75048   0.00000  Uiso   1.00
C905   C     0.95723   0.49999   0.75004   0.00000  Uiso   1.00
C906   C     0.70943   0.50001   0.74996   0.00000  Uiso   1.00
C907   C     0.80730   0.35817   0.72209   0.00000  Uiso   1.00
C908   C     0.85937   0.64183   0.77792   0.00000  Uiso   1.00
C909   C     0.85946   0.35812   0.77782   0.00000  Uiso   1.00
C910   C     0.80721   0.64188   0.72218   0.00000  Uiso   1.00
C911   C     0.83331   0.50000   0.66437   0.00000  Uiso   1.00
C912   C     0.83336   0.50000   0.83563   0.00000  Uiso   1.00
C913   C     0.84247   0.45895   0.90738   0.00000  Uiso   1.00
C914   C     0.82420   0.54105   0.59262   0.00000  Uiso   1.00
C915   C     0.83336   0.49997   0.88404   0.00000  Uiso   1.00
C916   C     0.83330   0.50003   0.61596   0.00000  Uiso   1.00
C917   C     0.82419   0.54087   0.90696   0.00000  Uiso   1.00
C918   C     0.84247   0.45913   0.59304   0.00000  Uiso   1.00
C919   C     0.82383   0.54101   0.95311   0.00000  Uiso   1.00
C920   C     0.84283   0.45899   0.54689   0.00000  Uiso   1.00
C921   C     0.83339   0.49982   0.97673   0.00000  Uiso   1.00
C922   C     0.83328   0.50018   0.52327   0.00000  Uiso   1.00
C923   C     0.84302   0.45832   0.95381   0.00000  Uiso   1.00
C924   C     0.82365   0.54168   0.54619   0.00000  Uiso   1.00
C925   C     0.81387   0.58180   0.97581   0.00000  Uiso   1.00
C926   C     0.85280   0.41820   0.52419   0.00000  Uiso   1.00
Cu927  Cu    0.83333   0.54689   0.75000   0.00000  Uiso   1.00
Cu928  Cu    0.83333   0.45311   0.75000   0.00000  Uiso   1.00
H929   H     0.84936   0.42758   0.88916   0.00000  Uiso   1.00
H930   H     0.81730   0.57242   0.61084   0.00000  Uiso   1.00
H931   H     0.81690   0.57258   0.88887   0.00000  Uiso   1.00
H932   H     0.84977   0.42742   0.61114   0.00000  Uiso   1.00
H933   H     0.80602   0.61317   0.95741   0.00000  Uiso   1.00
H934   H     0.86064   0.38683   0.54259   0.00000  Uiso   1.00
N935   N     0.83333   0.61736   0.75000   0.00000  Uiso   1.00
N936   N     0.83333   0.38264   0.75000   0.00000  Uiso   1.00
O937   O     0.77321   0.53958   0.75000   0.00000  Uiso   1.00
O938   O     0.89345   0.46042   0.75001   0.00000  Uiso   1.00
O939   O     0.89345   0.53958   0.75001   0.00000  Uiso   1.00
O940   O     0.77321   0.46042   0.75000   0.00000  Uiso   1.00
O941   O     0.83332   0.53960   0.68513   0.00000  Uiso   1.00
O942   O     0.83334   0.46040   0.81487   0.00000  Uiso   1.00
O943   O     0.83334   0.53960   0.81487   0.00000  Uiso   1.00
O944   O     0.83332   0.46040   0.68513   0.00000  Uiso   1.00
C945   C     0.80257   0.62548   0.54372   0.00000  Uiso   1.00
N946   N     0.79358   0.65979   0.56111   0.00000  Uiso   1.00
C947   C     0.86409   0.37452   0.95628   0.00000  Uiso   1.00
N948   N     0.87308   0.34021   0.93889   0.00000  Uiso   1.00
H949   H     0.70397   0.42463   0.74914   0.00000  Uiso   1.00
H950   H     0.96269   0.57537   0.75086   0.00000  Uiso   1.00
H951   H     0.96274   0.42462   0.74910   0.00000  Uiso   1.00
H952   H     0.70392   0.57538   0.75090   0.00000  Uiso   1.00
C953   C     0.77974   0.38287   0.69199   0.00000  Uiso   1.00
N954   N     0.75754   0.40228   0.66769   0.00000  Uiso   1.00
C955   C     0.88693   0.61713   0.80801   0.00000  Uiso   1.00
N956   N     0.90913   0.59772   0.83231   0.00000  Uiso   1.00
C957   C     0.88775   0.38272   0.80716   0.00000  Uiso   1.00
N958   N     0.91066   0.40200   0.83076   0.00000  Uiso   1.00
C959   C     0.77892   0.61728   0.69284   0.00000  Uiso   1.00
N960   N     0.75600   0.59800   0.66924   0.00000  Uiso   1.00
C961   C     0.08741   0.83334   0.74995   0.00000  Uiso   1.00
C962   C     0.24592   0.83332   0.75005   0.00000  Uiso   1.00
C963   C     0.14701   0.91585   0.52206   0.00000  Uiso   1.00
C964   C     0.18632   0.75081   0.97794   0.00000  Uiso   1.00
C965   C     0.02130   0.79104   0.74951   0.00000  Uiso   1.00
C966   C     0.31203   0.87562   0.75049   0.00000  Uiso   1.00
C967   C     0.31206   0.79103   0.74952   0.00000  Uiso   1.00
C968   C     0.02128   0.87563   0.75048   0.00000  Uiso   1.00
C969   C     0.29057   0.83332   0.75004   0.00000  Uiso   1.00
C970   C     0.04277   0.83334   0.74996   0.00000  Uiso   1.00
C971   C     0.14063   0.69150   0.72209   0.00000  Uiso   1.00
C972   C     0.19270   0.97517   0.77792   0.00000  Uiso   1.00
C973   C     0.19279   0.69145   0.77782   0.00000  Uiso   1.00
C974   C     0.14054   0.97522   0.72218   0.00000  Uiso   1.00
C975   C     0.16664   0.83333   0.66437   0.00000  Uiso   1.00
C976   C     0.16669   0.83334   0.83563   0.00000  Uiso   1.00
C977   C     0.17580   0.79228   0.90738   0.00000  Uiso   1.00
C978   C     0.15753   0.87438   0.59262   0.00000  Uiso   1.00
C979   C     0.16670   0.83331   0.88404   0.00000  Uiso   1.00
C980   C     0.16664   0.83336   0.61596   0.00000  Uiso   1.00
C981   C     0.15753   0.87421   0.90696   0.00000  Uiso   1.00
C982   C     0.17581   0.79246   0.59304   0.00000  Uiso   1.00
C983   C     0.15717   0.87434   0.95311   0.00000  Uiso   1.00
C984   C     0.17617   0.79232   0.54689   0.00000  Uiso   1.00
C985   C     0.16672   0.83315   0.97673   0.00000  Uiso   1.00
C986   C     0.16661   0.83352   0.52327   0.00000  Uiso   1.00
C987   C     0.17635   0.79166   0.95381   0.00000  Uiso   1.00
C988   C     0.15698   0.87501   0.54619   0.00000  Uiso   1.00
C989   C     0.14720   0.91514   0.97581   0.00000  Uiso   1.00
C990   C     0.18613   0.75153   0.52419   0.00000  Uiso   1.00
Cu991  Cu    0.16667   0.88022   0.75000   0.00000  Uiso   1.00
Cu992  Cu    0.16667   0.78645   0.75000   0.00000  Uiso   1.00
H993   H     0.18270   0.76092   0.88916   0.00000  Uiso   1.00
H994   H     0.15064   0.90575   0.61084   0.00000  Uiso   1.00
H995   H     0.15023   0.90591   0.88887   0.00000  Uiso   1.00
H996   H     0.18310   0.76076   0.61114   0.00000  Uiso   1.00
H997   H     0.13936   0.94650   0.95741   0.00000  Uiso   1.00
H998   H     0.19398   0.72017   0.54259   0.00000  Uiso   1.00
N999   N     0.16667   0.95069   0.75000   0.00000  Uiso   1.00
N1000  N     0.16667   0.71598   0.75000   0.00000  Uiso   1.00
O1001  O     0.10655   0.87291   0.75000   0.00000  Uiso   1.00
O1002  O     0.22679   0.79375   0.75001   0.00000  Uiso   1.00
O1003  O     0.22679   0.87291   0.75001   0.00000  Uiso   1.00
O1004  O     0.10655   0.79375   0.75000   0.00000  Uiso   1.00
O1005  O     0.16666   0.87293   0.68513   0.00000  Uiso   1.00
O1006  O     0.16668   0.79373   0.81487   0.00000  Uiso   1.00
O1007  O     0.16668   0.87293   0.81487   0.00000  Uiso   1.00
O1008  O     0.16666   0.79373   0.68513   0.00000  Uiso   1.00
C1009  C     0.13591   0.95882   0.54372   0.00000  Uiso   1.00
N1010  N     0.12692   0.99312   0.56111   0.00000  Uiso   1.00
C1011  C     0.19742   0.70785   0.95628   0.00000  Uiso   1.00
N1012  N     0.20642   0.67354   0.93889   0.00000  Uiso   1.00
H1013  H     0.03731   0.75796   0.74914   0.00000  Uiso   1.00
H1014  H     0.29603   0.90870   0.75086   0.00000  Uiso   1.00
H1015  H     0.29608   0.75795   0.74910   0.00000  Uiso   1.00
H1016  H     0.03726   0.90871   0.75090   0.00000  Uiso   1.00
C1017  C     0.11307   0.71620   0.69199   0.00000  Uiso   1.00
N1018  N     0.09087   0.73561   0.66769   0.00000  Uiso   1.00
C1019  C     0.22026   0.95046   0.80801   0.00000  Uiso   1.00
N1020  N     0.24246   0.93105   0.83231   0.00000  Uiso   1.00
C1021  C     0.22108   0.71606   0.80716   0.00000  Uiso   1.00
N1022  N     0.24400   0.73533   0.83076   0.00000  Uiso   1.00
C1023  C     0.11225   0.95061   0.69284   0.00000  Uiso   1.00
N1024  N     0.08934   0.93134   0.66924   0.00000  Uiso   1.00
C1025  C     0.42074   0.83334   0.74995   0.00000  Uiso   1.00
C1026  C     0.57926   0.83332   0.75005   0.00000  Uiso   1.00
C1027  C     0.48035   0.91585   0.52206   0.00000  Uiso   1.00
C1028  C     0.51965   0.75081   0.97794   0.00000  Uiso   1.00
C1029  C     0.35464   0.79104   0.74951   0.00000  Uiso   1.00
C1030  C     0.64536   0.87562   0.75049   0.00000  Uiso   1.00
C1031  C     0.64539   0.79103   0.74952   0.00000  Uiso   1.00
C1032  C     0.35461   0.87563   0.75048   0.00000  Uiso   1.00
C1033  C     0.62390   0.83332   0.75004   0.00000  Uiso   1.00
C1034  C     0.37610   0.83334   0.74996   0.00000  Uiso   1.00
C1035  C     0.47397   0.69150   0.72209   0.00000  Uiso   1.00
C1036  C     0.52603   0.97517   0.77792   0.00000  Uiso   1.00
C1037  C     0.52612   0.69145   0.77782   0.00000  Uiso   1.00
C1038  C     0.47388   0.97522   0.72218   0.00000  Uiso   1.00
C1039  C     0.49997   0.83333   0.66437   0.00000  Uiso   1.00
C1040  C     0.50003   0.83334   0.83563   0.00000  Uiso   1.00
C1041  C     0.50914   0.79228   0.90738   0.00000  Uiso   1.00
C1042  C     0.49086   0.87438   0.59262   0.00000  Uiso   1.00
C1043  C     0.50003   0.83331   0.88404   0.00000  Uiso   1.00
C1044  C     0.49997   0.83336   0.61596   0.00000  Uiso   1.00
C1045  C     0.49086   0.87421   0.90696   0.00000  Uiso   1.00
C1046  C     0.50914   0.79246   0.59304   0.00000  Uiso   1.00
C1047  C     0.49050   0.87434   0.95311   0.00000  Uiso   1.00
C1048  C     0.50950   0.79232   0.54689   0.00000  Uiso   1.00
C1049  C     0.50006   0.83315   0.97673   0.00000  Uiso   1.00
C1050  C     0.49994   0.83352   0.52327   0.00000  Uiso   1.00
C1051  C     0.50968   0.79166   0.95381   0.00000  Uiso   1.00
C1052  C     0.49032   0.87501   0.54619   0.00000  Uiso   1.00
C1053  C     0.48054   0.91514   0.97581   0.00000  Uiso   1.00
C1054  C     0.51946   0.75153   0.52419   0.00000  Uiso   1.00
Cu1055 Cu    0.50000   0.88022   0.75000   0.00000  Uiso   1.00
Cu1056 Cu    0.50000   0.78645   0.75000   0.00000  Uiso   1.00
H1057  H     0.51603   0.76092   0.88916   0.00000  Uiso   1.00
H1058  H     0.48397   0.90575   0.61084   0.00000  Uiso   1.00
H1059  H     0.48356   0.90591   0.88887   0.00000  Uiso   1.00
H1060  H     0.51644   0.76076   0.61114   0.00000  Uiso   1.00
H1061  H     0.47269   0.94650   0.95741   0.00000  Uiso   1.00
H1062  H     0.52731   0.72017   0.54259   0.00000  Uiso   1.00
N1063  N     0.50000   0.95069   0.75000   0.00000  Uiso   1.00
N1064  N     0.50000   0.71598   0.75000   0.00000  Uiso   1.00
O1065  O     0.43988   0.87291   0.75000   0.00000  Uiso   1.00
O1066  O     0.56012   0.79375   0.75001   0.00000  Uiso   1.00
O1067  O     0.56012   0.87291   0.75001   0.00000  Uiso   1.00
O1068  O     0.43988   0.79375   0.75000   0.00000  Uiso   1.00
O1069  O     0.49999   0.87293   0.68513   0.00000  Uiso   1.00
O1070  O     0.50001   0.79373   0.81487   0.00000  Uiso   1.00
O1071  O     0.50001   0.87293   0.81487   0.00000  Uiso   1.00
O1072  O     0.49999   0.79373   0.68513   0.00000  Uiso   1.00
C1073  C     0.46924   0.95882   0.54372   0.00000  Uiso   1.00
N1074  N     0.46025   0.99312   0.56111   0.00000  Uiso   1.00
C1075  C     0.53076   0.70785   0.95628   0.00000  Uiso   1.00
N1076  N     0.53975   0.67354   0.93889   0.00000  Uiso   1.00
H1077  H     0.37064   0.75796   0.74914   0.00000  Uiso   1.00
H1078  H     0.62936   0.90870   0.75086   0.00000  Uiso   1.00
H1079  H     0.62941   0.75795   0.74910   0.00000  Uiso   1.00
H1080  H     0.37059   0.90871   0.75090   0.00000  Uiso   1.00
C1081  C     0.44640   0.71620   0.69199   0.00000  Uiso   1.00
N1082  N     0.42421   0.73561   0.66769   0.00000  Uiso   1.00
C1083  C     0.55360   0.95046   0.80801   0.00000  Uiso   1.00
N1084  N     0.57579   0.93105   0.83231   0.00000  Uiso   1.00
C1085  C     0.55442   0.71606   0.80716   0.00000  Uiso   1.00
N1086  N     0.57733   0.73533   0.83076   0.00000  Uiso   1.00
C1087  C     0.44559   0.95061   0.69284   0.00000  Uiso   1.00
N1088  N     0.42267   0.93134   0.66924   0.00000  Uiso   1.00
C1089  C     0.75408   0.83334   0.74995   0.00000  Uiso   1.00
C1090  C     0.91259   0.83332   0.75005   0.00000  Uiso   1.00
C1091  C     0.81368   0.91585   0.52206   0.00000  Uiso   1.00
C1092  C     0.85299   0.75081   0.97794   0.00000  Uiso   1.00
C1093  C     0.68797   0.79104   0.74951   0.00000  Uiso   1.00
C1094  C     0.97870   0.87562   0.75049   0.00000  Uiso   1.00
C1095  C     0.97872   0.79103   0.74952   0.00000  Uiso   1.00
C1096  C     0.68794   0.87563   0.75048   0.00000  Uiso   1.00
C1097  C     0.95723   0.83332   0.75004   0.00000  Uiso   1.00
C1098  C     0.70943   0.83334   0.74996   0.00000  Uiso   1.00
C1099  C     0.80730   0.69150   0.72209   0.00000  Uiso   1.00
C1100  C     0.85937   0.97517   0.77792   0.00000  Uiso   1.00
C1101  C     0.85946   0.69145   0.77782   0.00000  Uiso   1.00
C1102  C     0.80721   0.97522   0.72218   0.00000  Uiso   1.00
C1103  C     0.83331   0.83333   0.66437   0.00000  Uiso   1.00
C1104  C     0.83336   0.83334   0.83563   0.00000  Uiso   1.00
C1105  C     0.84247   0.79228   0.90738   0.00000  Uiso   1.00
C1106  C     0.82420   0.87438   0.59262   0.00000  Uiso   1.00
C1107  C     0.83336   0.83331   0.88404   0.00000  Uiso   1.00
C1108  C     0.83330   0.83336   0.61596   0.00000  Uiso   1.00
C1109  C     0.82419   0.87421   0.90696   0.00000  Uiso   1.00
C1110  C     0.84247   0.79246   0.59304   0.00000  Uiso   1.00
C1111  C     0.82383   0.87434   0.95311   0.00000  Uiso   1.00
C1112  C     0.84283   0.79232   0.54689   0.00000  Uiso   1.00
C1113  C     0.83339   0.83315   0.97673   0.00000  Uiso   1.00
C1114  C     0.83328   0.83352   0.52327   0.00000  Uiso   1.00
C1115  C     0.84302   0.79166   0.95381   0.00000  Uiso   1.00
C1116  C     0.82365   0.87501   0.54619   0.00000  Uiso   1.00
C1117  C     0.81387   0.91514   0.97581   0.00000  Uiso   1.00
C1118  C     0.85280   0.75153   0.52419   0.00000  Uiso   1.00
Cu1119 Cu    0.83333   0.88022   0.75000   0.00000  Uiso   1.00
Cu1120 Cu    0.83333   0.78645   0.75000   0.00000  Uiso   1.00
H1121  H     0.84936   0.76092   0.88916   0.00000  Uiso   1.00
H1122  H     0.81730   0.90575   0.61084   0.00000  Uiso   1.00
H1123  H     0.81690   0.90591   0.88887   0.00000  Uiso   1.00
H1124  H     0.84977   0.76076   0.61114   0.00000  Uiso   1.00
H1125  H     0.80602   0.94650   0.95741   0.00000  Uiso   1.00
H1126  H     0.86064   0.72017   0.54259   0.00000  Uiso   1.00
N1127  N     0.83333   0.95069   0.75000   0.00000  Uiso   1.00
N1128  N     0.83333   0.71598   0.75000   0.00000  Uiso   1.00
O1129  O     0.77321   0.87291   0.75000   0.00000  Uiso   1.00
O1130  O     0.89345   0.79375   0.75001   0.00000  Uiso   1.00
O1131  O     0.89345   0.87291   0.75001   0.00000  Uiso   1.00
O1132  O     0.77321   0.79375   0.75000   0.00000  Uiso   1.00
O1133  O     0.83332   0.87293   0.68513   0.00000  Uiso   1.00
O1134  O     0.83334   0.79373   0.81487   0.00000  Uiso   1.00
O1135  O     0.83334   0.87293   0.81487   0.00000  Uiso   1.00
O1136  O     0.83332   0.79373   0.68513   0.00000  Uiso   1.00
C1137  C     0.80257   0.95882   0.54372   0.00000  Uiso   1.00
N1138  N     0.79358   0.99312   0.56111   0.00000  Uiso   1.00
C1139  C     0.86409   0.70785   0.95628   0.00000  Uiso   1.00
N1140  N     0.87308   0.67354   0.93889   0.00000  Uiso   1.00
H1141  H     0.70397   0.75796   0.74914   0.00000  Uiso   1.00
H1142  H     0.96269   0.90870   0.75086   0.00000  Uiso   1.00
H1143  H     0.96274   0.75795   0.74910   0.00000  Uiso   1.00
H1144  H     0.70392   0.90871   0.75090   0.00000  Uiso   1.00
C1145  C     0.77974   0.71620   0.69199   0.00000  Uiso   1.00
N1146  N     0.75754   0.73561   0.66769   0.00000  Uiso   1.00
C1147  C     0.88693   0.95046   0.80801   0.00000  Uiso   1.00
N1148  N     0.90913   0.93105   0.83231   0.00000  Uiso   1.00
C1149  C     0.88775   0.71606   0.80716   0.00000  Uiso   1.00
N1150  N     0.91066   0.73533   0.83076   0.00000  Uiso   1.00
C1151  C     0.77892   0.95061   0.69284   0.00000  Uiso   1.00
N1152  N     0.75600   0.93134   0.66924   0.00000  Uiso   1.00
loop_
_geom_bond_atom_site_label_1
_geom_bond_atom_site_label_2
_geom_bond_distance
_geom_bond_site_symmetry_2
_ccdc_geom_bond_type
C1     O44     1.296   .     A
C1     O41     1.296   .     A
C1     C10     1.450   .     S
C2     C9      1.450   .     S
C2     O43     1.296   .     A
C2     O42     1.296   .     A
C3     C28     1.414   .     A
C3     C49     1.446   .     S
C3     C605    1.395   1_554 S
C4     C51     1.446   .     S
C4     C27     1.414   .     A
C4     C606    1.395   .     S
C5     C10     1.401   .     A
C5     H53     1.083   .     S
C5     C135    1.383   1_455 S
C6     H54     1.083   .     S
C6     C9      1.401   .     A
C6     C72     1.383   .     S
C7     H55     1.083   .     S
C7     C9      1.401   .     A
C7     C69     1.383   .     S
C8     H56     1.083   .     S
C8     C10     1.401   .     A
C8     C134    1.383   1_455 S
C11    N40     1.372   .     A
C11    C57     1.444   .     S
C11    C398    1.425   1_545 S
C12    N39     1.372   .     A
C12    C59     1.444   .     S
C12    C205    1.425   .     S
C13    C61     1.444   .     S
C13    N40     1.372   .     A
C13    C396    1.425   1_545 S
C14    C63     1.444   .     S
C14    N39     1.372   .     A
C14    C203    1.425   .     S
C15    O48     1.299   .     A
C15    O45     1.299   .     A
C15    C20     1.460   .     S
C16    C19     1.460   .     S
C16    O47     1.299   .     A
C16    O46     1.299   .     A
C17    H33     1.082   .     S
C17    C19     1.400   .     A
C17    C27     1.400   .     A
C18    H34     1.082   .     S
C18    C20     1.400   .     A
C18    C28     1.400   .     A
C19    C21     1.399   .     A
C20    C22     1.399   .     A
C21    H35     1.085   .     S
C21    C23     1.392   .     A
C22    H36     1.085   .     S
C22    C24     1.392   .     A
C23    C29     1.399   .     A
C23    C25     1.412   .     A
C24    C30     1.399   .     A
C24    C26     1.412   .     A
C25    C27     1.417   .     A
C25    C602    1.404   .     S
C26    C28     1.417   .     A
C26    C601    1.404   1_554 S
C29    H37     1.085   .     S
C29    C579    1.395   .     S
C30    H38     1.085   .     S
C30    C580    1.395   1_554 S
Cu31   N39     2.024   .     S
Cu31   O47     1.968   .     S
Cu31   O43     1.964   .     S
Cu31   O45     1.968   .     S
Cu31   O41     1.965   .     S
Cu31   Cu32    2.694   .     S
Cu32   O48     1.968   .     S
Cu32   N40     2.024   .     S
Cu32   O44     1.964   .     S
Cu32   O42     1.965   .     S
Cu32   O46     1.968   .     S
C49    N50     1.157   .     T
C51    N52     1.157   .     T
C57    N58     1.158   .     T
C59    N60     1.158   .     T
C61    N62     1.158   .     T
C63    N64     1.158   .     T
C65    O108    1.296   .     A
C65    O105    1.296   .     A
C65    C74     1.450   .     S
C66    C73     1.450   .     S
C66    O107    1.296   .     A
C66    O106    1.296   .     A
C67    C92     1.414   .     A
C67    C113    1.446   .     S
C67    C669    1.395   1_554 S
C68    C115    1.446   .     S
C68    C91     1.414   .     A
C68    C670    1.395   .     S
C69    C74     1.401   .     A
C69    H117    1.083   .     S
C70    H118    1.083   .     S
C70    C73     1.401   .     A
C70    C136    1.383   .     S
C71    H119    1.083   .     S
C71    C73     1.401   .     A
C71    C133    1.383   .     S
C72    H120    1.083   .     S
C72    C74     1.401   .     A
C75    N104    1.372   .     A
C75    C121    1.444   .     S
C75    C462    1.425   1_545 S
C76    N103    1.372   .     A
C76    C123    1.444   .     S
C76    C269    1.425   .     S
C77    C125    1.444   .     S
C77    N104    1.372   .     A
C77    C460    1.425   1_545 S
C78    C127    1.444   .     S
C78    N103    1.372   .     A
C78    C267    1.425   .     S
C79    O112    1.299   .     A
C79    O109    1.299   .     A
C79    C84     1.460   .     S
C80    C83     1.460   .     S
C80    O111    1.299   .     A
C80    O110    1.299   .     A
C81    H97     1.082   .     S
C81    C83     1.400   .     A
C81    C91     1.400   .     A
C82    H98     1.082   .     S
C82    C84     1.400   .     A
C82    C92     1.400   .     A
C83    C85     1.399   .     A
C84    C86     1.399   .     A
C85    H99     1.085   .     S
C85    C87     1.392   .     A
C86    H100    1.085   .     S
C86    C88     1.392   .     A
C87    C93     1.399   .     A
C87    C89     1.412   .     A
C88    C94     1.399   .     A
C88    C90     1.412   .     A
C89    C91     1.417   .     A
C89    C666    1.404   .     S
C90    C92     1.417   .     A
C90    C665    1.404   1_554 S
C93    H101    1.085   .     S
C93    C643    1.395   .     S
C94    H102    1.085   .     S
C94    C644    1.395   1_554 S
Cu95   N103    2.024   .     S
Cu95   O111    1.968   .     S
Cu95   O107    1.964   .     S
Cu95   O109    1.968   .     S
Cu95   O105    1.965   .     S
Cu95   Cu96    2.694   .     S
Cu96   O112    1.968   .     S
Cu96   N104    2.024   .     S
Cu96   O108    1.964   .     S
Cu96   O106    1.965   .     S
Cu96   O110    1.968   .     S
C113   N114    1.157   .     T
C115   N116    1.157   .     T
C121   N122    1.158   .     T
C123   N124    1.158   .     T
C125   N126    1.158   .     T
C127   N128    1.158   .     T
C129   O172    1.296   .     A
C129   O169    1.296   .     A
C129   C138    1.450   .     S
C130   C137    1.450   .     S
C130   O171    1.296   .     A
C130   O170    1.296   .     A
C131   C156    1.414   .     A
C131   C177    1.446   .     S
C131   C733    1.395   1_554 S
C132   C179    1.446   .     S
C132   C155    1.414   .     A
C132   C734    1.395   .     S
C133   C138    1.401   .     A
C133   H181    1.083   .     S
C134   H182    1.083   .     S
C134   C137    1.401   .     A
C134   C8      1.383   1_655 S
C135   H183    1.083   .     S
C135   C137    1.401   .     A
C135   C5      1.383   1_655 S
C136   H184    1.083   .     S
C136   C138    1.401   .     A
C139   N168    1.372   .     A
C139   C185    1.444   .     S
C139   C526    1.425   1_545 S
C140   N167    1.372   .     A
C140   C187    1.444   .     S
C140   C333    1.425   .     S
C141   C189    1.444   .     S
C141   N168    1.372   .     A
C141   C524    1.425   1_545 S
C142   C191    1.444   .     S
C142   N167    1.372   .     A
C142   C331    1.425   .     S
C143   O176    1.299   .     A
C143   O173    1.299   .     A
C143   C148    1.460   .     S
C144   C147    1.460   .     S
C144   O175    1.299   .     A
C144   O174    1.299   .     A
C145   H161    1.082   .     S
C145   C147    1.400   .     A
C145   C155    1.400   .     A
C146   H162    1.082   .     S
C146   C148    1.400   .     A
C146   C156    1.400   .     A
C147   C149    1.399   .     A
C148   C150    1.399   .     A
C149   H163    1.085   .     S
C149   C151    1.392   .     A
C150   H164    1.085   .     S
C150   C152    1.392   .     A
C151   C157    1.399   .     A
C151   C153    1.412   .     A
C152   C158    1.399   .     A
C152   C154    1.412   .     A
C153   C155    1.417   .     A
C153   C730    1.404   .     S
C154   C156    1.417   .     A
C154   C729    1.404   1_554 S
C157   H165    1.085   .     S
C157   C707    1.395   .     S
C158   H166    1.085   .     S
C158   C708    1.395   1_554 S
Cu159  N167    2.024   .     S
Cu159  O175    1.968   .     S
Cu159  O171    1.964   .     S
Cu159  O173    1.968   .     S
Cu159  O169    1.965   .     S
Cu159  Cu160   2.694   .     S
Cu160  O176    1.968   .     S
Cu160  N168    2.024   .     S
Cu160  O172    1.964   .     S
Cu160  O170    1.965   .     S
Cu160  O174    1.968   .     S
C177   N178    1.157   .     T
C179   N180    1.157   .     T
C185   N186    1.158   .     T
C187   N188    1.158   .     T
C189   N190    1.158   .     T
C191   N192    1.158   .     T
C193   O236    1.296   .     A
C193   O233    1.296   .     A
C193   C202    1.450   .     S
C194   C201    1.450   .     S
C194   O235    1.296   .     A
C194   O234    1.296   .     A
C195   C220    1.414   .     A
C195   C241    1.446   .     S
C195   C797    1.395   1_554 S
C196   C243    1.446   .     S
C196   C219    1.414   .     A
C196   C798    1.395   .     S
C197   C202    1.401   .     A
C197   H245    1.083   .     S
C197   C327    1.383   1_455 S
C198   H246    1.083   .     S
C198   C201    1.401   .     A
C198   C264    1.383   .     S
C199   H247    1.083   .     S
C199   C201    1.401   .     A
C199   C261    1.383   .     S
C200   H248    1.083   .     S
C200   C202    1.401   .     A
C200   C326    1.383   1_455 S
C203   N232    1.372   .     A
C203   C249    1.444   .     S
C204   N231    1.372   .     A
C204   C251    1.444   .     S
C204   C397    1.425   .     S
C205   C253    1.444   .     S
C205   N232    1.372   .     A
C206   C255    1.444   .     S
C206   N231    1.372   .     A
C206   C395    1.425   .     S
C207   O240    1.299   .     A
C207   O237    1.299   .     A
C207   C212    1.460   .     S
C208   C211    1.460   .     S
C208   O239    1.299   .     A
C208   O238    1.299   .     A
C209   H225    1.082   .     S
C209   C211    1.400   .     A
C209   C219    1.400   .     A
C210   H226    1.082   .     S
C210   C212    1.400   .     A
C210   C220    1.400   .     A
C211   C213    1.399   .     A
C212   C214    1.399   .     A
C213   H227    1.085   .     S
C213   C215    1.392   .     A
C214   H228    1.085   .     S
C214   C216    1.392   .     A
C215   C221    1.399   .     A
C215   C217    1.412   .     A
C216   C222    1.399   .     A
C216   C218    1.412   .     A
C217   C219    1.417   .     A
C217   C794    1.404   .     S
C218   C220    1.417   .     A
C218   C793    1.404   1_554 S
C221   H229    1.085   .     S
C221   C771    1.395   .     S
C222   H230    1.085   .     S
C222   C772    1.395   1_554 S
Cu223  N231    2.024   .     S
Cu223  O239    1.968   .     S
Cu223  O235    1.964   .     S
Cu223  O237    1.968   .     S
Cu223  O233    1.965   .     S
Cu223  Cu224   2.694   .     S
Cu224  O240    1.968   .     S
Cu224  N232    2.024   .     S
Cu224  O236    1.964   .     S
Cu224  O234    1.965   .     S
Cu224  O238    1.968   .     S
C241   N242    1.157   .     T
C243   N244    1.157   .     T
C249   N250    1.158   .     T
C251   N252    1.158   .     T
C253   N254    1.158   .     T
C255   N256    1.158   .     T
C257   O300    1.296   .     A
C257   O297    1.296   .     A
C257   C266    1.450   .     S
C258   C265    1.450   .     S
C258   O299    1.296   .     A
C258   O298    1.296   .     A
C259   C284    1.414   .     A
C259   C305    1.446   .     S
C259   C861    1.395   1_554 S
C260   C307    1.446   .     S
C260   C283    1.414   .     A
C260   C862    1.395   .     S
C261   C266    1.401   .     A
C261   H309    1.083   .     S
C262   H310    1.083   .     S
C262   C265    1.401   .     A
C262   C328    1.383   .     S
C263   H311    1.083   .     S
C263   C265    1.401   .     A
C263   C325    1.383   .     S
C264   H312    1.083   .     S
C264   C266    1.401   .     A
C267   N296    1.372   .     A
C267   C313    1.444   .     S
C268   N295    1.372   .     A
C268   C315    1.444   .     S
C268   C461    1.425   .     S
C269   C317    1.444   .     S
C269   N296    1.372   .     A
C270   C319    1.444   .     S
C270   N295    1.372   .     A
C270   C459    1.425   .     S
C271   O304    1.299   .     A
C271   O301    1.299   .     A
C271   C276    1.460   .     S
C272   C275    1.460   .     S
C272   O303    1.299   .     A
C272   O302    1.299   .     A
C273   H289    1.082   .     S
C273   C275    1.400   .     A
C273   C283    1.400   .     A
C274   H290    1.082   .     S
C274   C276    1.400   .     A
C274   C284    1.400   .     A
C275   C277    1.399   .     A
C276   C278    1.399   .     A
C277   H291    1.085   .     S
C277   C279    1.392   .     A
C278   H292    1.085   .     S
C278   C280    1.392   .     A
C279   C285    1.399   .     A
C279   C281    1.412   .     A
C280   C286    1.399   .     A
C280   C282    1.412   .     A
C281   C283    1.417   .     A
C281   C858    1.404   .     S
C282   C284    1.417   .     A
C282   C857    1.404   1_554 S
C285   H293    1.085   .     S
C285   C835    1.395   .     S
C286   H294    1.085   .     S
C286   C836    1.395   1_554 S
Cu287  N295    2.024   .     S
Cu287  O303    1.968   .     S
Cu287  O299    1.964   .     S
Cu287  O301    1.968   .     S
Cu287  O297    1.965   .     S
Cu287  Cu288   2.694   .     S
Cu288  O304    1.968   .     S
Cu288  N296    2.024   .     S
Cu288  O300    1.964   .     S
Cu288  O298    1.965   .     S
Cu288  O302    1.968   .     S
C305   N306    1.157   .     T
C307   N308    1.157   .     T
C313   N314    1.158   .     T
C315   N316    1.158   .     T
C317   N318    1.158   .     T
C319   N320    1.158   .     T
C321   O364    1.296   .     A
C321   O361    1.296   .     A
C321   C330    1.450   .     S
C322   C329    1.450   .     S
C322   O363    1.296   .     A
C322   O362    1.296   .     A
C323   C348    1.414   .     A
C323   C369    1.446   .     S
C323   C925    1.395   1_554 S
C324   C371    1.446   .     S
C324   C347    1.414   .     A
C324   C926    1.395   .     S
C325   C330    1.401   .     A
C325   H373    1.083   .     S
C326   H374    1.083   .     S
C326   C329    1.401   .     A
C326   C200    1.383   1_655 S
C327   H375    1.083   .     S
C327   C329    1.401   .     A
C327   C197    1.383   1_655 S
C328   H376    1.083   .     S
C328   C330    1.401   .     A
C331   N360    1.372   .     A
C331   C377    1.444   .     S
C332   N359    1.372   .     A
C332   C379    1.444   .     S
C332   C525    1.425   .     S
C333   C381    1.444   .     S
C333   N360    1.372   .     A
C334   C383    1.444   .     S
C334   N359    1.372   .     A
C334   C523    1.425   .     S
C335   O368    1.299   .     A
C335   O365    1.299   .     A
C335   C340    1.460   .     S
C336   C339    1.460   .     S
C336   O367    1.299   .     A
C336   O366    1.299   .     A
C337   H353    1.082   .     S
C337   C339    1.400   .     A
C337   C347    1.400   .     A
C338   H354    1.082   .     S
C338   C340    1.400   .     A
C338   C348    1.400   .     A
C339   C341    1.399   .     A
C340   C342    1.399   .     A
C341   H355    1.085   .     S
C341   C343    1.392   .     A
C342   H356    1.085   .     S
C342   C344    1.392   .     A
C343   C349    1.399   .     A
C343   C345    1.412   .     A
C344   C350    1.399   .     A
C344   C346    1.412   .     A
C345   C347    1.417   .     A
C345   C922    1.404   .     S
C346   C348    1.417   .     A
C346   C921    1.404   1_554 S
C349   H357    1.085   .     S
C349   C899    1.395   .     S
C350   H358    1.085   .     S
C350   C900    1.395   1_554 S
Cu351  N359    2.024   .     S
Cu351  O367    1.968   .     S
Cu351  O363    1.964   .     S
Cu351  O365    1.968   .     S
Cu351  O361    1.965   .     S
Cu351  Cu352   2.694   .     S
Cu352  O368    1.968   .     S
Cu352  N360    2.024   .     S
Cu352  O364    1.964   .     S
Cu352  O362    1.965   .     S
Cu352  O366    1.968   .     S
C369   N370    1.157   .     T
C371   N372    1.157   .     T
C377   N378    1.158   .     T
C379   N380    1.158   .     T
C381   N382    1.158   .     T
C383   N384    1.158   .     T
C385   O428    1.296   .     A
C385   O425    1.296   .     A
C385   C394    1.450   .     S
C386   C393    1.450   .     S
C386   O427    1.296   .     A
C386   O426    1.296   .     A
C387   C412    1.414   .     A
C387   C433    1.446   .     S
C387   C989    1.395   1_554 S
C388   C435    1.446   .     S
C388   C411    1.414   .     A
C388   C990    1.395   .     S
C389   C394    1.401   .     A
C389   H437    1.083   .     S
C389   C519    1.383   1_455 S
C390   H438    1.083   .     S
C390   C393    1.401   .     A
C390   C456    1.383   .     S
C391   H439    1.083   .     S
C391   C393    1.401   .     A
C391   C453    1.383   .     S
C392   H440    1.083   .     S
C392   C394    1.401   .     A
C392   C518    1.383   1_455 S
C395   N424    1.372   .     A
C395   C441    1.444   .     S
C396   N423    1.372   .     A
C396   C443    1.444   .     S
C396   C13     1.425   1_565 S
C397   C445    1.444   .     S
C397   N424    1.372   .     A
C398   C447    1.444   .     S
C398   N423    1.372   .     A
C398   C11     1.425   1_565 S
C399   O432    1.299   .     A
C399   O429    1.299   .     A
C399   C404    1.460   .     S
C400   C403    1.460   .     S
C400   O431    1.299   .     A
C400   O430    1.299   .     A
C401   H417    1.082   .     S
C401   C403    1.400   .     A
C401   C411    1.400   .     A
C402   H418    1.082   .     S
C402   C404    1.400   .     A
C402   C412    1.400   .     A
C403   C405    1.399   .     A
C404   C406    1.399   .     A
C405   H419    1.085   .     S
C405   C407    1.392   .     A
C406   H420    1.085   .     S
C406   C408    1.392   .     A
C407   C413    1.399   .     A
C407   C409    1.412   .     A
C408   C414    1.399   .     A
C408   C410    1.412   .     A
C409   C411    1.417   .     A
C409   C986    1.404   .     S
C410   C412    1.417   .     A
C410   C985    1.404   1_554 S
C413   H421    1.085   .     S
C413   C963    1.395   .     S
C414   H422    1.085   .     S
C414   C964    1.395   1_554 S
Cu415  N423    2.024   .     S
Cu415  O431    1.968   .     S
Cu415  O427    1.964   .     S
Cu415  O429    1.968   .     S
Cu415  O425    1.965   .     S
Cu415  Cu416   2.694   .     S
Cu416  O432    1.968   .     S
Cu416  N424    2.024   .     S
Cu416  O428    1.964   .     S
Cu416  O426    1.965   .     S
Cu416  O430    1.968   .     S
C433   N434    1.157   .     T
C435   N436    1.157   .     T
C441   N442    1.158   .     T
C443   N444    1.158   .     T
C445   N446    1.158   .     T
C447   N448    1.158   .     T
C449   O492    1.296   .     A
C449   O489    1.296   .     A
C449   C458    1.450   .     S
C450   C457    1.450   .     S
C450   O491    1.296   .     A
C450   O490    1.296   .     A
C451   C476    1.414   .     A
C451   C497    1.446   .     S
C451   C1053   1.395   1_554 S
C452   C499    1.446   .     S
C452   C475    1.414   .     A
C452   C1054   1.395   .     S
C453   C458    1.401   .     A
C453   H501    1.083   .     S
C454   H502    1.083   .     S
C454   C457    1.401   .     A
C454   C520    1.383   .     S
C455   H503    1.083   .     S
C455   C457    1.401   .     A
C455   C517    1.383   .     S
C456   H504    1.083   .     S
C456   C458    1.401   .     A
C459   N488    1.372   .     A
C459   C505    1.444   .     S
C460   N487    1.372   .     A
C460   C507    1.444   .     S
C460   C77     1.425   1_565 S
C461   C509    1.444   .     S
C461   N488    1.372   .     A
C462   C511    1.444   .     S
C462   N487    1.372   .     A
C462   C75     1.425   1_565 S
C463   O496    1.299   .     A
C463   O493    1.299   .     A
C463   C468    1.460   .     S
C464   C467    1.460   .     S
C464   O495    1.299   .     A
C464   O494    1.299   .     A
C465   H481    1.082   .     S
C465   C467    1.400   .     A
C465   C475    1.400   .     A
C466   H482    1.082   .     S
C466   C468    1.400   .     A
C466   C476    1.400   .     A
C467   C469    1.399   .     A
C468   C470    1.399   .     A
C469   H483    1.085   .     S
C469   C471    1.392   .     A
C470   H484    1.085   .     S
C470   C472    1.392   .     A
C471   C477    1.399   .     A
C471   C473    1.412   .     A
C472   C478    1.399   .     A
C472   C474    1.412   .     A
C473   C475    1.417   .     A
C473   C1050   1.404   .     S
C474   C476    1.417   .     A
C474   C1049   1.404   1_554 S
C477   H485    1.085   .     S
C477   C1027   1.395   .     S
C478   H486    1.085   .     S
C478   C1028   1.395   1_554 S
Cu479  N487    2.024   .     S
Cu479  O495    1.968   .     S
Cu479  O491    1.964   .     S
Cu479  O493    1.968   .     S
Cu479  O489    1.965   .     S
Cu479  Cu480   2.694   .     S
Cu480  O496    1.968   .     S
Cu480  N488    2.024   .     S
Cu480  O492    1.964   .     S
Cu480  O490    1.965   .     S
Cu480  O494    1.968   .     S
C497   N498    1.157   .     T
C499   N500    1.157   .     T
C505   N506    1.158   .     T
C507   N508    1.158   .     T
C509   N510    1.158   .     T
C511   N512    1.158   .     T
C513   O556    1.296   .     A
C513   O553    1.296   .     A
C513   C522    1.450   .     S
C514   C521    1.450   .     S
C514   O555    1.296   .     A
C514   O554    1.296   .     A
C515   C540    1.414   .     A
C515   C561    1.446   .     S
C515   C1117   1.395   1_554 S
C516   C563    1.446   .     S
C516   C539    1.414   .     A
C516   C1118   1.395   .     S
C517   C522    1.401   .     A
C517   H565    1.083   .     S
C518   H566    1.083   .     S
C518   C521    1.401   .     A
C518   C392    1.383   1_655 S
C519   H567    1.083   .     S
C519   C521    1.401   .     A
C519   C389    1.383   1_655 S
C520   H568    1.083   .     S
C520   C522    1.401   .     A
C523   N552    1.372   .     A
C523   C569    1.444   .     S
C524   N551    1.372   .     A
C524   C571    1.444   .     S
C524   C141    1.425   1_565 S
C525   C573    1.444   .     S
C525   N552    1.372   .     A
C526   C575    1.444   .     S
C526   N551    1.372   .     A
C526   C139    1.425   1_565 S
C527   O560    1.299   .     A
C527   O557    1.299   .     A
C527   C532    1.460   .     S
C528   C531    1.460   .     S
C528   O559    1.299   .     A
C528   O558    1.299   .     A
C529   H545    1.082   .     S
C529   C531    1.400   .     A
C529   C539    1.400   .     A
C530   H546    1.082   .     S
C530   C532    1.400   .     A
C530   C540    1.400   .     A
C531   C533    1.399   .     A
C532   C534    1.399   .     A
C533   H547    1.085   .     S
C533   C535    1.392   .     A
C534   H548    1.085   .     S
C534   C536    1.392   .     A
C535   C541    1.399   .     A
C535   C537    1.412   .     A
C536   C542    1.399   .     A
C536   C538    1.412   .     A
C537   C539    1.417   .     A
C537   C1114   1.404   .     S
C538   C540    1.417   .     A
C538   C1113   1.404   1_554 S
C541   H549    1.085   .     S
C541   C1091   1.395   .     S
C542   H550    1.085   .     S
C542   C1092   1.395   1_554 S
Cu543  N551    2.024   .     S
Cu543  O559    1.968   .     S
Cu543  O555    1.964   .     S
Cu543  O557    1.968   .     S
Cu543  O553    1.965   .     S
Cu543  Cu544   2.694   .     S
Cu544  O560    1.968   .     S
Cu544  N552    2.024   .     S
Cu544  O556    1.964   .     S
Cu544  O554    1.965   .     S
Cu544  O558    1.968   .     S
C561   N562    1.157   .     T
C563   N564    1.157   .     T
C569   N570    1.158   .     T
C571   N572    1.158   .     T
C573   N574    1.158   .     T
C575   N576    1.158   .     T
C577   O620    1.296   .     A
C577   O617    1.296   .     A
C577   C586    1.450   .     S
C578   C585    1.450   .     S
C578   O619    1.296   .     A
C578   O618    1.296   .     A
C579   C604    1.414   .     A
C579   C625    1.446   .     S
C580   C627    1.446   .     S
C580   C603    1.414   .     A
C580   C30     1.395   1_556 S
C581   C586    1.401   .     A
C581   H629    1.083   .     S
C581   C711    1.383   1_455 S
C582   H630    1.083   .     S
C582   C585    1.401   .     A
C582   C648    1.383   .     S
C583   H631    1.083   .     S
C583   C585    1.401   .     A
C583   C645    1.383   .     S
C584   H632    1.083   .     S
C584   C586    1.401   .     A
C584   C710    1.383   1_455 S
C587   N616    1.372   .     A
C587   C633    1.444   .     S
C587   C974    1.425   1_545 S
C588   N615    1.372   .     A
C588   C635    1.444   .     S
C588   C781    1.425   .     S
C589   C637    1.444   .     S
C589   N616    1.372   .     A
C589   C972    1.425   1_545 S
C590   C639    1.444   .     S
C590   N615    1.372   .     A
C590   C779    1.425   .     S
C591   O624    1.299   .     A
C591   O621    1.299   .     A
C591   C596    1.460   .     S
C592   C595    1.460   .     S
C592   O623    1.299   .     A
C592   O622    1.299   .     A
C593   H609    1.082   .     S
C593   C595    1.400   .     A
C593   C603    1.400   .     A
C594   H610    1.082   .     S
C594   C596    1.400   .     A
C594   C604    1.400   .     A
C595   C597    1.399   .     A
C596   C598    1.399   .     A
C597   H611    1.085   .     S
C597   C599    1.392   .     A
C598   H612    1.085   .     S
C598   C600    1.392   .     A
C599   C605    1.399   .     A
C599   C601    1.412   .     A
C600   C606    1.399   .     A
C600   C602    1.412   .     A
C601   C603    1.417   .     A
C601   C26     1.404   1_556 S
C602   C604    1.417   .     A
C605   H613    1.085   .     S
C605   C3      1.395   1_556 S
C606   H614    1.085   .     S
Cu607  N615    2.024   .     S
Cu607  O623    1.968   .     S
Cu607  O619    1.964   .     S
Cu607  O621    1.968   .     S
Cu607  O617    1.965   .     S
Cu607  Cu608   2.694   .     S
Cu608  O624    1.968   .     S
Cu608  N616    2.024   .     S
Cu608  O620    1.964   .     S
Cu608  O618    1.965   .     S
Cu608  O622    1.968   .     S
C625   N626    1.157   .     T
C627   N628    1.157   .     T
C633   N634    1.158   .     T
C635   N636    1.158   .     T
C637   N638    1.158   .     T
C639   N640    1.158   .     T
C641   O684    1.296   .     A
C641   O681    1.296   .     A
C641   C650    1.450   .     S
C642   C649    1.450   .     S
C642   O683    1.296   .     A
C642   O682    1.296   .     A
C643   C668    1.414   .     A
C643   C689    1.446   .     S
C644   C691    1.446   .     S
C644   C667    1.414   .     A
C644   C94     1.395   1_556 S
C645   C650    1.401   .     A
C645   H693    1.083   .     S
C646   H694    1.083   .     S
C646   C649    1.401   .     A
C646   C712    1.383   .     S
C647   H695    1.083   .     S
C647   C649    1.401   .     A
C647   C709    1.383   .     S
C648   H696    1.083   .     S
C648   C650    1.401   .     A
C651   N680    1.372   .     A
C651   C697    1.444   .     S
C651   C1038   1.425   1_545 S
C652   N679    1.372   .     A
C652   C699    1.444   .     S
C652   C845    1.425   .     S
C653   C701    1.444   .     S
C653   N680    1.372   .     A
C653   C1036   1.425   1_545 S
C654   C703    1.444   .     S
C654   N679    1.372   .     A
C654   C843    1.425   .     S
C655   O688    1.299   .     A
C655   O685    1.299   .     A
C655   C660    1.460   .     S
C656   C659    1.460   .     S
C656   O687    1.299   .     A
C656   O686    1.299   .     A
C657   H673    1.082   .     S
C657   C659    1.400   .     A
C657   C667    1.400   .     A
C658   H674    1.082   .     S
C658   C660    1.400   .     A
C658   C668    1.400   .     A
C659   C661    1.399   .     A
C660   C662    1.399   .     A
C661   H675    1.085   .     S
C661   C663    1.392   .     A
C662   H676    1.085   .     S
C662   C664    1.392   .     A
C663   C669    1.399   .     A
C663   C665    1.412   .     A
C664   C670    1.399   .     A
C664   C666    1.412   .     A
C665   C667    1.417   .     A
C665   C90     1.404   1_556 S
C666   C668    1.417   .     A
C669   H677    1.085   .     S
C669   C67     1.395   1_556 S
C670   H678    1.085   .     S
Cu671  N679    2.024   .     S
Cu671  O687    1.968   .     S
Cu671  O683    1.964   .     S
Cu671  O685    1.968   .     S
Cu671  O681    1.965   .     S
Cu671  Cu672   2.694   .     S
Cu672  O688    1.968   .     S
Cu672  N680    2.024   .     S
Cu672  O684    1.964   .     S
Cu672  O682    1.965   .     S
Cu672  O686    1.968   .     S
C689   N690    1.157   .     T
C691   N692    1.157   .     T
C697   N698    1.158   .     T
C699   N700    1.158   .     T
C701   N702    1.158   .     T
C703   N704    1.158   .     T
C705   O748    1.296   .     A
C705   O745    1.296   .     A
C705   C714    1.450   .     S
C706   C713    1.450   .     S
C706   O747    1.296   .     A
C706   O746    1.296   .     A
C707   C732    1.414   .     A
C707   C753    1.446   .     S
C708   C755    1.446   .     S
C708   C731    1.414   .     A
C708   C158    1.395   1_556 S
C709   C714    1.401   .     A
C709   H757    1.083   .     S
C710   H758    1.083   .     S
C710   C713    1.401   .     A
C710   C584    1.383   1_655 S
C711   H759    1.083   .     S
C711   C713    1.401   .     A
C711   C581    1.383   1_655 S
C712   H760    1.083   .     S
C712   C714    1.401   .     A
C715   N744    1.372   .     A
C715   C761    1.444   .     S
C715   C1102   1.425   1_545 S
C716   N743    1.372   .     A
C716   C763    1.444   .     S
C716   C909    1.425   .     S
C717   C765    1.444   .     S
C717   N744    1.372   .     A
C717   C1100   1.425   1_545 S
C718   C767    1.444   .     S
C718   N743    1.372   .     A
C718   C907    1.425   .     S
C719   O752    1.299   .     A
C719   O749    1.299   .     A
C719   C724    1.460   .     S
C720   C723    1.460   .     S
C720   O751    1.299   .     A
C720   O750    1.299   .     A
C721   H737    1.082   .     S
C721   C723    1.400   .     A
C721   C731    1.400   .     A
C722   H738    1.082   .     S
C722   C724    1.400   .     A
C722   C732    1.400   .     A
C723   C725    1.399   .     A
C724   C726    1.399   .     A
C725   H739    1.085   .     S
C725   C727    1.392   .     A
C726   H740    1.085   .     S
C726   C728    1.392   .     A
C727   C733    1.399   .     A
C727   C729    1.412   .     A
C728   C734    1.399   .     A
C728   C730    1.412   .     A
C729   C731    1.417   .     A
C729   C154    1.404   1_556 S
C730   C732    1.417   .     A
C733   H741    1.085   .     S
C733   C131    1.395   1_556 S
C734   H742    1.085   .     S
Cu735  N743    2.024   .     S
Cu735  O751    1.968   .     S
Cu735  O747    1.964   .     S
Cu735  O749    1.968   .     S
Cu735  O745    1.965   .     S
Cu735  Cu736   2.694   .     S
Cu736  O752    1.968   .     S
Cu736  N744    2.024   .     S
Cu736  O748    1.964   .     S
Cu736  O746    1.965   .     S
Cu736  O750    1.968   .     S
C753   N754    1.157   .     T
C755   N756    1.157   .     T
C761   N762    1.158   .     T
C763   N764    1.158   .     T
C765   N766    1.158   .     T
C767   N768    1.158   .     T
C769   O812    1.296   .     A
C769   O809    1.296   .     A
C769   C778    1.450   .     S
C770   C777    1.450   .     S
C770   O811    1.296   .     A
C770   O810    1.296   .     A
C771   C796    1.414   .     A
C771   C817    1.446   .     S
C772   C819    1.446   .     S
C772   C795    1.414   .     A
C772   C222    1.395   1_556 S
C773   C778    1.401   .     A
C773   H821    1.083   .     S
C773   C903    1.383   1_455 S
C774   H822    1.083   .     S
C774   C777    1.401   .     A
C774   C840    1.383   .     S
C775   H823    1.083   .     S
C775   C777    1.401   .     A
C775   C837    1.383   .     S
C776   H824    1.083   .     S
C776   C778    1.401   .     A
C776   C902    1.383   1_455 S
C779   N808    1.372   .     A
C779   C825    1.444   .     S
C780   N807    1.372   .     A
C780   C827    1.444   .     S
C780   C973    1.425   .     S
C781   C829    1.444   .     S
C781   N808    1.372   .     A
C782   C831    1.444   .     S
C782   N807    1.372   .     A
C782   C971    1.425   .     S
C783   O816    1.299   .     A
C783   O813    1.299   .     A
C783   C788    1.460   .     S
C784   C787    1.460   .     S
C784   O815    1.299   .     A
C784   O814    1.299   .     A
C785   H801    1.082   .     S
C785   C787    1.400   .     A
C785   C795    1.400   .     A
C786   H802    1.082   .     S
C786   C788    1.400   .     A
C786   C796    1.400   .     A
C787   C789    1.399   .     A
C788   C790    1.399   .     A
C789   H803    1.085   .     S
C789   C791    1.392   .     A
C790   H804    1.085   .     S
C790   C792    1.392   .     A
C791   C797    1.399   .     A
C791   C793    1.412   .     A
C792   C798    1.399   .     A
C792   C794    1.412   .     A
C793   C795    1.417   .     A
C793   C218    1.404   1_556 S
C794   C796    1.417   .     A
C797   H805    1.085   .     S
C797   C195    1.395   1_556 S
C798   H806    1.085   .     S
Cu799  N807    2.024   .     S
Cu799  O815    1.968   .     S
Cu799  O811    1.964   .     S
Cu799  O813    1.968   .     S
Cu799  O809    1.965   .     S
Cu799  Cu800   2.694   .     S
Cu800  O816    1.968   .     S
Cu800  N808    2.024   .     S
Cu800  O812    1.964   .     S
Cu800  O810    1.965   .     S
Cu800  O814    1.968   .     S
C817   N818    1.157   .     T
C819   N820    1.157   .     T
C825   N826    1.158   .     T
C827   N828    1.158   .     T
C829   N830    1.158   .     T
C831   N832    1.158   .     T
C833   O876    1.296   .     A
C833   O873    1.296   .     A
C833   C842    1.450   .     S
C834   C841    1.450   .     S
C834   O875    1.296   .     A
C834   O874    1.296   .     A
C835   C860    1.414   .     A
C835   C881    1.446   .     S
C836   C883    1.446   .     S
C836   C859    1.414   .     A
C836   C286    1.395   1_556 S
C837   C842    1.401   .     A
C837   H885    1.083   .     S
C838   H886    1.083   .     S
C838   C841    1.401   .     A
C838   C904    1.383   .     S
C839   H887    1.083   .     S
C839   C841    1.401   .     A
C839   C901    1.383   .     S
C840   H888    1.083   .     S
C840   C842    1.401   .     A
C843   N872    1.372   .     A
C843   C889    1.444   .     S
C844   N871    1.372   .     A
C844   C891    1.444   .     S
C844   C1037   1.425   .     S
C845   C893    1.444   .     S
C845   N872    1.372   .     A
C846   C895    1.444   .     S
C846   N871    1.372   .     A
C846   C1035   1.425   .     S
C847   O880    1.299   .     A
C847   O877    1.299   .     A
C847   C852    1.460   .     S
C848   C851    1.460   .     S
C848   O879    1.299   .     A
C848   O878    1.299   .     A
C849   H865    1.082   .     S
C849   C851    1.400   .     A
C849   C859    1.400   .     A
C850   H866    1.082   .     S
C850   C852    1.400   .     A
C850   C860    1.400   .     A
C851   C853    1.399   .     A
C852   C854    1.399   .     A
C853   H867    1.085   .     S
C853   C855    1.392   .     A
C854   H868    1.085   .     S
C854   C856    1.392   .     A
C855   C861    1.399   .     A
C855   C857    1.412   .     A
C856   C862    1.399   .     A
C856   C858    1.412   .     A
C857   C859    1.417   .     A
C857   C282    1.404   1_556 S
C858   C860    1.417   .     A
C861   H869    1.085   .     S
C861   C259    1.395   1_556 S
C862   H870    1.085   .     S
Cu863  N871    2.024   .     S
Cu863  O879    1.968   .     S
Cu863  O875    1.964   .     S
Cu863  O877    1.968   .     S
Cu863  O873    1.965   .     S
Cu863  Cu864   2.694   .     S
Cu864  O880    1.968   .     S
Cu864  N872    2.024   .     S
Cu864  O876    1.964   .     S
Cu864  O874    1.965   .     S
Cu864  O878    1.968   .     S
C881   N882    1.157   .     T
C883   N884    1.157   .     T
C889   N890    1.158   .     T
C891   N892    1.158   .     T
C893   N894    1.158   .     T
C895   N896    1.158   .     T
C897   O940    1.296   .     A
C897   O937    1.296   .     A
C897   C906    1.450   .     S
C898   C905    1.450   .     S
C898   O939    1.296   .     A
C898   O938    1.296   .     A
C899   C924    1.414   .     A
C899   C945    1.446   .     S
C900   C947    1.446   .     S
C900   C923    1.414   .     A
C900   C350    1.395   1_556 S
C901   C906    1.401   .     A
C901   H949    1.083   .     S
C902   H950    1.083   .     S
C902   C905    1.401   .     A
C902   C776    1.383   1_655 S
C903   H951    1.083   .     S
C903   C905    1.401   .     A
C903   C773    1.383   1_655 S
C904   H952    1.083   .     S
C904   C906    1.401   .     A
C907   N936    1.372   .     A
C907   C953    1.444   .     S
C908   N935    1.372   .     A
C908   C955    1.444   .     S
C908   C1101   1.425   .     S
C909   C957    1.444   .     S
C909   N936    1.372   .     A
C910   C959    1.444   .     S
C910   N935    1.372   .     A
C910   C1099   1.425   .     S
C911   O944    1.299   .     A
C911   O941    1.299   .     A
C911   C916    1.460   .     S
C912   C915    1.460   .     S
C912   O943    1.299   .     A
C912   O942    1.299   .     A
C913   H929    1.082   .     S
C913   C915    1.400   .     A
C913   C923    1.400   .     A
C914   H930    1.082   .     S
C914   C916    1.400   .     A
C914   C924    1.400   .     A
C915   C917    1.399   .     A
C916   C918    1.399   .     A
C917   H931    1.085   .     S
C917   C919    1.392   .     A
C918   H932    1.085   .     S
C918   C920    1.392   .     A
C919   C925    1.399   .     A
C919   C921    1.412   .     A
C920   C926    1.399   .     A
C920   C922    1.412   .     A
C921   C923    1.417   .     A
C921   C346    1.404   1_556 S
C922   C924    1.417   .     A
C925   H933    1.085   .     S
C925   C323    1.395   1_556 S
C926   H934    1.085   .     S
Cu927  N935    2.024   .     S
Cu927  O943    1.968   .     S
Cu927  O939    1.964   .     S
Cu927  O941    1.968   .     S
Cu927  O937    1.965   .     S
Cu927  Cu928   2.694   .     S
Cu928  O944    1.968   .     S
Cu928  N936    2.024   .     S
Cu928  O940    1.964   .     S
Cu928  O938    1.965   .     S
Cu928  O942    1.968   .     S
C945   N946    1.157   .     T
C947   N948    1.157   .     T
C953   N954    1.158   .     T
C955   N956    1.158   .     T
C957   N958    1.158   .     T
C959   N960    1.158   .     T
C961   O1004   1.296   .     A
C961   O1001   1.296   .     A
C961   C970    1.450   .     S
C962   C969    1.450   .     S
C962   O1003   1.296   .     A
C962   O1002   1.296   .     A
C963   C988    1.414   .     A
C963   C1009   1.446   .     S
C964   C1011   1.446   .     S
C964   C987    1.414   .     A
C964   C414    1.395   1_556 S
C965   C970    1.401   .     A
C965   H1013   1.083   .     S
C965   C1095   1.383   1_455 S
C966   H1014   1.083   .     S
C966   C969    1.401   .     A
C966   C1032   1.383   .     S
C967   H1015   1.083   .     S
C967   C969    1.401   .     A
C967   C1029   1.383   .     S
C968   H1016   1.083   .     S
C968   C970    1.401   .     A
C968   C1094   1.383   1_455 S
C971   N1000   1.372   .     A
C971   C1017   1.444   .     S
C972   N999    1.372   .     A
C972   C1019   1.444   .     S
C972   C589    1.425   1_565 S
C973   C1021   1.444   .     S
C973   N1000   1.372   .     A
C974   C1023   1.444   .     S
C974   N999    1.372   .     A
C974   C587    1.425   1_565 S
C975   O1008   1.299   .     A
C975   O1005   1.299   .     A
C975   C980    1.460   .     S
C976   C979    1.460   .     S
C976   O1007   1.299   .     A
C976   O1006   1.299   .     A
C977   H993    1.082   .     S
C977   C979    1.400   .     A
C977   C987    1.400   .     A
C978   H994    1.082   .     S
C978   C980    1.400   .     A
C978   C988    1.400   .     A
C979   C981    1.399   .     A
C980   C982    1.399   .     A
C981   H995    1.085   .     S
C981   C983    1.392   .     A
C982   H996    1.085   .     S
C982   C984    1.392   .     A
C983   C989    1.399   .     A
C983   C985    1.412   .     A
C984   C990    1.399   .     A
C984   C986    1.412   .     A
C985   C987    1.417   .     A
C985   C410    1.404   1_556 S
C986   C988    1.417   .     A
C989   H997    1.085   .     S
C989   C387    1.395   1_556 S
C990   H998    1.085   .     S
Cu991  N999    2.024   .     S
Cu991  O1007   1.968   .     S
Cu991  O1003   1.964   .     S
Cu991  O1005   1.968   .     S
Cu991  O1001   1.965   .     S
Cu991  Cu992   2.694   .     S
Cu992  O1008   1.968   .     S
Cu992  N1000   2.024   .     S
Cu992  O1004   1.964   .     S
Cu992  O1002   1.965   .     S
Cu992  O1006   1.968   .     S
C1009  N1010   1.157   .     T
C1011  N1012   1.157   .     T
C1017  N1018   1.158   .     T
C1019  N1020   1.158   .     T
C1021  N1022   1.158   .     T
C1023  N1024   1.158   .     T
C1025  O1068   1.296   .     A
C1025  O1065   1.296   .     A
C1025  C1034   1.450   .     S
C1026  C1033   1.450   .     S
C1026  O1067   1.296   .     A
C1026  O1066   1.296   .     A
C1027  C1052   1.414   .     A
C1027  C1073   1.446   .     S
C1028  C1075   1.446   .     S
C1028  C1051   1.414   .     A
C1028  C478    1.395   1_556 S
C1029  C1034   1.401   .     A
C1029  H1077   1.083   .     S
C1030  H1078   1.083   .     S
C1030  C1033   1.401   .     A
C1030  C1096   1.383   .     S
C1031  H1079   1.083   .     S
C1031  C1033   1.401   .     A
C1031  C1093   1.383   .     S
C1032  H1080   1.083   .     S
C1032  C1034   1.401   .     A
C1035  N1064   1.372   .     A
C1035  C1081   1.444   .     S
C1036  N1063   1.372   .     A
C1036  C1083   1.444   .     S
C1036  C653    1.425   1_565 S
C1037  C1085   1.444   .     S
C1037  N1064   1.372   .     A
C1038  C1087   1.444   .     S
C1038  N1063   1.372   .     A
C1038  C651    1.425   1_565 S
C1039  O1072   1.299   .     A
C1039  O1069   1.299   .     A
C1039  C1044   1.460   .     S
C1040  C1043   1.460   .     S
C1040  O1071   1.299   .     A
C1040  O1070   1.299   .     A
C1041  H1057   1.082   .     S
C1041  C1043   1.400   .     A
C1041  C1051   1.400   .     A
C1042  H1058   1.082   .     S
C1042  C1044   1.400   .     A
C1042  C1052   1.400   .     A
C1043  C1045   1.399   .     A
C1044  C1046   1.399   .     A
C1045  H1059   1.085   .     S
C1045  C1047   1.392   .     A
C1046  H1060   1.085   .     S
C1046  C1048   1.392   .     A
C1047  C1053   1.399   .     A
C1047  C1049   1.412   .     A
C1048  C1054   1.399   .     A
C1048  C1050   1.412   .     A
C1049  C1051   1.417   .     A
C1049  C474    1.404   1_556 S
C1050  C1052   1.417   .     A
C1053  H1061   1.085   .     S
C1053  C451    1.395   1_556 S
C1054  H1062   1.085   .     S
Cu1055 N1063   2.024   .     S
Cu1055 O1071   1.968   .     S
Cu1055 O1067   1.964   .     S
Cu1055 O1069   1.968   .     S
Cu1055 O1065   1.965   .     S
Cu1055 Cu1056  2.694   .     S
Cu1056 O1072   1.968   .     S
Cu1056 N1064   2.024   .     S
Cu1056 O1068   1.964   .     S
Cu1056 O1066   1.965   .     S
Cu1056 O1070   1.968   .     S
C1073  N1074   1.157   .     T
C1075  N1076   1.157   .     T
C1081  N1082   1.158   .     T
C1083  N1084   1.158   .     T
C1085  N1086   1.158   .     T
C1087  N1088   1.158   .     T
C1089  O1132   1.296   .     A
C1089  O1129   1.296   .     A
C1089  C1098   1.450   .     S
C1090  C1097   1.450   .     S
C1090  O1131   1.296   .     A
C1090  O1130   1.296   .     A
C1091  C1116   1.414   .     A
C1091  C1137   1.446   .     S
C1092  C1139   1.446   .     S
C1092  C1115   1.414   .     A
C1092  C542    1.395   1_556 S
C1093  C1098   1.401   .     A
C1093  H1141   1.083   .     S
C1094  H1142   1.083   .     S
C1094  C1097   1.401   .     A
C1094  C968    1.383   1_655 S
C1095  H1143   1.083   .     S
C1095  C1097   1.401   .     A
C1095  C965    1.383   1_655 S
C1096  H1144   1.083   .     S
C1096  C1098   1.401   .     A
C1099  N1128   1.372   .     A
C1099  C1145   1.444   .     S
C1100  N1127   1.372   .     A
C1100  C1147   1.444   .     S
C1100  C717    1.425   1_565 S
C1101  C1149   1.444   .     S
C1101  N1128   1.372   .     A
C1102  C1151   1.444   .     S
C1102  N1127   1.372   .     A
C1102  C715    1.425   1_565 S
C1103  O1136   1.299   .     A
C1103  O1133   1.299   .     A
C1103  C1108   1.460   .     S
C1104  C1107   1.460   .     S
C1104  O1135   1.299   .     A
C1104  O1134   1.299   .     A
C1105  H1121   1.082   .     S
C1105  C1107   1.400   .     A
C1105  C1115   1.400   .     A
C1106  H1122   1.082   .     S
C1106  C1108   1.400   .     A
C1106  C1116   1.400   .     A
C1107  C1109   1.399   .     A
C1108  C1110   1.399   .     A
C1109  H1123   1.085   .     S
C1109  C1111   1.392   .     A
C1110  H1124   1.085   .     S
C1110  C1112   1.392   .     A
C1111  C1117   1.399   .     A
C1111  C1113   1.412   .     A
C1112  C1118   1.399   .     A
C1112  C1114   1.412   .     A
C1113  C1115   1.417   .     A
C1113  C538    1.404   1_556 S
C1114  C1116   1.417   .     A
C1117  H1125   1.085   .     S
C1117  C515    1.395   1_556 S
C1118  H1126   1.085   .     S
Cu1119 N1127   2.024   .     S
Cu1119 O1135   1.968   .     S
Cu1119 O1131   1.964   .     S
Cu1119 O1133   1.968   .     S
Cu1119 O1129   1.965   .     S
Cu1119 Cu1120  2.694   .     S
Cu1120 O1136   1.968   .     S
Cu1120 N1128   2.024   .     S
Cu1120 O1132   1.964   .     S
Cu1120 O1130   1.965   .     S
Cu1120 O1134   1.968   .     S
C1137  N1138   1.157   .     T
C1139  N1140   1.157   .     T
C1145  N1146   1.158   .     T
C1147  N1148   1.158   .     T
C1149  N1150   1.158   .     T
C1151  N1152   1.158   .     T
