data_str_m2_o1_o16_pcu_sym.43
_audit_creation_date              2020-01-03
_audit_creation_method            'Materials Studio'
_symmetry_space_group_name_H-M    'P1'
_symmetry_Int_Tables_number       1
_symmetry_cell_setting            triclinic
loop_
_symmetry_equiv_pos_as_xyz
  x,y,z
_cell_length_a                    28.5441
_cell_length_b                    32.4375
_cell_length_c                    27.0856
_cell_angle_alpha                 90.2812
_cell_angle_beta                  72.9734
_cell_angle_gamma                 89.8058
loop_
_atom_site_label
_atom_site_type_symbol
_atom_site_fract_x
_atom_site_fract_y
_atom_site_fract_z
_atom_site_U_iso_or_equiv
_atom_site_adp_type
_atom_site_occupancy
C1     C     0.16654   0.24592   0.25021   0.00000  Uiso   1.00
C2     C     0.12744   0.15578   0.40614   0.00000  Uiso   1.00
C3     C     0.19860   0.31138   0.27216   0.00000  Uiso   1.00
C4     C     0.14112   0.16282   0.34966   0.00000  Uiso   1.00
C5     C     0.19968   0.02097   0.27217   0.00000  Uiso   1.00
C6     C     0.16670   0.04267   0.25178   0.00000  Uiso   1.00
C7     C     0.13385   0.02143   0.23136   0.00000  Uiso   1.00
C8     C     0.13368   0.31213   0.23087   0.00000  Uiso   1.00
C9     C     0.16633   0.29045   0.25087   0.00000  Uiso   1.00
C10    C     0.29896   0.19063   0.28418   0.00000  Uiso   1.00
C11    C     0.01523   0.19056   0.28423   0.00000  Uiso   1.00
C12    C     0.14647   0.15977   0.48917   0.00000  Uiso   1.00
C13    C     0.03439   0.14276   0.21573   0.00000  Uiso   1.00
C14    C     0.31813   0.14287   0.21564   0.00000  Uiso   1.00
C15    C     0.16654   0.08736   0.25091   0.00000  Uiso   1.00
C16    C     0.19264   0.16732   0.15036   0.00000  Uiso   1.00
C17    C     0.26649   0.18321   0.01248   0.00000  Uiso   1.00
C18    C     0.20714   0.16950   0.09428   0.00000  Uiso   1.00
C19    C     0.07780   0.15107   0.43290   0.00000  Uiso   1.00
C20    C     0.06226   0.15171   0.48638   0.00000  Uiso   1.00
C21    C     0.09496   0.16028   0.01440   0.00000  Uiso   1.00
C22    C     0.27795   0.03730   0.27091   0.00000  Uiso   1.00
C23    C     0.16269   0.15570   0.43439   0.00000  Uiso   1.00
C24    C     0.30830   0.05935   0.30062   0.00000  Uiso   1.00
C25    C     0.06845   0.21385   0.06971   0.00000  Uiso   1.00
C26    C     0.04761   0.22605   0.12622   0.00000  Uiso   1.00
C27    C     0.18265   0.16446   0.01567   0.00000  Uiso   1.00
C28    C     0.23209   0.17186   0.48731   0.00000  Uiso   1.00
C29    C     0.24747   0.16427   0.43470   0.00000  Uiso   1.00
C30    C     0.21379   0.15221   0.40993   0.00000  Uiso   1.00
C31    C     0.17224   0.16004   0.06906   0.00000  Uiso   1.00
C32    C     0.25396   0.18241   0.06605   0.00000  Uiso   1.00
Cu33   Cu    0.11978   0.16666   0.25000   0.00000  Uiso   1.00
Cu34   Cu    0.21355   0.16667   0.25000   0.00000  Uiso   1.00
H35    H     0.28097   0.19094   0.08518   0.00000  Uiso   1.00
H36    H     0.13815   0.14690   0.09153   0.00000  Uiso   1.00
H37    H     0.05050   0.14828   0.41248   0.00000  Uiso   1.00
H38    H     0.02386   0.14833   0.00658   0.00000  Uiso   1.00
H39    H     0.22941   0.13922   0.37205   0.00000  Uiso   1.00
H40    H     0.22200   0.29439   0.29004   0.00000  Uiso   1.00
H41    H     0.28580   0.05137   0.23192   0.00000  Uiso   1.00
H42    H     0.28970   0.00440   0.26663   0.00000  Uiso   1.00
H43    H     0.30330   0.04426   0.33853   0.00000  Uiso   1.00
H44    H     0.01437   0.05805   0.27831   0.00000  Uiso   1.00
H45    H     0.29665   0.09210   0.30735   0.00000  Uiso   1.00
H46    H     0.10864   0.03781   0.21523   0.00000  Uiso   1.00
H47    H     0.04219   0.22415   0.04881   0.00000  Uiso   1.00
H48    H     0.10397   0.23013   0.05383   0.00000  Uiso   1.00
H49    H     0.07304   0.21635   0.14818   0.00000  Uiso   1.00
H50    H     0.01147   0.21122   0.14291   0.00000  Uiso   1.00
H51    H     0.04272   0.26002   0.12964   0.00000  Uiso   1.00
H52    H     0.10846   0.29614   0.21441   0.00000  Uiso   1.00
H53    H     0.27262   0.20986   0.31155   0.00000  Uiso   1.00
H54    H     0.02626   0.20971   0.31164   0.00000  Uiso   1.00
H55    H     0.06074   0.12356   0.18833   0.00000  Uiso   1.00
H56    H     0.30712   0.12381   0.18814   0.00000  Uiso   1.00
H57    H     0.28608   0.16482   0.41333   0.00000  Uiso   1.00
H58    H     0.30304   0.19228   0.49047   0.00000  Uiso   1.00
N59    N     0.04931   0.16666   0.24999   0.00000  Uiso   1.00
N60    N     0.28402   0.16669   0.24999   0.00000  Uiso   1.00
O61    O     0.12708   0.22678   0.25001   0.00000  Uiso   1.00
O62    O     0.07510   0.17065   0.06586   0.00000  Uiso   1.00
O63    O     0.20627   0.22679   0.25001   0.00000  Uiso   1.00
O64    O     0.10775   0.16665   0.32549   0.00000  Uiso   1.00
O65    O     0.18694   0.16666   0.32549   0.00000  Uiso   1.00
O66    O     0.12706   0.10654   0.24999   0.00000  Uiso   1.00
O67    O     0.20625   0.10655   0.24999   0.00000  Uiso   1.00
O68    O     0.14640   0.16667   0.17451   0.00000  Uiso   1.00
O69    O     0.22559   0.16668   0.17451   0.00000  Uiso   1.00
O70    O     0.22776   0.04162   0.29826   0.00000  Uiso   1.00
C71    C     0.49988   0.24592   0.25021   0.00000  Uiso   1.00
C72    C     0.46078   0.15578   0.40614   0.00000  Uiso   1.00
C73    C     0.53193   0.31138   0.27216   0.00000  Uiso   1.00
C74    C     0.47446   0.16282   0.34966   0.00000  Uiso   1.00
C75    C     0.53302   0.02097   0.27217   0.00000  Uiso   1.00
C76    C     0.50003   0.04267   0.25178   0.00000  Uiso   1.00
C77    C     0.46718   0.02143   0.23136   0.00000  Uiso   1.00
C78    C     0.46701   0.31213   0.23087   0.00000  Uiso   1.00
C79    C     0.49966   0.29045   0.25087   0.00000  Uiso   1.00
C80    C     0.63230   0.19063   0.28418   0.00000  Uiso   1.00
C81    C     0.34856   0.19056   0.28423   0.00000  Uiso   1.00
C82    C     0.47980   0.15977   0.48917   0.00000  Uiso   1.00
C83    C     0.36772   0.14276   0.21573   0.00000  Uiso   1.00
C84    C     0.65146   0.14287   0.21564   0.00000  Uiso   1.00
C85    C     0.49988   0.08736   0.25091   0.00000  Uiso   1.00
C86    C     0.52598   0.16732   0.15036   0.00000  Uiso   1.00
C87    C     0.59982   0.18321   0.01248   0.00000  Uiso   1.00
C88    C     0.54047   0.16950   0.09428   0.00000  Uiso   1.00
C89    C     0.41114   0.15107   0.43290   0.00000  Uiso   1.00
C90    C     0.39559   0.15171   0.48638   0.00000  Uiso   1.00
C91    C     0.42829   0.16028   0.01440   0.00000  Uiso   1.00
C92    C     0.61128   0.03730   0.27091   0.00000  Uiso   1.00
C93    C     0.49603   0.15570   0.43439   0.00000  Uiso   1.00
C94    C     0.64163   0.05935   0.30062   0.00000  Uiso   1.00
C95    C     0.40178   0.21385   0.06971   0.00000  Uiso   1.00
C96    C     0.38094   0.22605   0.12622   0.00000  Uiso   1.00
C97    C     0.51598   0.16446   0.01567   0.00000  Uiso   1.00
C98    C     0.56542   0.17186   0.48731   0.00000  Uiso   1.00
C99    C     0.58080   0.16427   0.43470   0.00000  Uiso   1.00
C100   C     0.54712   0.15221   0.40993   0.00000  Uiso   1.00
C101   C     0.50558   0.16004   0.06906   0.00000  Uiso   1.00
C102   C     0.58730   0.18241   0.06605   0.00000  Uiso   1.00
Cu103  Cu    0.45311   0.16666   0.25000   0.00000  Uiso   1.00
Cu104  Cu    0.54689   0.16667   0.25000   0.00000  Uiso   1.00
H105   H     0.61431   0.19094   0.08518   0.00000  Uiso   1.00
H106   H     0.47148   0.14690   0.09153   0.00000  Uiso   1.00
H107   H     0.38384   0.14828   0.41248   0.00000  Uiso   1.00
H108   H     0.35719   0.14833   0.00658   0.00000  Uiso   1.00
H109   H     0.56275   0.13922   0.37205   0.00000  Uiso   1.00
H110   H     0.55533   0.29439   0.29004   0.00000  Uiso   1.00
H111   H     0.61913   0.05137   0.23192   0.00000  Uiso   1.00
H112   H     0.62303   0.00440   0.26663   0.00000  Uiso   1.00
H113   H     0.63663   0.04426   0.33853   0.00000  Uiso   1.00
H114   H     0.34771   0.05805   0.27831   0.00000  Uiso   1.00
H115   H     0.62999   0.09210   0.30735   0.00000  Uiso   1.00
H116   H     0.44197   0.03781   0.21523   0.00000  Uiso   1.00
H117   H     0.37553   0.22415   0.04881   0.00000  Uiso   1.00
H118   H     0.43731   0.23013   0.05383   0.00000  Uiso   1.00
H119   H     0.40637   0.21635   0.14818   0.00000  Uiso   1.00
H120   H     0.34480   0.21122   0.14291   0.00000  Uiso   1.00
H121   H     0.37606   0.26002   0.12964   0.00000  Uiso   1.00
H122   H     0.44179   0.29614   0.21441   0.00000  Uiso   1.00
H123   H     0.60595   0.20986   0.31155   0.00000  Uiso   1.00
H124   H     0.35959   0.20971   0.31164   0.00000  Uiso   1.00
H125   H     0.39407   0.12356   0.18833   0.00000  Uiso   1.00
H126   H     0.64045   0.12381   0.18814   0.00000  Uiso   1.00
H127   H     0.61942   0.16482   0.41333   0.00000  Uiso   1.00
H128   H     0.63638   0.19228   0.49047   0.00000  Uiso   1.00
N129   N     0.38265   0.16666   0.24999   0.00000  Uiso   1.00
N130   N     0.61735   0.16669   0.24999   0.00000  Uiso   1.00
O131   O     0.46042   0.22678   0.25001   0.00000  Uiso   1.00
O132   O     0.40844   0.17065   0.06586   0.00000  Uiso   1.00
O133   O     0.53961   0.22679   0.25001   0.00000  Uiso   1.00
O134   O     0.44108   0.16665   0.32549   0.00000  Uiso   1.00
O135   O     0.52027   0.16666   0.32549   0.00000  Uiso   1.00
O136   O     0.46039   0.10654   0.24999   0.00000  Uiso   1.00
O137   O     0.53958   0.10655   0.24999   0.00000  Uiso   1.00
O138   O     0.47973   0.16667   0.17451   0.00000  Uiso   1.00
O139   O     0.55892   0.16668   0.17451   0.00000  Uiso   1.00
O140   O     0.56110   0.04162   0.29826   0.00000  Uiso   1.00
C141   C     0.83321   0.24592   0.25021   0.00000  Uiso   1.00
C142   C     0.79411   0.15578   0.40614   0.00000  Uiso   1.00
C143   C     0.86526   0.31138   0.27216   0.00000  Uiso   1.00
C144   C     0.80779   0.16282   0.34966   0.00000  Uiso   1.00
C145   C     0.86635   0.02097   0.27217   0.00000  Uiso   1.00
C146   C     0.83337   0.04267   0.25178   0.00000  Uiso   1.00
C147   C     0.80051   0.02143   0.23136   0.00000  Uiso   1.00
C148   C     0.80035   0.31213   0.23087   0.00000  Uiso   1.00
C149   C     0.83300   0.29045   0.25087   0.00000  Uiso   1.00
C150   C     0.96563   0.19063   0.28418   0.00000  Uiso   1.00
C151   C     0.68189   0.19056   0.28423   0.00000  Uiso   1.00
C152   C     0.81313   0.15977   0.48917   0.00000  Uiso   1.00
C153   C     0.70106   0.14276   0.21573   0.00000  Uiso   1.00
C154   C     0.98480   0.14287   0.21564   0.00000  Uiso   1.00
C155   C     0.83321   0.08736   0.25091   0.00000  Uiso   1.00
C156   C     0.85931   0.16732   0.15036   0.00000  Uiso   1.00
C157   C     0.93316   0.18321   0.01248   0.00000  Uiso   1.00
C158   C     0.87380   0.16950   0.09428   0.00000  Uiso   1.00
C159   C     0.74447   0.15107   0.43290   0.00000  Uiso   1.00
C160   C     0.72893   0.15171   0.48638   0.00000  Uiso   1.00
C161   C     0.76162   0.16028   0.01440   0.00000  Uiso   1.00
C162   C     0.94462   0.03730   0.27091   0.00000  Uiso   1.00
C163   C     0.82936   0.15570   0.43439   0.00000  Uiso   1.00
C164   C     0.97497   0.05935   0.30062   0.00000  Uiso   1.00
C165   C     0.73512   0.21385   0.06971   0.00000  Uiso   1.00
C166   C     0.71427   0.22605   0.12622   0.00000  Uiso   1.00
C167   C     0.84931   0.16446   0.01567   0.00000  Uiso   1.00
C168   C     0.89875   0.17186   0.48731   0.00000  Uiso   1.00
C169   C     0.91414   0.16427   0.43470   0.00000  Uiso   1.00
C170   C     0.88046   0.15221   0.40993   0.00000  Uiso   1.00
C171   C     0.83891   0.16004   0.06906   0.00000  Uiso   1.00
C172   C     0.92063   0.18241   0.06605   0.00000  Uiso   1.00
Cu173  Cu    0.78645   0.16666   0.25000   0.00000  Uiso   1.00
Cu174  Cu    0.88022   0.16667   0.25000   0.00000  Uiso   1.00
H175   H     0.94764   0.19094   0.08518   0.00000  Uiso   1.00
H176   H     0.80481   0.14690   0.09153   0.00000  Uiso   1.00
H177   H     0.71717   0.14828   0.41248   0.00000  Uiso   1.00
H178   H     0.69052   0.14833   0.00658   0.00000  Uiso   1.00
H179   H     0.89608   0.13922   0.37205   0.00000  Uiso   1.00
H180   H     0.88867   0.29439   0.29004   0.00000  Uiso   1.00
H181   H     0.95246   0.05137   0.23192   0.00000  Uiso   1.00
H182   H     0.95637   0.00440   0.26663   0.00000  Uiso   1.00
H183   H     0.96996   0.04426   0.33853   0.00000  Uiso   1.00
H184   H     0.68104   0.05805   0.27831   0.00000  Uiso   1.00
H185   H     0.96332   0.09210   0.30735   0.00000  Uiso   1.00
H186   H     0.77531   0.03781   0.21523   0.00000  Uiso   1.00
H187   H     0.70886   0.22415   0.04881   0.00000  Uiso   1.00
H188   H     0.77064   0.23013   0.05383   0.00000  Uiso   1.00
H189   H     0.73970   0.21635   0.14818   0.00000  Uiso   1.00
H190   H     0.67814   0.21122   0.14291   0.00000  Uiso   1.00
H191   H     0.70939   0.26002   0.12964   0.00000  Uiso   1.00
H192   H     0.77512   0.29614   0.21441   0.00000  Uiso   1.00
H193   H     0.93929   0.20986   0.31155   0.00000  Uiso   1.00
H194   H     0.69293   0.20971   0.31164   0.00000  Uiso   1.00
H195   H     0.72740   0.12356   0.18833   0.00000  Uiso   1.00
H196   H     0.97379   0.12381   0.18814   0.00000  Uiso   1.00
H197   H     0.95275   0.16482   0.41333   0.00000  Uiso   1.00
H198   H     0.96971   0.19228   0.49047   0.00000  Uiso   1.00
N199   N     0.71598   0.16666   0.24999   0.00000  Uiso   1.00
N200   N     0.95069   0.16669   0.24999   0.00000  Uiso   1.00
O201   O     0.79375   0.22678   0.25001   0.00000  Uiso   1.00
O202   O     0.74177   0.17065   0.06586   0.00000  Uiso   1.00
O203   O     0.87294   0.22679   0.25001   0.00000  Uiso   1.00
O204   O     0.77441   0.16665   0.32549   0.00000  Uiso   1.00
O205   O     0.85360   0.16666   0.32549   0.00000  Uiso   1.00
O206   O     0.79373   0.10654   0.24999   0.00000  Uiso   1.00
O207   O     0.87292   0.10655   0.24999   0.00000  Uiso   1.00
O208   O     0.81306   0.16667   0.17451   0.00000  Uiso   1.00
O209   O     0.89225   0.16668   0.17451   0.00000  Uiso   1.00
O210   O     0.89443   0.04162   0.29826   0.00000  Uiso   1.00
C211   C     0.16654   0.57925   0.25021   0.00000  Uiso   1.00
C212   C     0.12744   0.48911   0.40614   0.00000  Uiso   1.00
C213   C     0.19860   0.64471   0.27216   0.00000  Uiso   1.00
C214   C     0.14112   0.49615   0.34966   0.00000  Uiso   1.00
C215   C     0.19968   0.35431   0.27217   0.00000  Uiso   1.00
C216   C     0.16670   0.37600   0.25178   0.00000  Uiso   1.00
C217   C     0.13385   0.35476   0.23136   0.00000  Uiso   1.00
C218   C     0.13368   0.64546   0.23087   0.00000  Uiso   1.00
C219   C     0.16633   0.62378   0.25087   0.00000  Uiso   1.00
C220   C     0.29896   0.52396   0.28418   0.00000  Uiso   1.00
C221   C     0.01523   0.52390   0.28423   0.00000  Uiso   1.00
C222   C     0.14647   0.49311   0.48917   0.00000  Uiso   1.00
C223   C     0.03439   0.47610   0.21573   0.00000  Uiso   1.00
C224   C     0.31813   0.47621   0.21564   0.00000  Uiso   1.00
C225   C     0.16654   0.42069   0.25091   0.00000  Uiso   1.00
C226   C     0.19264   0.50066   0.15036   0.00000  Uiso   1.00
C227   C     0.26649   0.51655   0.01248   0.00000  Uiso   1.00
C228   C     0.20714   0.50283   0.09428   0.00000  Uiso   1.00
C229   C     0.07780   0.48440   0.43290   0.00000  Uiso   1.00
C230   C     0.06226   0.48504   0.48638   0.00000  Uiso   1.00
C231   C     0.09496   0.49361   0.01440   0.00000  Uiso   1.00
C232   C     0.27795   0.37063   0.27091   0.00000  Uiso   1.00
C233   C     0.16269   0.48904   0.43439   0.00000  Uiso   1.00
C234   C     0.30830   0.39268   0.30062   0.00000  Uiso   1.00
C235   C     0.06845   0.54718   0.06971   0.00000  Uiso   1.00
C236   C     0.04761   0.55939   0.12622   0.00000  Uiso   1.00
C237   C     0.18265   0.49779   0.01567   0.00000  Uiso   1.00
C238   C     0.23209   0.50519   0.48731   0.00000  Uiso   1.00
C239   C     0.24747   0.49760   0.43470   0.00000  Uiso   1.00
C240   C     0.21379   0.48554   0.40993   0.00000  Uiso   1.00
C241   C     0.17224   0.49338   0.06906   0.00000  Uiso   1.00
C242   C     0.25396   0.51574   0.06605   0.00000  Uiso   1.00
Cu243  Cu    0.11978   0.49999   0.25000   0.00000  Uiso   1.00
Cu244  Cu    0.21355   0.50001   0.25000   0.00000  Uiso   1.00
H245   H     0.28097   0.52427   0.08518   0.00000  Uiso   1.00
H246   H     0.13815   0.48023   0.09153   0.00000  Uiso   1.00
H247   H     0.05050   0.48161   0.41248   0.00000  Uiso   1.00
H248   H     0.02386   0.48166   0.00658   0.00000  Uiso   1.00
H249   H     0.22941   0.47255   0.37205   0.00000  Uiso   1.00
H250   H     0.22200   0.62772   0.29004   0.00000  Uiso   1.00
H251   H     0.28580   0.38471   0.23192   0.00000  Uiso   1.00
H252   H     0.28970   0.33773   0.26663   0.00000  Uiso   1.00
H253   H     0.30330   0.37760   0.33853   0.00000  Uiso   1.00
H254   H     0.01437   0.39139   0.27831   0.00000  Uiso   1.00
H255   H     0.29665   0.42543   0.30735   0.00000  Uiso   1.00
H256   H     0.10864   0.37115   0.21523   0.00000  Uiso   1.00
H257   H     0.04219   0.55748   0.04881   0.00000  Uiso   1.00
H258   H     0.10397   0.56346   0.05383   0.00000  Uiso   1.00
H259   H     0.07304   0.54969   0.14818   0.00000  Uiso   1.00
H260   H     0.01147   0.54455   0.14291   0.00000  Uiso   1.00
H261   H     0.04272   0.59336   0.12964   0.00000  Uiso   1.00
H262   H     0.10846   0.62947   0.21441   0.00000  Uiso   1.00
H263   H     0.27262   0.54319   0.31155   0.00000  Uiso   1.00
H264   H     0.02626   0.54304   0.31164   0.00000  Uiso   1.00
H265   H     0.06074   0.45689   0.18833   0.00000  Uiso   1.00
H266   H     0.30712   0.45715   0.18814   0.00000  Uiso   1.00
H267   H     0.28608   0.49815   0.41333   0.00000  Uiso   1.00
H268   H     0.30304   0.52561   0.49047   0.00000  Uiso   1.00
N269   N     0.04931   0.49999   0.24999   0.00000  Uiso   1.00
N270   N     0.28402   0.50002   0.24999   0.00000  Uiso   1.00
O271   O     0.12708   0.56011   0.25001   0.00000  Uiso   1.00
O272   O     0.07510   0.50398   0.06586   0.00000  Uiso   1.00
O273   O     0.20627   0.56012   0.25001   0.00000  Uiso   1.00
O274   O     0.10775   0.49998   0.32549   0.00000  Uiso   1.00
O275   O     0.18694   0.49999   0.32549   0.00000  Uiso   1.00
O276   O     0.12706   0.43988   0.24999   0.00000  Uiso   1.00
O277   O     0.20625   0.43989   0.24999   0.00000  Uiso   1.00
O278   O     0.14640   0.50001   0.17451   0.00000  Uiso   1.00
O279   O     0.22559   0.50002   0.17451   0.00000  Uiso   1.00
O280   O     0.22776   0.37495   0.29826   0.00000  Uiso   1.00
C281   C     0.49988   0.57925   0.25021   0.00000  Uiso   1.00
C282   C     0.46078   0.48911   0.40614   0.00000  Uiso   1.00
C283   C     0.53193   0.64471   0.27216   0.00000  Uiso   1.00
C284   C     0.47446   0.49615   0.34966   0.00000  Uiso   1.00
C285   C     0.53302   0.35431   0.27217   0.00000  Uiso   1.00
C286   C     0.50003   0.37600   0.25178   0.00000  Uiso   1.00
C287   C     0.46718   0.35476   0.23136   0.00000  Uiso   1.00
C288   C     0.46701   0.64546   0.23087   0.00000  Uiso   1.00
C289   C     0.49966   0.62378   0.25087   0.00000  Uiso   1.00
C290   C     0.63230   0.52396   0.28418   0.00000  Uiso   1.00
C291   C     0.34856   0.52390   0.28423   0.00000  Uiso   1.00
C292   C     0.47980   0.49311   0.48917   0.00000  Uiso   1.00
C293   C     0.36772   0.47610   0.21573   0.00000  Uiso   1.00
C294   C     0.65146   0.47621   0.21564   0.00000  Uiso   1.00
C295   C     0.49988   0.42069   0.25091   0.00000  Uiso   1.00
C296   C     0.52598   0.50066   0.15036   0.00000  Uiso   1.00
C297   C     0.59982   0.51655   0.01248   0.00000  Uiso   1.00
C298   C     0.54047   0.50283   0.09428   0.00000  Uiso   1.00
C299   C     0.41114   0.48440   0.43290   0.00000  Uiso   1.00
C300   C     0.39559   0.48504   0.48638   0.00000  Uiso   1.00
C301   C     0.42829   0.49361   0.01440   0.00000  Uiso   1.00
C302   C     0.61128   0.37063   0.27091   0.00000  Uiso   1.00
C303   C     0.49603   0.48904   0.43439   0.00000  Uiso   1.00
C304   C     0.64163   0.39268   0.30062   0.00000  Uiso   1.00
C305   C     0.40178   0.54718   0.06971   0.00000  Uiso   1.00
C306   C     0.38094   0.55939   0.12622   0.00000  Uiso   1.00
C307   C     0.51598   0.49779   0.01567   0.00000  Uiso   1.00
C308   C     0.56542   0.50519   0.48731   0.00000  Uiso   1.00
C309   C     0.58080   0.49760   0.43470   0.00000  Uiso   1.00
C310   C     0.54712   0.48554   0.40993   0.00000  Uiso   1.00
C311   C     0.50558   0.49338   0.06906   0.00000  Uiso   1.00
C312   C     0.58730   0.51574   0.06605   0.00000  Uiso   1.00
Cu313  Cu    0.45311   0.49999   0.25000   0.00000  Uiso   1.00
Cu314  Cu    0.54689   0.50001   0.25000   0.00000  Uiso   1.00
H315   H     0.61431   0.52427   0.08518   0.00000  Uiso   1.00
H316   H     0.47148   0.48023   0.09153   0.00000  Uiso   1.00
H317   H     0.38384   0.48161   0.41248   0.00000  Uiso   1.00
H318   H     0.35719   0.48166   0.00658   0.00000  Uiso   1.00
H319   H     0.56275   0.47255   0.37205   0.00000  Uiso   1.00
H320   H     0.55533   0.62772   0.29004   0.00000  Uiso   1.00
H321   H     0.61913   0.38471   0.23192   0.00000  Uiso   1.00
H322   H     0.62303   0.33773   0.26663   0.00000  Uiso   1.00
H323   H     0.63663   0.37760   0.33853   0.00000  Uiso   1.00
H324   H     0.34771   0.39139   0.27831   0.00000  Uiso   1.00
H325   H     0.62999   0.42543   0.30735   0.00000  Uiso   1.00
H326   H     0.44197   0.37115   0.21523   0.00000  Uiso   1.00
H327   H     0.37553   0.55748   0.04881   0.00000  Uiso   1.00
H328   H     0.43731   0.56346   0.05383   0.00000  Uiso   1.00
H329   H     0.40637   0.54969   0.14818   0.00000  Uiso   1.00
H330   H     0.34480   0.54455   0.14291   0.00000  Uiso   1.00
H331   H     0.37606   0.59336   0.12964   0.00000  Uiso   1.00
H332   H     0.44179   0.62947   0.21441   0.00000  Uiso   1.00
H333   H     0.60595   0.54319   0.31155   0.00000  Uiso   1.00
H334   H     0.35959   0.54304   0.31164   0.00000  Uiso   1.00
H335   H     0.39407   0.45689   0.18833   0.00000  Uiso   1.00
H336   H     0.64045   0.45715   0.18814   0.00000  Uiso   1.00
H337   H     0.61942   0.49815   0.41333   0.00000  Uiso   1.00
H338   H     0.63638   0.52561   0.49047   0.00000  Uiso   1.00
N339   N     0.38265   0.49999   0.24999   0.00000  Uiso   1.00
N340   N     0.61735   0.50002   0.24999   0.00000  Uiso   1.00
O341   O     0.46042   0.56011   0.25001   0.00000  Uiso   1.00
O342   O     0.40844   0.50398   0.06586   0.00000  Uiso   1.00
O343   O     0.53961   0.56012   0.25001   0.00000  Uiso   1.00
O344   O     0.44108   0.49998   0.32549   0.00000  Uiso   1.00
O345   O     0.52027   0.49999   0.32549   0.00000  Uiso   1.00
O346   O     0.46039   0.43988   0.24999   0.00000  Uiso   1.00
O347   O     0.53958   0.43989   0.24999   0.00000  Uiso   1.00
O348   O     0.47973   0.50001   0.17451   0.00000  Uiso   1.00
O349   O     0.55892   0.50002   0.17451   0.00000  Uiso   1.00
O350   O     0.56110   0.37495   0.29826   0.00000  Uiso   1.00
C351   C     0.83321   0.57925   0.25021   0.00000  Uiso   1.00
C352   C     0.79411   0.48911   0.40614   0.00000  Uiso   1.00
C353   C     0.86526   0.64471   0.27216   0.00000  Uiso   1.00
C354   C     0.80779   0.49615   0.34966   0.00000  Uiso   1.00
C355   C     0.86635   0.35431   0.27217   0.00000  Uiso   1.00
C356   C     0.83337   0.37600   0.25178   0.00000  Uiso   1.00
C357   C     0.80051   0.35476   0.23136   0.00000  Uiso   1.00
C358   C     0.80035   0.64546   0.23087   0.00000  Uiso   1.00
C359   C     0.83300   0.62378   0.25087   0.00000  Uiso   1.00
C360   C     0.96563   0.52396   0.28418   0.00000  Uiso   1.00
C361   C     0.68189   0.52390   0.28423   0.00000  Uiso   1.00
C362   C     0.81313   0.49311   0.48917   0.00000  Uiso   1.00
C363   C     0.70106   0.47610   0.21573   0.00000  Uiso   1.00
C364   C     0.98480   0.47621   0.21564   0.00000  Uiso   1.00
C365   C     0.83321   0.42069   0.25091   0.00000  Uiso   1.00
C366   C     0.85931   0.50066   0.15036   0.00000  Uiso   1.00
C367   C     0.93316   0.51655   0.01248   0.00000  Uiso   1.00
C368   C     0.87380   0.50283   0.09428   0.00000  Uiso   1.00
C369   C     0.74447   0.48440   0.43290   0.00000  Uiso   1.00
C370   C     0.72893   0.48504   0.48638   0.00000  Uiso   1.00
C371   C     0.76162   0.49361   0.01440   0.00000  Uiso   1.00
C372   C     0.94462   0.37063   0.27091   0.00000  Uiso   1.00
C373   C     0.82936   0.48904   0.43439   0.00000  Uiso   1.00
C374   C     0.97497   0.39268   0.30062   0.00000  Uiso   1.00
C375   C     0.73512   0.54718   0.06971   0.00000  Uiso   1.00
C376   C     0.71427   0.55939   0.12622   0.00000  Uiso   1.00
C377   C     0.84931   0.49779   0.01567   0.00000  Uiso   1.00
C378   C     0.89875   0.50519   0.48731   0.00000  Uiso   1.00
C379   C     0.91414   0.49760   0.43470   0.00000  Uiso   1.00
C380   C     0.88046   0.48554   0.40993   0.00000  Uiso   1.00
C381   C     0.83891   0.49338   0.06906   0.00000  Uiso   1.00
C382   C     0.92063   0.51574   0.06605   0.00000  Uiso   1.00
Cu383  Cu    0.78645   0.49999   0.25000   0.00000  Uiso   1.00
Cu384  Cu    0.88022   0.50001   0.25000   0.00000  Uiso   1.00
H385   H     0.94764   0.52427   0.08518   0.00000  Uiso   1.00
H386   H     0.80481   0.48023   0.09153   0.00000  Uiso   1.00
H387   H     0.71717   0.48161   0.41248   0.00000  Uiso   1.00
H388   H     0.69052   0.48166   0.00658   0.00000  Uiso   1.00
H389   H     0.89608   0.47255   0.37205   0.00000  Uiso   1.00
H390   H     0.88867   0.62772   0.29004   0.00000  Uiso   1.00
H391   H     0.95246   0.38471   0.23192   0.00000  Uiso   1.00
H392   H     0.95637   0.33773   0.26663   0.00000  Uiso   1.00
H393   H     0.96996   0.37760   0.33853   0.00000  Uiso   1.00
H394   H     0.68104   0.39139   0.27831   0.00000  Uiso   1.00
H395   H     0.96332   0.42543   0.30735   0.00000  Uiso   1.00
H396   H     0.77531   0.37115   0.21523   0.00000  Uiso   1.00
H397   H     0.70886   0.55748   0.04881   0.00000  Uiso   1.00
H398   H     0.77064   0.56346   0.05383   0.00000  Uiso   1.00
H399   H     0.73970   0.54969   0.14818   0.00000  Uiso   1.00
H400   H     0.67814   0.54455   0.14291   0.00000  Uiso   1.00
H401   H     0.70939   0.59336   0.12964   0.00000  Uiso   1.00
H402   H     0.77512   0.62947   0.21441   0.00000  Uiso   1.00
H403   H     0.93929   0.54319   0.31155   0.00000  Uiso   1.00
H404   H     0.69293   0.54304   0.31164   0.00000  Uiso   1.00
H405   H     0.72740   0.45689   0.18833   0.00000  Uiso   1.00
H406   H     0.97379   0.45715   0.18814   0.00000  Uiso   1.00
H407   H     0.95275   0.49815   0.41333   0.00000  Uiso   1.00
H408   H     0.96971   0.52561   0.49047   0.00000  Uiso   1.00
N409   N     0.71598   0.49999   0.24999   0.00000  Uiso   1.00
N410   N     0.95069   0.50002   0.24999   0.00000  Uiso   1.00
O411   O     0.79375   0.56011   0.25001   0.00000  Uiso   1.00
O412   O     0.74177   0.50398   0.06586   0.00000  Uiso   1.00
O413   O     0.87294   0.56012   0.25001   0.00000  Uiso   1.00
O414   O     0.77441   0.49998   0.32549   0.00000  Uiso   1.00
O415   O     0.85360   0.49999   0.32549   0.00000  Uiso   1.00
O416   O     0.79373   0.43988   0.24999   0.00000  Uiso   1.00
O417   O     0.87292   0.43989   0.24999   0.00000  Uiso   1.00
O418   O     0.81306   0.50001   0.17451   0.00000  Uiso   1.00
O419   O     0.89225   0.50002   0.17451   0.00000  Uiso   1.00
O420   O     0.89443   0.37495   0.29826   0.00000  Uiso   1.00
C421   C     0.16654   0.91259   0.25021   0.00000  Uiso   1.00
C422   C     0.12744   0.82245   0.40614   0.00000  Uiso   1.00
C423   C     0.19860   0.97804   0.27216   0.00000  Uiso   1.00
C424   C     0.14112   0.82949   0.34966   0.00000  Uiso   1.00
C425   C     0.19968   0.68764   0.27217   0.00000  Uiso   1.00
C426   C     0.16670   0.70933   0.25178   0.00000  Uiso   1.00
C427   C     0.13385   0.68810   0.23136   0.00000  Uiso   1.00
C428   C     0.13368   0.97880   0.23087   0.00000  Uiso   1.00
C429   C     0.16633   0.95711   0.25087   0.00000  Uiso   1.00
C430   C     0.29896   0.85730   0.28418   0.00000  Uiso   1.00
C431   C     0.01523   0.85723   0.28423   0.00000  Uiso   1.00
C432   C     0.14647   0.82644   0.48917   0.00000  Uiso   1.00
C433   C     0.03439   0.80943   0.21573   0.00000  Uiso   1.00
C434   C     0.31813   0.80954   0.21564   0.00000  Uiso   1.00
C435   C     0.16654   0.75402   0.25091   0.00000  Uiso   1.00
C436   C     0.19264   0.83399   0.15036   0.00000  Uiso   1.00
C437   C     0.26649   0.84988   0.01248   0.00000  Uiso   1.00
C438   C     0.20714   0.83616   0.09428   0.00000  Uiso   1.00
C439   C     0.07780   0.81774   0.43290   0.00000  Uiso   1.00
C440   C     0.06226   0.81837   0.48638   0.00000  Uiso   1.00
C441   C     0.09496   0.82695   0.01440   0.00000  Uiso   1.00
C442   C     0.27795   0.70397   0.27091   0.00000  Uiso   1.00
C443   C     0.16269   0.82237   0.43439   0.00000  Uiso   1.00
C444   C     0.30830   0.72601   0.30062   0.00000  Uiso   1.00
C445   C     0.06845   0.88051   0.06971   0.00000  Uiso   1.00
C446   C     0.04761   0.89272   0.12622   0.00000  Uiso   1.00
C447   C     0.18265   0.83112   0.01567   0.00000  Uiso   1.00
C448   C     0.23209   0.83852   0.48731   0.00000  Uiso   1.00
C449   C     0.24747   0.83094   0.43470   0.00000  Uiso   1.00
C450   C     0.21379   0.81888   0.40993   0.00000  Uiso   1.00
C451   C     0.17224   0.82671   0.06906   0.00000  Uiso   1.00
C452   C     0.25396   0.84907   0.06605   0.00000  Uiso   1.00
Cu453  Cu    0.11978   0.83333   0.25000   0.00000  Uiso   1.00
Cu454  Cu    0.21355   0.83334   0.25000   0.00000  Uiso   1.00
H455   H     0.28097   0.85761   0.08518   0.00000  Uiso   1.00
H456   H     0.13815   0.81356   0.09153   0.00000  Uiso   1.00
H457   H     0.05050   0.81494   0.41248   0.00000  Uiso   1.00
H458   H     0.02386   0.81499   0.00658   0.00000  Uiso   1.00
H459   H     0.22941   0.80588   0.37205   0.00000  Uiso   1.00
H460   H     0.22200   0.96105   0.29004   0.00000  Uiso   1.00
H461   H     0.28580   0.71804   0.23192   0.00000  Uiso   1.00
H462   H     0.28970   0.67106   0.26663   0.00000  Uiso   1.00
H463   H     0.30330   0.71093   0.33853   0.00000  Uiso   1.00
H464   H     0.01437   0.72472   0.27831   0.00000  Uiso   1.00
H465   H     0.29665   0.75876   0.30735   0.00000  Uiso   1.00
H466   H     0.10864   0.70448   0.21523   0.00000  Uiso   1.00
H467   H     0.04219   0.89081   0.04881   0.00000  Uiso   1.00
H468   H     0.10397   0.89679   0.05383   0.00000  Uiso   1.00
H469   H     0.07304   0.88302   0.14818   0.00000  Uiso   1.00
H470   H     0.01147   0.87788   0.14291   0.00000  Uiso   1.00
H471   H     0.04272   0.92669   0.12964   0.00000  Uiso   1.00
H472   H     0.10846   0.96280   0.21441   0.00000  Uiso   1.00
H473   H     0.27262   0.87653   0.31155   0.00000  Uiso   1.00
H474   H     0.02626   0.87638   0.31164   0.00000  Uiso   1.00
H475   H     0.06074   0.79023   0.18833   0.00000  Uiso   1.00
H476   H     0.30712   0.79048   0.18814   0.00000  Uiso   1.00
H477   H     0.28608   0.83148   0.41333   0.00000  Uiso   1.00
H478   H     0.30304   0.85894   0.49047   0.00000  Uiso   1.00
N479   N     0.04931   0.83332   0.24999   0.00000  Uiso   1.00
N480   N     0.28402   0.83335   0.24999   0.00000  Uiso   1.00
O481   O     0.12708   0.89345   0.25001   0.00000  Uiso   1.00
O482   O     0.07510   0.83731   0.06586   0.00000  Uiso   1.00
O483   O     0.20627   0.89346   0.25001   0.00000  Uiso   1.00
O484   O     0.10775   0.83332   0.32549   0.00000  Uiso   1.00
O485   O     0.18694   0.83333   0.32549   0.00000  Uiso   1.00
O486   O     0.12706   0.77321   0.24999   0.00000  Uiso   1.00
O487   O     0.20625   0.77322   0.24999   0.00000  Uiso   1.00
O488   O     0.14640   0.83334   0.17451   0.00000  Uiso   1.00
O489   O     0.22559   0.83335   0.17451   0.00000  Uiso   1.00
O490   O     0.22776   0.70829   0.29826   0.00000  Uiso   1.00
C491   C     0.49988   0.91259   0.25021   0.00000  Uiso   1.00
C492   C     0.46078   0.82245   0.40614   0.00000  Uiso   1.00
C493   C     0.53193   0.97804   0.27216   0.00000  Uiso   1.00
C494   C     0.47446   0.82949   0.34966   0.00000  Uiso   1.00
C495   C     0.53302   0.68764   0.27217   0.00000  Uiso   1.00
C496   C     0.50003   0.70933   0.25178   0.00000  Uiso   1.00
C497   C     0.46718   0.68810   0.23136   0.00000  Uiso   1.00
C498   C     0.46701   0.97880   0.23087   0.00000  Uiso   1.00
C499   C     0.49966   0.95711   0.25087   0.00000  Uiso   1.00
C500   C     0.63230   0.85730   0.28418   0.00000  Uiso   1.00
C501   C     0.34856   0.85723   0.28423   0.00000  Uiso   1.00
C502   C     0.47980   0.82644   0.48917   0.00000  Uiso   1.00
C503   C     0.36772   0.80943   0.21573   0.00000  Uiso   1.00
C504   C     0.65146   0.80954   0.21564   0.00000  Uiso   1.00
C505   C     0.49988   0.75402   0.25091   0.00000  Uiso   1.00
C506   C     0.52598   0.83399   0.15036   0.00000  Uiso   1.00
C507   C     0.59982   0.84988   0.01248   0.00000  Uiso   1.00
C508   C     0.54047   0.83616   0.09428   0.00000  Uiso   1.00
C509   C     0.41114   0.81774   0.43290   0.00000  Uiso   1.00
C510   C     0.39559   0.81837   0.48638   0.00000  Uiso   1.00
C511   C     0.42829   0.82695   0.01440   0.00000  Uiso   1.00
C512   C     0.61128   0.70397   0.27091   0.00000  Uiso   1.00
C513   C     0.49603   0.82237   0.43439   0.00000  Uiso   1.00
C514   C     0.64163   0.72601   0.30062   0.00000  Uiso   1.00
C515   C     0.40178   0.88051   0.06971   0.00000  Uiso   1.00
C516   C     0.38094   0.89272   0.12622   0.00000  Uiso   1.00
C517   C     0.51598   0.83112   0.01567   0.00000  Uiso   1.00
C518   C     0.56542   0.83852   0.48731   0.00000  Uiso   1.00
C519   C     0.58080   0.83094   0.43470   0.00000  Uiso   1.00
C520   C     0.54712   0.81888   0.40993   0.00000  Uiso   1.00
C521   C     0.50558   0.82671   0.06906   0.00000  Uiso   1.00
C522   C     0.58730   0.84907   0.06605   0.00000  Uiso   1.00
Cu523  Cu    0.45311   0.83333   0.25000   0.00000  Uiso   1.00
Cu524  Cu    0.54689   0.83334   0.25000   0.00000  Uiso   1.00
H525   H     0.61431   0.85761   0.08518   0.00000  Uiso   1.00
H526   H     0.47148   0.81356   0.09153   0.00000  Uiso   1.00
H527   H     0.38384   0.81494   0.41248   0.00000  Uiso   1.00
H528   H     0.35719   0.81499   0.00658   0.00000  Uiso   1.00
H529   H     0.56275   0.80588   0.37205   0.00000  Uiso   1.00
H530   H     0.55533   0.96105   0.29004   0.00000  Uiso   1.00
H531   H     0.61913   0.71804   0.23192   0.00000  Uiso   1.00
H532   H     0.62303   0.67106   0.26663   0.00000  Uiso   1.00
H533   H     0.63663   0.71093   0.33853   0.00000  Uiso   1.00
H534   H     0.34771   0.72472   0.27831   0.00000  Uiso   1.00
H535   H     0.62999   0.75876   0.30735   0.00000  Uiso   1.00
H536   H     0.44197   0.70448   0.21523   0.00000  Uiso   1.00
H537   H     0.37553   0.89081   0.04881   0.00000  Uiso   1.00
H538   H     0.43731   0.89679   0.05383   0.00000  Uiso   1.00
H539   H     0.40637   0.88302   0.14818   0.00000  Uiso   1.00
H540   H     0.34480   0.87788   0.14291   0.00000  Uiso   1.00
H541   H     0.37606   0.92669   0.12964   0.00000  Uiso   1.00
H542   H     0.44179   0.96280   0.21441   0.00000  Uiso   1.00
H543   H     0.60595   0.87653   0.31155   0.00000  Uiso   1.00
H544   H     0.35959   0.87638   0.31164   0.00000  Uiso   1.00
H545   H     0.39407   0.79023   0.18833   0.00000  Uiso   1.00
H546   H     0.64045   0.79048   0.18814   0.00000  Uiso   1.00
H547   H     0.61942   0.83148   0.41333   0.00000  Uiso   1.00
H548   H     0.63638   0.85894   0.49047   0.00000  Uiso   1.00
N549   N     0.38265   0.83332   0.24999   0.00000  Uiso   1.00
N550   N     0.61735   0.83335   0.24999   0.00000  Uiso   1.00
O551   O     0.46042   0.89345   0.25001   0.00000  Uiso   1.00
O552   O     0.40844   0.83731   0.06586   0.00000  Uiso   1.00
O553   O     0.53961   0.89346   0.25001   0.00000  Uiso   1.00
O554   O     0.44108   0.83332   0.32549   0.00000  Uiso   1.00
O555   O     0.52027   0.83333   0.32549   0.00000  Uiso   1.00
O556   O     0.46039   0.77321   0.24999   0.00000  Uiso   1.00
O557   O     0.53958   0.77322   0.24999   0.00000  Uiso   1.00
O558   O     0.47973   0.83334   0.17451   0.00000  Uiso   1.00
O559   O     0.55892   0.83335   0.17451   0.00000  Uiso   1.00
O560   O     0.56110   0.70829   0.29826   0.00000  Uiso   1.00
C561   C     0.83321   0.91259   0.25021   0.00000  Uiso   1.00
C562   C     0.79411   0.82245   0.40614   0.00000  Uiso   1.00
C563   C     0.86526   0.97804   0.27216   0.00000  Uiso   1.00
C564   C     0.80779   0.82949   0.34966   0.00000  Uiso   1.00
C565   C     0.86635   0.68764   0.27217   0.00000  Uiso   1.00
C566   C     0.83337   0.70933   0.25178   0.00000  Uiso   1.00
C567   C     0.80051   0.68810   0.23136   0.00000  Uiso   1.00
C568   C     0.80035   0.97880   0.23087   0.00000  Uiso   1.00
C569   C     0.83300   0.95711   0.25087   0.00000  Uiso   1.00
C570   C     0.96563   0.85730   0.28418   0.00000  Uiso   1.00
C571   C     0.68189   0.85723   0.28423   0.00000  Uiso   1.00
C572   C     0.81313   0.82644   0.48917   0.00000  Uiso   1.00
C573   C     0.70106   0.80943   0.21573   0.00000  Uiso   1.00
C574   C     0.98480   0.80954   0.21564   0.00000  Uiso   1.00
C575   C     0.83321   0.75402   0.25091   0.00000  Uiso   1.00
C576   C     0.85931   0.83399   0.15036   0.00000  Uiso   1.00
C577   C     0.93316   0.84988   0.01248   0.00000  Uiso   1.00
C578   C     0.87380   0.83616   0.09428   0.00000  Uiso   1.00
C579   C     0.74447   0.81774   0.43290   0.00000  Uiso   1.00
C580   C     0.72893   0.81837   0.48638   0.00000  Uiso   1.00
C581   C     0.76162   0.82695   0.01440   0.00000  Uiso   1.00
C582   C     0.94462   0.70397   0.27091   0.00000  Uiso   1.00
C583   C     0.82936   0.82237   0.43439   0.00000  Uiso   1.00
C584   C     0.97497   0.72601   0.30062   0.00000  Uiso   1.00
C585   C     0.73512   0.88051   0.06971   0.00000  Uiso   1.00
C586   C     0.71427   0.89272   0.12622   0.00000  Uiso   1.00
C587   C     0.84931   0.83112   0.01567   0.00000  Uiso   1.00
C588   C     0.89875   0.83852   0.48731   0.00000  Uiso   1.00
C589   C     0.91414   0.83094   0.43470   0.00000  Uiso   1.00
C590   C     0.88046   0.81888   0.40993   0.00000  Uiso   1.00
C591   C     0.83891   0.82671   0.06906   0.00000  Uiso   1.00
C592   C     0.92063   0.84907   0.06605   0.00000  Uiso   1.00
Cu593  Cu    0.78645   0.83333   0.25000   0.00000  Uiso   1.00
Cu594  Cu    0.88022   0.83334   0.25000   0.00000  Uiso   1.00
H595   H     0.94764   0.85761   0.08518   0.00000  Uiso   1.00
H596   H     0.80481   0.81356   0.09153   0.00000  Uiso   1.00
H597   H     0.71717   0.81494   0.41248   0.00000  Uiso   1.00
H598   H     0.69052   0.81499   0.00658   0.00000  Uiso   1.00
H599   H     0.89608   0.80588   0.37205   0.00000  Uiso   1.00
H600   H     0.88867   0.96105   0.29004   0.00000  Uiso   1.00
H601   H     0.95246   0.71804   0.23192   0.00000  Uiso   1.00
H602   H     0.95637   0.67106   0.26663   0.00000  Uiso   1.00
H603   H     0.96996   0.71093   0.33853   0.00000  Uiso   1.00
H604   H     0.68104   0.72472   0.27831   0.00000  Uiso   1.00
H605   H     0.96332   0.75876   0.30735   0.00000  Uiso   1.00
H606   H     0.77531   0.70448   0.21523   0.00000  Uiso   1.00
H607   H     0.70886   0.89081   0.04881   0.00000  Uiso   1.00
H608   H     0.77064   0.89679   0.05383   0.00000  Uiso   1.00
H609   H     0.73970   0.88302   0.14818   0.00000  Uiso   1.00
H610   H     0.67814   0.87788   0.14291   0.00000  Uiso   1.00
H611   H     0.70939   0.92669   0.12964   0.00000  Uiso   1.00
H612   H     0.77512   0.96280   0.21441   0.00000  Uiso   1.00
H613   H     0.93929   0.87653   0.31155   0.00000  Uiso   1.00
H614   H     0.69293   0.87638   0.31164   0.00000  Uiso   1.00
H615   H     0.72740   0.79023   0.18833   0.00000  Uiso   1.00
H616   H     0.97379   0.79048   0.18814   0.00000  Uiso   1.00
H617   H     0.95275   0.83148   0.41333   0.00000  Uiso   1.00
H618   H     0.96971   0.85894   0.49047   0.00000  Uiso   1.00
N619   N     0.71598   0.83332   0.24999   0.00000  Uiso   1.00
N620   N     0.95069   0.83335   0.24999   0.00000  Uiso   1.00
O621   O     0.79375   0.89345   0.25001   0.00000  Uiso   1.00
O622   O     0.74177   0.83731   0.06586   0.00000  Uiso   1.00
O623   O     0.87294   0.89346   0.25001   0.00000  Uiso   1.00
O624   O     0.77441   0.83332   0.32549   0.00000  Uiso   1.00
O625   O     0.85360   0.83333   0.32549   0.00000  Uiso   1.00
O626   O     0.79373   0.77321   0.24999   0.00000  Uiso   1.00
O627   O     0.87292   0.77322   0.24999   0.00000  Uiso   1.00
O628   O     0.81306   0.83334   0.17451   0.00000  Uiso   1.00
O629   O     0.89225   0.83335   0.17451   0.00000  Uiso   1.00
O630   O     0.89443   0.70829   0.29826   0.00000  Uiso   1.00
C631   C     0.16654   0.24592   0.75021   0.00000  Uiso   1.00
C632   C     0.12744   0.15578   0.90614   0.00000  Uiso   1.00
C633   C     0.19860   0.31138   0.77216   0.00000  Uiso   1.00
C634   C     0.14112   0.16282   0.84966   0.00000  Uiso   1.00
C635   C     0.19968   0.02097   0.77217   0.00000  Uiso   1.00
C636   C     0.16670   0.04267   0.75178   0.00000  Uiso   1.00
C637   C     0.13385   0.02143   0.73136   0.00000  Uiso   1.00
C638   C     0.13368   0.31213   0.73087   0.00000  Uiso   1.00
C639   C     0.16633   0.29045   0.75087   0.00000  Uiso   1.00
C640   C     0.29896   0.19063   0.78418   0.00000  Uiso   1.00
C641   C     0.01523   0.19056   0.78423   0.00000  Uiso   1.00
C642   C     0.14647   0.15977   0.98917   0.00000  Uiso   1.00
C643   C     0.03439   0.14276   0.71573   0.00000  Uiso   1.00
C644   C     0.31813   0.14287   0.71564   0.00000  Uiso   1.00
C645   C     0.16654   0.08736   0.75091   0.00000  Uiso   1.00
C646   C     0.19264   0.16732   0.65036   0.00000  Uiso   1.00
C647   C     0.26649   0.18321   0.51248   0.00000  Uiso   1.00
C648   C     0.20714   0.16950   0.59428   0.00000  Uiso   1.00
C649   C     0.07780   0.15107   0.93290   0.00000  Uiso   1.00
C650   C     0.06226   0.15171   0.98638   0.00000  Uiso   1.00
C651   C     0.09496   0.16028   0.51440   0.00000  Uiso   1.00
C652   C     0.27795   0.03730   0.77091   0.00000  Uiso   1.00
C653   C     0.16269   0.15570   0.93439   0.00000  Uiso   1.00
C654   C     0.30830   0.05935   0.80062   0.00000  Uiso   1.00
C655   C     0.06845   0.21385   0.56971   0.00000  Uiso   1.00
C656   C     0.04761   0.22605   0.62622   0.00000  Uiso   1.00
C657   C     0.18265   0.16446   0.51567   0.00000  Uiso   1.00
C658   C     0.23209   0.17186   0.98731   0.00000  Uiso   1.00
C659   C     0.24747   0.16427   0.93470   0.00000  Uiso   1.00
C660   C     0.21379   0.15221   0.90993   0.00000  Uiso   1.00
C661   C     0.17224   0.16004   0.56906   0.00000  Uiso   1.00
C662   C     0.25396   0.18241   0.56605   0.00000  Uiso   1.00
Cu663  Cu    0.11978   0.16666   0.75000   0.00000  Uiso   1.00
Cu664  Cu    0.21355   0.16667   0.75000   0.00000  Uiso   1.00
H665   H     0.28097   0.19094   0.58518   0.00000  Uiso   1.00
H666   H     0.13815   0.14690   0.59153   0.00000  Uiso   1.00
H667   H     0.05050   0.14828   0.91248   0.00000  Uiso   1.00
H668   H     0.02386   0.14833   0.50658   0.00000  Uiso   1.00
H669   H     0.22941   0.13922   0.87205   0.00000  Uiso   1.00
H670   H     0.22200   0.29439   0.79004   0.00000  Uiso   1.00
H671   H     0.28580   0.05137   0.73192   0.00000  Uiso   1.00
H672   H     0.28970   0.00440   0.76663   0.00000  Uiso   1.00
H673   H     0.30330   0.04426   0.83853   0.00000  Uiso   1.00
H674   H     0.01437   0.05805   0.77831   0.00000  Uiso   1.00
H675   H     0.29665   0.09210   0.80735   0.00000  Uiso   1.00
H676   H     0.10864   0.03781   0.71523   0.00000  Uiso   1.00
H677   H     0.04219   0.22415   0.54881   0.00000  Uiso   1.00
H678   H     0.10397   0.23013   0.55383   0.00000  Uiso   1.00
H679   H     0.07304   0.21635   0.64818   0.00000  Uiso   1.00
H680   H     0.01147   0.21122   0.64291   0.00000  Uiso   1.00
H681   H     0.04272   0.26002   0.62964   0.00000  Uiso   1.00
H682   H     0.10846   0.29614   0.71441   0.00000  Uiso   1.00
H683   H     0.27262   0.20986   0.81155   0.00000  Uiso   1.00
H684   H     0.02626   0.20971   0.81164   0.00000  Uiso   1.00
H685   H     0.06074   0.12356   0.68833   0.00000  Uiso   1.00
H686   H     0.30712   0.12381   0.68814   0.00000  Uiso   1.00
H687   H     0.28608   0.16482   0.91333   0.00000  Uiso   1.00
H688   H     0.30304   0.19228   0.99047   0.00000  Uiso   1.00
N689   N     0.04931   0.16666   0.74999   0.00000  Uiso   1.00
N690   N     0.28402   0.16669   0.74999   0.00000  Uiso   1.00
O691   O     0.12708   0.22678   0.75001   0.00000  Uiso   1.00
O692   O     0.07510   0.17065   0.56586   0.00000  Uiso   1.00
O693   O     0.20627   0.22679   0.75001   0.00000  Uiso   1.00
O694   O     0.10775   0.16665   0.82549   0.00000  Uiso   1.00
O695   O     0.18694   0.16666   0.82549   0.00000  Uiso   1.00
O696   O     0.12706   0.10654   0.74999   0.00000  Uiso   1.00
O697   O     0.20625   0.10655   0.74999   0.00000  Uiso   1.00
O698   O     0.14640   0.16667   0.67451   0.00000  Uiso   1.00
O699   O     0.22559   0.16668   0.67451   0.00000  Uiso   1.00
O700   O     0.22776   0.04162   0.79826   0.00000  Uiso   1.00
C701   C     0.49988   0.24592   0.75021   0.00000  Uiso   1.00
C702   C     0.46078   0.15578   0.90614   0.00000  Uiso   1.00
C703   C     0.53193   0.31138   0.77216   0.00000  Uiso   1.00
C704   C     0.47446   0.16282   0.84966   0.00000  Uiso   1.00
C705   C     0.53302   0.02097   0.77217   0.00000  Uiso   1.00
C706   C     0.50003   0.04267   0.75178   0.00000  Uiso   1.00
C707   C     0.46718   0.02143   0.73136   0.00000  Uiso   1.00
C708   C     0.46701   0.31213   0.73087   0.00000  Uiso   1.00
C709   C     0.49966   0.29045   0.75087   0.00000  Uiso   1.00
C710   C     0.63230   0.19063   0.78418   0.00000  Uiso   1.00
C711   C     0.34856   0.19056   0.78423   0.00000  Uiso   1.00
C712   C     0.47980   0.15977   0.98917   0.00000  Uiso   1.00
C713   C     0.36772   0.14276   0.71573   0.00000  Uiso   1.00
C714   C     0.65146   0.14287   0.71564   0.00000  Uiso   1.00
C715   C     0.49988   0.08736   0.75091   0.00000  Uiso   1.00
C716   C     0.52598   0.16732   0.65036   0.00000  Uiso   1.00
C717   C     0.59982   0.18321   0.51248   0.00000  Uiso   1.00
C718   C     0.54047   0.16950   0.59428   0.00000  Uiso   1.00
C719   C     0.41114   0.15107   0.93290   0.00000  Uiso   1.00
C720   C     0.39559   0.15171   0.98638   0.00000  Uiso   1.00
C721   C     0.42829   0.16028   0.51440   0.00000  Uiso   1.00
C722   C     0.61128   0.03730   0.77091   0.00000  Uiso   1.00
C723   C     0.49603   0.15570   0.93439   0.00000  Uiso   1.00
C724   C     0.64163   0.05935   0.80062   0.00000  Uiso   1.00
C725   C     0.40178   0.21385   0.56971   0.00000  Uiso   1.00
C726   C     0.38094   0.22605   0.62622   0.00000  Uiso   1.00
C727   C     0.51598   0.16446   0.51567   0.00000  Uiso   1.00
C728   C     0.56542   0.17186   0.98731   0.00000  Uiso   1.00
C729   C     0.58080   0.16427   0.93470   0.00000  Uiso   1.00
C730   C     0.54712   0.15221   0.90993   0.00000  Uiso   1.00
C731   C     0.50558   0.16004   0.56906   0.00000  Uiso   1.00
C732   C     0.58730   0.18241   0.56605   0.00000  Uiso   1.00
Cu733  Cu    0.45311   0.16666   0.75000   0.00000  Uiso   1.00
Cu734  Cu    0.54689   0.16667   0.75000   0.00000  Uiso   1.00
H735   H     0.61431   0.19094   0.58518   0.00000  Uiso   1.00
H736   H     0.47148   0.14690   0.59153   0.00000  Uiso   1.00
H737   H     0.38384   0.14828   0.91248   0.00000  Uiso   1.00
H738   H     0.35719   0.14833   0.50658   0.00000  Uiso   1.00
H739   H     0.56275   0.13922   0.87205   0.00000  Uiso   1.00
H740   H     0.55533   0.29439   0.79004   0.00000  Uiso   1.00
H741   H     0.61913   0.05137   0.73192   0.00000  Uiso   1.00
H742   H     0.62303   0.00440   0.76663   0.00000  Uiso   1.00
H743   H     0.63663   0.04426   0.83853   0.00000  Uiso   1.00
H744   H     0.34771   0.05805   0.77831   0.00000  Uiso   1.00
H745   H     0.62999   0.09210   0.80735   0.00000  Uiso   1.00
H746   H     0.44197   0.03781   0.71523   0.00000  Uiso   1.00
H747   H     0.37553   0.22415   0.54881   0.00000  Uiso   1.00
H748   H     0.43731   0.23013   0.55383   0.00000  Uiso   1.00
H749   H     0.40637   0.21635   0.64818   0.00000  Uiso   1.00
H750   H     0.34480   0.21122   0.64291   0.00000  Uiso   1.00
H751   H     0.37606   0.26002   0.62964   0.00000  Uiso   1.00
H752   H     0.44179   0.29614   0.71441   0.00000  Uiso   1.00
H753   H     0.60595   0.20986   0.81155   0.00000  Uiso   1.00
H754   H     0.35959   0.20971   0.81164   0.00000  Uiso   1.00
H755   H     0.39407   0.12356   0.68833   0.00000  Uiso   1.00
H756   H     0.64045   0.12381   0.68814   0.00000  Uiso   1.00
H757   H     0.61942   0.16482   0.91333   0.00000  Uiso   1.00
H758   H     0.63638   0.19228   0.99047   0.00000  Uiso   1.00
N759   N     0.38265   0.16666   0.74999   0.00000  Uiso   1.00
N760   N     0.61735   0.16669   0.74999   0.00000  Uiso   1.00
O761   O     0.46042   0.22678   0.75001   0.00000  Uiso   1.00
O762   O     0.40844   0.17065   0.56586   0.00000  Uiso   1.00
O763   O     0.53961   0.22679   0.75001   0.00000  Uiso   1.00
O764   O     0.44108   0.16665   0.82549   0.00000  Uiso   1.00
O765   O     0.52027   0.16666   0.82549   0.00000  Uiso   1.00
O766   O     0.46039   0.10654   0.74999   0.00000  Uiso   1.00
O767   O     0.53958   0.10655   0.74999   0.00000  Uiso   1.00
O768   O     0.47973   0.16667   0.67451   0.00000  Uiso   1.00
O769   O     0.55892   0.16668   0.67451   0.00000  Uiso   1.00
O770   O     0.56110   0.04162   0.79826   0.00000  Uiso   1.00
C771   C     0.83321   0.24592   0.75021   0.00000  Uiso   1.00
C772   C     0.79411   0.15578   0.90614   0.00000  Uiso   1.00
C773   C     0.86526   0.31138   0.77216   0.00000  Uiso   1.00
C774   C     0.80779   0.16282   0.84966   0.00000  Uiso   1.00
C775   C     0.86635   0.02097   0.77217   0.00000  Uiso   1.00
C776   C     0.83337   0.04267   0.75178   0.00000  Uiso   1.00
C777   C     0.80051   0.02143   0.73136   0.00000  Uiso   1.00
C778   C     0.80035   0.31213   0.73087   0.00000  Uiso   1.00
C779   C     0.83300   0.29045   0.75087   0.00000  Uiso   1.00
C780   C     0.96563   0.19063   0.78418   0.00000  Uiso   1.00
C781   C     0.68189   0.19056   0.78423   0.00000  Uiso   1.00
C782   C     0.81313   0.15977   0.98917   0.00000  Uiso   1.00
C783   C     0.70106   0.14276   0.71573   0.00000  Uiso   1.00
C784   C     0.98480   0.14287   0.71564   0.00000  Uiso   1.00
C785   C     0.83321   0.08736   0.75091   0.00000  Uiso   1.00
C786   C     0.85931   0.16732   0.65036   0.00000  Uiso   1.00
C787   C     0.93316   0.18321   0.51248   0.00000  Uiso   1.00
C788   C     0.87380   0.16950   0.59428   0.00000  Uiso   1.00
C789   C     0.74447   0.15107   0.93290   0.00000  Uiso   1.00
C790   C     0.72893   0.15171   0.98638   0.00000  Uiso   1.00
C791   C     0.76162   0.16028   0.51440   0.00000  Uiso   1.00
C792   C     0.94462   0.03730   0.77091   0.00000  Uiso   1.00
C793   C     0.82936   0.15570   0.93439   0.00000  Uiso   1.00
C794   C     0.97497   0.05935   0.80062   0.00000  Uiso   1.00
C795   C     0.73512   0.21385   0.56971   0.00000  Uiso   1.00
C796   C     0.71427   0.22605   0.62622   0.00000  Uiso   1.00
C797   C     0.84931   0.16446   0.51567   0.00000  Uiso   1.00
C798   C     0.89875   0.17186   0.98731   0.00000  Uiso   1.00
C799   C     0.91414   0.16427   0.93470   0.00000  Uiso   1.00
C800   C     0.88046   0.15221   0.90993   0.00000  Uiso   1.00
C801   C     0.83891   0.16004   0.56906   0.00000  Uiso   1.00
C802   C     0.92063   0.18241   0.56605   0.00000  Uiso   1.00
Cu803  Cu    0.78645   0.16666   0.75000   0.00000  Uiso   1.00
Cu804  Cu    0.88022   0.16667   0.75000   0.00000  Uiso   1.00
H805   H     0.94764   0.19094   0.58518   0.00000  Uiso   1.00
H806   H     0.80481   0.14690   0.59153   0.00000  Uiso   1.00
H807   H     0.71717   0.14828   0.91248   0.00000  Uiso   1.00
H808   H     0.69052   0.14833   0.50658   0.00000  Uiso   1.00
H809   H     0.89608   0.13922   0.87205   0.00000  Uiso   1.00
H810   H     0.88867   0.29439   0.79004   0.00000  Uiso   1.00
H811   H     0.95246   0.05137   0.73192   0.00000  Uiso   1.00
H812   H     0.95637   0.00440   0.76663   0.00000  Uiso   1.00
H813   H     0.96996   0.04426   0.83853   0.00000  Uiso   1.00
H814   H     0.68104   0.05805   0.77831   0.00000  Uiso   1.00
H815   H     0.96332   0.09210   0.80735   0.00000  Uiso   1.00
H816   H     0.77531   0.03781   0.71523   0.00000  Uiso   1.00
H817   H     0.70886   0.22415   0.54881   0.00000  Uiso   1.00
H818   H     0.77064   0.23013   0.55383   0.00000  Uiso   1.00
H819   H     0.73970   0.21635   0.64818   0.00000  Uiso   1.00
H820   H     0.67814   0.21122   0.64291   0.00000  Uiso   1.00
H821   H     0.70939   0.26002   0.62964   0.00000  Uiso   1.00
H822   H     0.77512   0.29614   0.71441   0.00000  Uiso   1.00
H823   H     0.93929   0.20986   0.81155   0.00000  Uiso   1.00
H824   H     0.69293   0.20971   0.81164   0.00000  Uiso   1.00
H825   H     0.72740   0.12356   0.68833   0.00000  Uiso   1.00
H826   H     0.97379   0.12381   0.68814   0.00000  Uiso   1.00
H827   H     0.95275   0.16482   0.91333   0.00000  Uiso   1.00
H828   H     0.96971   0.19228   0.99047   0.00000  Uiso   1.00
N829   N     0.71598   0.16666   0.74999   0.00000  Uiso   1.00
N830   N     0.95069   0.16669   0.74999   0.00000  Uiso   1.00
O831   O     0.79375   0.22678   0.75001   0.00000  Uiso   1.00
O832   O     0.74177   0.17065   0.56586   0.00000  Uiso   1.00
O833   O     0.87294   0.22679   0.75001   0.00000  Uiso   1.00
O834   O     0.77441   0.16665   0.82549   0.00000  Uiso   1.00
O835   O     0.85360   0.16666   0.82549   0.00000  Uiso   1.00
O836   O     0.79373   0.10654   0.74999   0.00000  Uiso   1.00
O837   O     0.87292   0.10655   0.74999   0.00000  Uiso   1.00
O838   O     0.81306   0.16667   0.67451   0.00000  Uiso   1.00
O839   O     0.89225   0.16668   0.67451   0.00000  Uiso   1.00
O840   O     0.89443   0.04162   0.79826   0.00000  Uiso   1.00
C841   C     0.16654   0.57925   0.75021   0.00000  Uiso   1.00
C842   C     0.12744   0.48911   0.90614   0.00000  Uiso   1.00
C843   C     0.19860   0.64471   0.77216   0.00000  Uiso   1.00
C844   C     0.14112   0.49615   0.84966   0.00000  Uiso   1.00
C845   C     0.19968   0.35431   0.77217   0.00000  Uiso   1.00
C846   C     0.16670   0.37600   0.75178   0.00000  Uiso   1.00
C847   C     0.13385   0.35476   0.73136   0.00000  Uiso   1.00
C848   C     0.13368   0.64546   0.73087   0.00000  Uiso   1.00
C849   C     0.16633   0.62378   0.75087   0.00000  Uiso   1.00
C850   C     0.29896   0.52396   0.78418   0.00000  Uiso   1.00
C851   C     0.01523   0.52390   0.78423   0.00000  Uiso   1.00
C852   C     0.14647   0.49311   0.98917   0.00000  Uiso   1.00
C853   C     0.03439   0.47610   0.71573   0.00000  Uiso   1.00
C854   C     0.31813   0.47621   0.71564   0.00000  Uiso   1.00
C855   C     0.16654   0.42069   0.75091   0.00000  Uiso   1.00
C856   C     0.19264   0.50066   0.65036   0.00000  Uiso   1.00
C857   C     0.26649   0.51655   0.51248   0.00000  Uiso   1.00
C858   C     0.20714   0.50283   0.59428   0.00000  Uiso   1.00
C859   C     0.07780   0.48440   0.93290   0.00000  Uiso   1.00
C860   C     0.06226   0.48504   0.98638   0.00000  Uiso   1.00
C861   C     0.09496   0.49361   0.51440   0.00000  Uiso   1.00
C862   C     0.27795   0.37063   0.77091   0.00000  Uiso   1.00
C863   C     0.16269   0.48904   0.93439   0.00000  Uiso   1.00
C864   C     0.30830   0.39268   0.80062   0.00000  Uiso   1.00
C865   C     0.06845   0.54718   0.56971   0.00000  Uiso   1.00
C866   C     0.04761   0.55939   0.62622   0.00000  Uiso   1.00
C867   C     0.18265   0.49779   0.51567   0.00000  Uiso   1.00
C868   C     0.23209   0.50519   0.98731   0.00000  Uiso   1.00
C869   C     0.24747   0.49760   0.93470   0.00000  Uiso   1.00
C870   C     0.21379   0.48554   0.90993   0.00000  Uiso   1.00
C871   C     0.17224   0.49338   0.56906   0.00000  Uiso   1.00
C872   C     0.25396   0.51574   0.56605   0.00000  Uiso   1.00
Cu873  Cu    0.11978   0.49999   0.75000   0.00000  Uiso   1.00
Cu874  Cu    0.21355   0.50001   0.75000   0.00000  Uiso   1.00
H875   H     0.28097   0.52427   0.58518   0.00000  Uiso   1.00
H876   H     0.13815   0.48023   0.59153   0.00000  Uiso   1.00
H877   H     0.05050   0.48161   0.91248   0.00000  Uiso   1.00
H878   H     0.02386   0.48166   0.50658   0.00000  Uiso   1.00
H879   H     0.22941   0.47255   0.87205   0.00000  Uiso   1.00
H880   H     0.22200   0.62772   0.79004   0.00000  Uiso   1.00
H881   H     0.28580   0.38471   0.73192   0.00000  Uiso   1.00
H882   H     0.28970   0.33773   0.76663   0.00000  Uiso   1.00
H883   H     0.30330   0.37760   0.83853   0.00000  Uiso   1.00
H884   H     0.01437   0.39139   0.77831   0.00000  Uiso   1.00
H885   H     0.29665   0.42543   0.80735   0.00000  Uiso   1.00
H886   H     0.10864   0.37115   0.71523   0.00000  Uiso   1.00
H887   H     0.04219   0.55748   0.54881   0.00000  Uiso   1.00
H888   H     0.10397   0.56346   0.55383   0.00000  Uiso   1.00
H889   H     0.07304   0.54969   0.64818   0.00000  Uiso   1.00
H890   H     0.01147   0.54455   0.64291   0.00000  Uiso   1.00
H891   H     0.04272   0.59336   0.62964   0.00000  Uiso   1.00
H892   H     0.10846   0.62947   0.71441   0.00000  Uiso   1.00
H893   H     0.27262   0.54319   0.81155   0.00000  Uiso   1.00
H894   H     0.02626   0.54304   0.81164   0.00000  Uiso   1.00
H895   H     0.06074   0.45689   0.68833   0.00000  Uiso   1.00
H896   H     0.30712   0.45715   0.68814   0.00000  Uiso   1.00
H897   H     0.28608   0.49815   0.91333   0.00000  Uiso   1.00
H898   H     0.30304   0.52561   0.99047   0.00000  Uiso   1.00
N899   N     0.04931   0.49999   0.74999   0.00000  Uiso   1.00
N900   N     0.28402   0.50002   0.74999   0.00000  Uiso   1.00
O901   O     0.12708   0.56011   0.75001   0.00000  Uiso   1.00
O902   O     0.07510   0.50398   0.56586   0.00000  Uiso   1.00
O903   O     0.20627   0.56012   0.75001   0.00000  Uiso   1.00
O904   O     0.10775   0.49998   0.82549   0.00000  Uiso   1.00
O905   O     0.18694   0.49999   0.82549   0.00000  Uiso   1.00
O906   O     0.12706   0.43988   0.74999   0.00000  Uiso   1.00
O907   O     0.20625   0.43989   0.74999   0.00000  Uiso   1.00
O908   O     0.14640   0.50001   0.67451   0.00000  Uiso   1.00
O909   O     0.22559   0.50002   0.67451   0.00000  Uiso   1.00
O910   O     0.22776   0.37495   0.79826   0.00000  Uiso   1.00
C911   C     0.49988   0.57925   0.75021   0.00000  Uiso   1.00
C912   C     0.46078   0.48911   0.90614   0.00000  Uiso   1.00
C913   C     0.53193   0.64471   0.77216   0.00000  Uiso   1.00
C914   C     0.47446   0.49615   0.84966   0.00000  Uiso   1.00
C915   C     0.53302   0.35431   0.77217   0.00000  Uiso   1.00
C916   C     0.50003   0.37600   0.75178   0.00000  Uiso   1.00
C917   C     0.46718   0.35476   0.73136   0.00000  Uiso   1.00
C918   C     0.46701   0.64546   0.73087   0.00000  Uiso   1.00
C919   C     0.49966   0.62378   0.75087   0.00000  Uiso   1.00
C920   C     0.63230   0.52396   0.78418   0.00000  Uiso   1.00
C921   C     0.34856   0.52390   0.78423   0.00000  Uiso   1.00
C922   C     0.47980   0.49311   0.98917   0.00000  Uiso   1.00
C923   C     0.36772   0.47610   0.71573   0.00000  Uiso   1.00
C924   C     0.65146   0.47621   0.71564   0.00000  Uiso   1.00
C925   C     0.49988   0.42069   0.75091   0.00000  Uiso   1.00
C926   C     0.52598   0.50066   0.65036   0.00000  Uiso   1.00
C927   C     0.59982   0.51655   0.51248   0.00000  Uiso   1.00
C928   C     0.54047   0.50283   0.59428   0.00000  Uiso   1.00
C929   C     0.41114   0.48440   0.93290   0.00000  Uiso   1.00
C930   C     0.39559   0.48504   0.98638   0.00000  Uiso   1.00
C931   C     0.42829   0.49361   0.51440   0.00000  Uiso   1.00
C932   C     0.61128   0.37063   0.77091   0.00000  Uiso   1.00
C933   C     0.49603   0.48904   0.93439   0.00000  Uiso   1.00
C934   C     0.64163   0.39268   0.80062   0.00000  Uiso   1.00
C935   C     0.40178   0.54718   0.56971   0.00000  Uiso   1.00
C936   C     0.38094   0.55939   0.62622   0.00000  Uiso   1.00
C937   C     0.51598   0.49779   0.51567   0.00000  Uiso   1.00
C938   C     0.56542   0.50519   0.98731   0.00000  Uiso   1.00
C939   C     0.58080   0.49760   0.93470   0.00000  Uiso   1.00
C940   C     0.54712   0.48554   0.90993   0.00000  Uiso   1.00
C941   C     0.50558   0.49338   0.56906   0.00000  Uiso   1.00
C942   C     0.58730   0.51574   0.56605   0.00000  Uiso   1.00
Cu943  Cu    0.45311   0.49999   0.75000   0.00000  Uiso   1.00
Cu944  Cu    0.54689   0.50001   0.75000   0.00000  Uiso   1.00
H945   H     0.61431   0.52427   0.58518   0.00000  Uiso   1.00
H946   H     0.47148   0.48023   0.59153   0.00000  Uiso   1.00
H947   H     0.38384   0.48161   0.91248   0.00000  Uiso   1.00
H948   H     0.35719   0.48166   0.50658   0.00000  Uiso   1.00
H949   H     0.56275   0.47255   0.87205   0.00000  Uiso   1.00
H950   H     0.55533   0.62772   0.79004   0.00000  Uiso   1.00
H951   H     0.61913   0.38471   0.73192   0.00000  Uiso   1.00
H952   H     0.62303   0.33773   0.76663   0.00000  Uiso   1.00
H953   H     0.63663   0.37760   0.83853   0.00000  Uiso   1.00
H954   H     0.34771   0.39139   0.77831   0.00000  Uiso   1.00
H955   H     0.62999   0.42543   0.80735   0.00000  Uiso   1.00
H956   H     0.44197   0.37115   0.71523   0.00000  Uiso   1.00
H957   H     0.37553   0.55748   0.54881   0.00000  Uiso   1.00
H958   H     0.43731   0.56346   0.55383   0.00000  Uiso   1.00
H959   H     0.40637   0.54969   0.64818   0.00000  Uiso   1.00
H960   H     0.34480   0.54455   0.64291   0.00000  Uiso   1.00
H961   H     0.37606   0.59336   0.62964   0.00000  Uiso   1.00
H962   H     0.44179   0.62947   0.71441   0.00000  Uiso   1.00
H963   H     0.60595   0.54319   0.81155   0.00000  Uiso   1.00
H964   H     0.35959   0.54304   0.81164   0.00000  Uiso   1.00
H965   H     0.39407   0.45689   0.68833   0.00000  Uiso   1.00
H966   H     0.64045   0.45715   0.68814   0.00000  Uiso   1.00
H967   H     0.61942   0.49815   0.91333   0.00000  Uiso   1.00
H968   H     0.63638   0.52561   0.99047   0.00000  Uiso   1.00
N969   N     0.38265   0.49999   0.74999   0.00000  Uiso   1.00
N970   N     0.61735   0.50002   0.74999   0.00000  Uiso   1.00
O971   O     0.46042   0.56011   0.75001   0.00000  Uiso   1.00
O972   O     0.40844   0.50398   0.56586   0.00000  Uiso   1.00
O973   O     0.53961   0.56012   0.75001   0.00000  Uiso   1.00
O974   O     0.44108   0.49998   0.82549   0.00000  Uiso   1.00
O975   O     0.52027   0.49999   0.82549   0.00000  Uiso   1.00
O976   O     0.46039   0.43988   0.74999   0.00000  Uiso   1.00
O977   O     0.53958   0.43989   0.74999   0.00000  Uiso   1.00
O978   O     0.47973   0.50001   0.67451   0.00000  Uiso   1.00
O979   O     0.55892   0.50002   0.67451   0.00000  Uiso   1.00
O980   O     0.56110   0.37495   0.79826   0.00000  Uiso   1.00
C981   C     0.83321   0.57925   0.75021   0.00000  Uiso   1.00
C982   C     0.79411   0.48911   0.90614   0.00000  Uiso   1.00
C983   C     0.86526   0.64471   0.77216   0.00000  Uiso   1.00
C984   C     0.80779   0.49615   0.84966   0.00000  Uiso   1.00
C985   C     0.86635   0.35431   0.77217   0.00000  Uiso   1.00
C986   C     0.83337   0.37600   0.75178   0.00000  Uiso   1.00
C987   C     0.80051   0.35476   0.73136   0.00000  Uiso   1.00
C988   C     0.80035   0.64546   0.73087   0.00000  Uiso   1.00
C989   C     0.83300   0.62378   0.75087   0.00000  Uiso   1.00
C990   C     0.96563   0.52396   0.78418   0.00000  Uiso   1.00
C991   C     0.68189   0.52390   0.78423   0.00000  Uiso   1.00
C992   C     0.81313   0.49311   0.98917   0.00000  Uiso   1.00
C993   C     0.70106   0.47610   0.71573   0.00000  Uiso   1.00
C994   C     0.98480   0.47621   0.71564   0.00000  Uiso   1.00
C995   C     0.83321   0.42069   0.75091   0.00000  Uiso   1.00
C996   C     0.85931   0.50066   0.65036   0.00000  Uiso   1.00
C997   C     0.93316   0.51655   0.51248   0.00000  Uiso   1.00
C998   C     0.87380   0.50283   0.59428   0.00000  Uiso   1.00
C999   C     0.74447   0.48440   0.93290   0.00000  Uiso   1.00
C1000  C     0.72893   0.48504   0.98638   0.00000  Uiso   1.00
C1001  C     0.76162   0.49361   0.51440   0.00000  Uiso   1.00
C1002  C     0.94462   0.37063   0.77091   0.00000  Uiso   1.00
C1003  C     0.82936   0.48904   0.93439   0.00000  Uiso   1.00
C1004  C     0.97497   0.39268   0.80062   0.00000  Uiso   1.00
C1005  C     0.73512   0.54718   0.56971   0.00000  Uiso   1.00
C1006  C     0.71427   0.55939   0.62622   0.00000  Uiso   1.00
C1007  C     0.84931   0.49779   0.51567   0.00000  Uiso   1.00
C1008  C     0.89875   0.50519   0.98731   0.00000  Uiso   1.00
C1009  C     0.91414   0.49760   0.93470   0.00000  Uiso   1.00
C1010  C     0.88046   0.48554   0.90993   0.00000  Uiso   1.00
C1011  C     0.83891   0.49338   0.56906   0.00000  Uiso   1.00
C1012  C     0.92063   0.51574   0.56605   0.00000  Uiso   1.00
Cu1013 Cu    0.78645   0.49999   0.75000   0.00000  Uiso   1.00
Cu1014 Cu    0.88022   0.50001   0.75000   0.00000  Uiso   1.00
H1015  H     0.94764   0.52427   0.58518   0.00000  Uiso   1.00
H1016  H     0.80481   0.48023   0.59153   0.00000  Uiso   1.00
H1017  H     0.71717   0.48161   0.91248   0.00000  Uiso   1.00
H1018  H     0.69052   0.48166   0.50658   0.00000  Uiso   1.00
H1019  H     0.89608   0.47255   0.87205   0.00000  Uiso   1.00
H1020  H     0.88867   0.62772   0.79004   0.00000  Uiso   1.00
H1021  H     0.95246   0.38471   0.73192   0.00000  Uiso   1.00
H1022  H     0.95637   0.33773   0.76663   0.00000  Uiso   1.00
H1023  H     0.96996   0.37760   0.83853   0.00000  Uiso   1.00
H1024  H     0.68104   0.39139   0.77831   0.00000  Uiso   1.00
H1025  H     0.96332   0.42543   0.80735   0.00000  Uiso   1.00
H1026  H     0.77531   0.37115   0.71523   0.00000  Uiso   1.00
H1027  H     0.70886   0.55748   0.54881   0.00000  Uiso   1.00
H1028  H     0.77064   0.56346   0.55383   0.00000  Uiso   1.00
H1029  H     0.73970   0.54969   0.64818   0.00000  Uiso   1.00
H1030  H     0.67814   0.54455   0.64291   0.00000  Uiso   1.00
H1031  H     0.70939   0.59336   0.62964   0.00000  Uiso   1.00
H1032  H     0.77512   0.62947   0.71441   0.00000  Uiso   1.00
H1033  H     0.93929   0.54319   0.81155   0.00000  Uiso   1.00
H1034  H     0.69293   0.54304   0.81164   0.00000  Uiso   1.00
H1035  H     0.72740   0.45689   0.68833   0.00000  Uiso   1.00
H1036  H     0.97379   0.45715   0.68814   0.00000  Uiso   1.00
H1037  H     0.95275   0.49815   0.91333   0.00000  Uiso   1.00
H1038  H     0.96971   0.52561   0.99047   0.00000  Uiso   1.00
N1039  N     0.71598   0.49999   0.74999   0.00000  Uiso   1.00
N1040  N     0.95069   0.50002   0.74999   0.00000  Uiso   1.00
O1041  O     0.79375   0.56011   0.75001   0.00000  Uiso   1.00
O1042  O     0.74177   0.50398   0.56586   0.00000  Uiso   1.00
O1043  O     0.87294   0.56012   0.75001   0.00000  Uiso   1.00
O1044  O     0.77441   0.49998   0.82549   0.00000  Uiso   1.00
O1045  O     0.85360   0.49999   0.82549   0.00000  Uiso   1.00
O1046  O     0.79373   0.43988   0.74999   0.00000  Uiso   1.00
O1047  O     0.87292   0.43989   0.74999   0.00000  Uiso   1.00
O1048  O     0.81306   0.50001   0.67451   0.00000  Uiso   1.00
O1049  O     0.89225   0.50002   0.67451   0.00000  Uiso   1.00
O1050  O     0.89443   0.37495   0.79826   0.00000  Uiso   1.00
C1051  C     0.16654   0.91259   0.75021   0.00000  Uiso   1.00
C1052  C     0.12744   0.82245   0.90614   0.00000  Uiso   1.00
C1053  C     0.19860   0.97804   0.77216   0.00000  Uiso   1.00
C1054  C     0.14112   0.82949   0.84966   0.00000  Uiso   1.00
C1055  C     0.19968   0.68764   0.77217   0.00000  Uiso   1.00
C1056  C     0.16670   0.70933   0.75178   0.00000  Uiso   1.00
C1057  C     0.13385   0.68810   0.73136   0.00000  Uiso   1.00
C1058  C     0.13368   0.97880   0.73087   0.00000  Uiso   1.00
C1059  C     0.16633   0.95711   0.75087   0.00000  Uiso   1.00
C1060  C     0.29896   0.85730   0.78418   0.00000  Uiso   1.00
C1061  C     0.01523   0.85723   0.78423   0.00000  Uiso   1.00
C1062  C     0.14647   0.82644   0.98917   0.00000  Uiso   1.00
C1063  C     0.03439   0.80943   0.71573   0.00000  Uiso   1.00
C1064  C     0.31813   0.80954   0.71564   0.00000  Uiso   1.00
C1065  C     0.16654   0.75402   0.75091   0.00000  Uiso   1.00
C1066  C     0.19264   0.83399   0.65036   0.00000  Uiso   1.00
C1067  C     0.26649   0.84988   0.51248   0.00000  Uiso   1.00
C1068  C     0.20714   0.83616   0.59428   0.00000  Uiso   1.00
C1069  C     0.07780   0.81774   0.93290   0.00000  Uiso   1.00
C1070  C     0.06226   0.81837   0.98638   0.00000  Uiso   1.00
C1071  C     0.09496   0.82695   0.51440   0.00000  Uiso   1.00
C1072  C     0.27795   0.70397   0.77091   0.00000  Uiso   1.00
C1073  C     0.16269   0.82237   0.93439   0.00000  Uiso   1.00
C1074  C     0.30830   0.72601   0.80062   0.00000  Uiso   1.00
C1075  C     0.06845   0.88051   0.56971   0.00000  Uiso   1.00
C1076  C     0.04761   0.89272   0.62622   0.00000  Uiso   1.00
C1077  C     0.18265   0.83112   0.51567   0.00000  Uiso   1.00
C1078  C     0.23209   0.83852   0.98731   0.00000  Uiso   1.00
C1079  C     0.24747   0.83094   0.93470   0.00000  Uiso   1.00
C1080  C     0.21379   0.81888   0.90993   0.00000  Uiso   1.00
C1081  C     0.17224   0.82671   0.56906   0.00000  Uiso   1.00
C1082  C     0.25396   0.84907   0.56605   0.00000  Uiso   1.00
Cu1083 Cu    0.11978   0.83333   0.75000   0.00000  Uiso   1.00
Cu1084 Cu    0.21355   0.83334   0.75000   0.00000  Uiso   1.00
H1085  H     0.28097   0.85761   0.58518   0.00000  Uiso   1.00
H1086  H     0.13815   0.81356   0.59153   0.00000  Uiso   1.00
H1087  H     0.05050   0.81494   0.91248   0.00000  Uiso   1.00
H1088  H     0.02386   0.81499   0.50658   0.00000  Uiso   1.00
H1089  H     0.22941   0.80588   0.87205   0.00000  Uiso   1.00
H1090  H     0.22200   0.96105   0.79004   0.00000  Uiso   1.00
H1091  H     0.28580   0.71804   0.73192   0.00000  Uiso   1.00
H1092  H     0.28970   0.67106   0.76663   0.00000  Uiso   1.00
H1093  H     0.30330   0.71093   0.83853   0.00000  Uiso   1.00
H1094  H     0.01437   0.72472   0.77831   0.00000  Uiso   1.00
H1095  H     0.29665   0.75876   0.80735   0.00000  Uiso   1.00
H1096  H     0.10864   0.70448   0.71523   0.00000  Uiso   1.00
H1097  H     0.04219   0.89081   0.54881   0.00000  Uiso   1.00
H1098  H     0.10397   0.89679   0.55383   0.00000  Uiso   1.00
H1099  H     0.07304   0.88302   0.64818   0.00000  Uiso   1.00
H1100  H     0.01147   0.87788   0.64291   0.00000  Uiso   1.00
H1101  H     0.04272   0.92669   0.62964   0.00000  Uiso   1.00
H1102  H     0.10846   0.96280   0.71441   0.00000  Uiso   1.00
H1103  H     0.27262   0.87653   0.81155   0.00000  Uiso   1.00
H1104  H     0.02626   0.87638   0.81164   0.00000  Uiso   1.00
H1105  H     0.06074   0.79023   0.68833   0.00000  Uiso   1.00
H1106  H     0.30712   0.79048   0.68814   0.00000  Uiso   1.00
H1107  H     0.28608   0.83148   0.91333   0.00000  Uiso   1.00
H1108  H     0.30304   0.85894   0.99047   0.00000  Uiso   1.00
N1109  N     0.04931   0.83332   0.74999   0.00000  Uiso   1.00
N1110  N     0.28402   0.83335   0.74999   0.00000  Uiso   1.00
O1111  O     0.12708   0.89345   0.75001   0.00000  Uiso   1.00
O1112  O     0.07510   0.83731   0.56586   0.00000  Uiso   1.00
O1113  O     0.20627   0.89346   0.75001   0.00000  Uiso   1.00
O1114  O     0.10775   0.83332   0.82549   0.00000  Uiso   1.00
O1115  O     0.18694   0.83333   0.82549   0.00000  Uiso   1.00
O1116  O     0.12706   0.77321   0.74999   0.00000  Uiso   1.00
O1117  O     0.20625   0.77322   0.74999   0.00000  Uiso   1.00
O1118  O     0.14640   0.83334   0.67451   0.00000  Uiso   1.00
O1119  O     0.22559   0.83335   0.67451   0.00000  Uiso   1.00
O1120  O     0.22776   0.70829   0.79826   0.00000  Uiso   1.00
C1121  C     0.49988   0.91259   0.75021   0.00000  Uiso   1.00
C1122  C     0.46078   0.82245   0.90614   0.00000  Uiso   1.00
C1123  C     0.53193   0.97804   0.77216   0.00000  Uiso   1.00
C1124  C     0.47446   0.82949   0.84966   0.00000  Uiso   1.00
C1125  C     0.53302   0.68764   0.77217   0.00000  Uiso   1.00
C1126  C     0.50003   0.70933   0.75178   0.00000  Uiso   1.00
C1127  C     0.46718   0.68810   0.73136   0.00000  Uiso   1.00
C1128  C     0.46701   0.97880   0.73087   0.00000  Uiso   1.00
C1129  C     0.49966   0.95711   0.75087   0.00000  Uiso   1.00
C1130  C     0.63230   0.85730   0.78418   0.00000  Uiso   1.00
C1131  C     0.34856   0.85723   0.78423   0.00000  Uiso   1.00
C1132  C     0.47980   0.82644   0.98917   0.00000  Uiso   1.00
C1133  C     0.36772   0.80943   0.71573   0.00000  Uiso   1.00
C1134  C     0.65146   0.80954   0.71564   0.00000  Uiso   1.00
C1135  C     0.49988   0.75402   0.75091   0.00000  Uiso   1.00
C1136  C     0.52598   0.83399   0.65036   0.00000  Uiso   1.00
C1137  C     0.59982   0.84988   0.51248   0.00000  Uiso   1.00
C1138  C     0.54047   0.83616   0.59428   0.00000  Uiso   1.00
C1139  C     0.41114   0.81774   0.93290   0.00000  Uiso   1.00
C1140  C     0.39559   0.81837   0.98638   0.00000  Uiso   1.00
C1141  C     0.42829   0.82695   0.51440   0.00000  Uiso   1.00
C1142  C     0.61128   0.70397   0.77091   0.00000  Uiso   1.00
C1143  C     0.49603   0.82237   0.93439   0.00000  Uiso   1.00
C1144  C     0.64163   0.72601   0.80062   0.00000  Uiso   1.00
C1145  C     0.40178   0.88051   0.56971   0.00000  Uiso   1.00
C1146  C     0.38094   0.89272   0.62622   0.00000  Uiso   1.00
C1147  C     0.51598   0.83112   0.51567   0.00000  Uiso   1.00
C1148  C     0.56542   0.83852   0.98731   0.00000  Uiso   1.00
C1149  C     0.58080   0.83094   0.93470   0.00000  Uiso   1.00
C1150  C     0.54712   0.81888   0.90993   0.00000  Uiso   1.00
C1151  C     0.50558   0.82671   0.56906   0.00000  Uiso   1.00
C1152  C     0.58730   0.84907   0.56605   0.00000  Uiso   1.00
Cu1153 Cu    0.45311   0.83333   0.75000   0.00000  Uiso   1.00
Cu1154 Cu    0.54689   0.83334   0.75000   0.00000  Uiso   1.00
H1155  H     0.61431   0.85761   0.58518   0.00000  Uiso   1.00
H1156  H     0.47148   0.81356   0.59153   0.00000  Uiso   1.00
H1157  H     0.38384   0.81494   0.91248   0.00000  Uiso   1.00
H1158  H     0.35719   0.81499   0.50658   0.00000  Uiso   1.00
H1159  H     0.56275   0.80588   0.87205   0.00000  Uiso   1.00
H1160  H     0.55533   0.96105   0.79004   0.00000  Uiso   1.00
H1161  H     0.61913   0.71804   0.73192   0.00000  Uiso   1.00
H1162  H     0.62303   0.67106   0.76663   0.00000  Uiso   1.00
H1163  H     0.63663   0.71093   0.83853   0.00000  Uiso   1.00
H1164  H     0.34771   0.72472   0.77831   0.00000  Uiso   1.00
H1165  H     0.62999   0.75876   0.80735   0.00000  Uiso   1.00
H1166  H     0.44197   0.70448   0.71523   0.00000  Uiso   1.00
H1167  H     0.37553   0.89081   0.54881   0.00000  Uiso   1.00
H1168  H     0.43731   0.89679   0.55383   0.00000  Uiso   1.00
H1169  H     0.40637   0.88302   0.64818   0.00000  Uiso   1.00
H1170  H     0.34480   0.87788   0.64291   0.00000  Uiso   1.00
H1171  H     0.37606   0.92669   0.62964   0.00000  Uiso   1.00
H1172  H     0.44179   0.96280   0.71441   0.00000  Uiso   1.00
H1173  H     0.60595   0.87653   0.81155   0.00000  Uiso   1.00
H1174  H     0.35959   0.87638   0.81164   0.00000  Uiso   1.00
H1175  H     0.39407   0.79023   0.68833   0.00000  Uiso   1.00
H1176  H     0.64045   0.79048   0.68814   0.00000  Uiso   1.00
H1177  H     0.61942   0.83148   0.91333   0.00000  Uiso   1.00
H1178  H     0.63638   0.85894   0.99047   0.00000  Uiso   1.00
N1179  N     0.38265   0.83332   0.74999   0.00000  Uiso   1.00
N1180  N     0.61735   0.83335   0.74999   0.00000  Uiso   1.00
O1181  O     0.46042   0.89345   0.75001   0.00000  Uiso   1.00
O1182  O     0.40844   0.83731   0.56586   0.00000  Uiso   1.00
O1183  O     0.53961   0.89346   0.75001   0.00000  Uiso   1.00
O1184  O     0.44108   0.83332   0.82549   0.00000  Uiso   1.00
O1185  O     0.52027   0.83333   0.82549   0.00000  Uiso   1.00
O1186  O     0.46039   0.77321   0.74999   0.00000  Uiso   1.00
O1187  O     0.53958   0.77322   0.74999   0.00000  Uiso   1.00
O1188  O     0.47973   0.83334   0.67451   0.00000  Uiso   1.00
O1189  O     0.55892   0.83335   0.67451   0.00000  Uiso   1.00
O1190  O     0.56110   0.70829   0.79826   0.00000  Uiso   1.00
C1191  C     0.83321   0.91259   0.75021   0.00000  Uiso   1.00
C1192  C     0.79411   0.82245   0.90614   0.00000  Uiso   1.00
C1193  C     0.86526   0.97804   0.77216   0.00000  Uiso   1.00
C1194  C     0.80779   0.82949   0.84966   0.00000  Uiso   1.00
C1195  C     0.86635   0.68764   0.77217   0.00000  Uiso   1.00
C1196  C     0.83337   0.70933   0.75178   0.00000  Uiso   1.00
C1197  C     0.80051   0.68810   0.73136   0.00000  Uiso   1.00
C1198  C     0.80035   0.97880   0.73087   0.00000  Uiso   1.00
C1199  C     0.83300   0.95711   0.75087   0.00000  Uiso   1.00
C1200  C     0.96563   0.85730   0.78418   0.00000  Uiso   1.00
C1201  C     0.68189   0.85723   0.78423   0.00000  Uiso   1.00
C1202  C     0.81313   0.82644   0.98917   0.00000  Uiso   1.00
C1203  C     0.70106   0.80943   0.71573   0.00000  Uiso   1.00
C1204  C     0.98480   0.80954   0.71564   0.00000  Uiso   1.00
C1205  C     0.83321   0.75402   0.75091   0.00000  Uiso   1.00
C1206  C     0.85931   0.83399   0.65036   0.00000  Uiso   1.00
C1207  C     0.93316   0.84988   0.51248   0.00000  Uiso   1.00
C1208  C     0.87380   0.83616   0.59428   0.00000  Uiso   1.00
C1209  C     0.74447   0.81774   0.93290   0.00000  Uiso   1.00
C1210  C     0.72893   0.81837   0.98638   0.00000  Uiso   1.00
C1211  C     0.76162   0.82695   0.51440   0.00000  Uiso   1.00
C1212  C     0.94462   0.70397   0.77091   0.00000  Uiso   1.00
C1213  C     0.82936   0.82237   0.93439   0.00000  Uiso   1.00
C1214  C     0.97497   0.72601   0.80062   0.00000  Uiso   1.00
C1215  C     0.73512   0.88051   0.56971   0.00000  Uiso   1.00
C1216  C     0.71427   0.89272   0.62622   0.00000  Uiso   1.00
C1217  C     0.84931   0.83112   0.51567   0.00000  Uiso   1.00
C1218  C     0.89875   0.83852   0.98731   0.00000  Uiso   1.00
C1219  C     0.91414   0.83094   0.93470   0.00000  Uiso   1.00
C1220  C     0.88046   0.81888   0.90993   0.00000  Uiso   1.00
C1221  C     0.83891   0.82671   0.56906   0.00000  Uiso   1.00
C1222  C     0.92063   0.84907   0.56605   0.00000  Uiso   1.00
Cu1223 Cu    0.78645   0.83333   0.75000   0.00000  Uiso   1.00
Cu1224 Cu    0.88022   0.83334   0.75000   0.00000  Uiso   1.00
H1225  H     0.94764   0.85761   0.58518   0.00000  Uiso   1.00
H1226  H     0.80481   0.81356   0.59153   0.00000  Uiso   1.00
H1227  H     0.71717   0.81494   0.91248   0.00000  Uiso   1.00
H1228  H     0.69052   0.81499   0.50658   0.00000  Uiso   1.00
H1229  H     0.89608   0.80588   0.87205   0.00000  Uiso   1.00
H1230  H     0.88867   0.96105   0.79004   0.00000  Uiso   1.00
H1231  H     0.95246   0.71804   0.73192   0.00000  Uiso   1.00
H1232  H     0.95637   0.67106   0.76663   0.00000  Uiso   1.00
H1233  H     0.96996   0.71093   0.83853   0.00000  Uiso   1.00
H1234  H     0.68104   0.72472   0.77831   0.00000  Uiso   1.00
H1235  H     0.96332   0.75876   0.80735   0.00000  Uiso   1.00
H1236  H     0.77531   0.70448   0.71523   0.00000  Uiso   1.00
H1237  H     0.70886   0.89081   0.54881   0.00000  Uiso   1.00
H1238  H     0.77064   0.89679   0.55383   0.00000  Uiso   1.00
H1239  H     0.73970   0.88302   0.64818   0.00000  Uiso   1.00
H1240  H     0.67814   0.87788   0.64291   0.00000  Uiso   1.00
H1241  H     0.70939   0.92669   0.62964   0.00000  Uiso   1.00
H1242  H     0.77512   0.96280   0.71441   0.00000  Uiso   1.00
H1243  H     0.93929   0.87653   0.81155   0.00000  Uiso   1.00
H1244  H     0.69293   0.87638   0.81164   0.00000  Uiso   1.00
H1245  H     0.72740   0.79023   0.68833   0.00000  Uiso   1.00
H1246  H     0.97379   0.79048   0.68814   0.00000  Uiso   1.00
H1247  H     0.95275   0.83148   0.91333   0.00000  Uiso   1.00
H1248  H     0.96971   0.85894   0.99047   0.00000  Uiso   1.00
N1249  N     0.71598   0.83332   0.74999   0.00000  Uiso   1.00
N1250  N     0.95069   0.83335   0.74999   0.00000  Uiso   1.00
O1251  O     0.79375   0.89345   0.75001   0.00000  Uiso   1.00
O1252  O     0.74177   0.83731   0.56586   0.00000  Uiso   1.00
O1253  O     0.87294   0.89346   0.75001   0.00000  Uiso   1.00
O1254  O     0.77441   0.83332   0.82549   0.00000  Uiso   1.00
O1255  O     0.85360   0.83333   0.82549   0.00000  Uiso   1.00
O1256  O     0.79373   0.77321   0.74999   0.00000  Uiso   1.00
O1257  O     0.87292   0.77322   0.74999   0.00000  Uiso   1.00
O1258  O     0.81306   0.83334   0.67451   0.00000  Uiso   1.00
O1259  O     0.89225   0.83335   0.67451   0.00000  Uiso   1.00
O1260  O     0.89443   0.70829   0.79826   0.00000  Uiso   1.00
loop_
_geom_bond_atom_site_label_1
_geom_bond_atom_site_label_2
_geom_bond_distance
_geom_bond_site_symmetry_2
_ccdc_geom_bond_type
C1     C9      1.444   .     S
C1     O63     1.289   .     A
C1     O61     1.289   .     A
C2     C4      1.483   .     S
C2     C23     1.431   .     A
C2     C19     1.399   .     A
C3     C9      1.398   .     A
C3     H40     1.084   .     S
C3     C215    1.393   .     S
C4     O65     1.286   .     A
C4     O64     1.310   .     A
C5     C6      1.411   .     A
C5     O70     1.386   .     S
C5     C423    1.393   1_545 S
C6     C7      1.401   .     A
C6     C15     1.450   .     S
C7     H46     1.084   .     S
C7     C428    1.383   1_545 S
C8     H52     1.084   .     S
C8     C9      1.397   .     A
C8     C217    1.383   .     S
C10    H53     1.082   .     S
C10    N60     1.367   .     A
C10    C81     1.416   .     S
C11    H54     1.082   .     S
C11    N59     1.367   .     A
C11    C150    1.416   1_455 S
C12    C23     1.424   .     A
C12    C651    1.428   .     S
C12    C657    1.428   .     S
C13    N59     1.367   .     A
C13    H55     1.082   .     S
C13    C154    1.416   1_455 S
C14    H56     1.081   .     S
C14    N60     1.367   .     A
C14    C83     1.416   .     S
C15    O67     1.289   .     A
C15    O66     1.292   .     A
C16    O68     1.291   .     A
C16    C18     1.455   .     S
C16    O69     1.293   .     A
C17    C32     1.389   .     A
C17    C658    1.399   1_554 S
C17    H688    1.082   1_554 S
C18    C32     1.398   .     A
C18    C31     1.397   .     A
C19    C20     1.385   .     A
C19    H37     1.083   .     S
C20    C651    1.392   .     S
C20    H668    1.079   .     S
C21    O62     1.381   .     S
C21    C650    1.392   1_554 S
C21    C642    1.428   1_554 S
C22    H42     1.113   .     S
C22    C24     1.522   .     S
C22    H41     1.114   .     S
C22    O70     1.413   .     S
C23    C30     1.418   .     A
C24    H45     1.110   .     S
C24    H43     1.111   .     S
C24    H114    1.111   .     S
C25    H48     1.115   .     S
C25    H47     1.115   .     S
C25    C26     1.521   .     S
C25    O62     1.413   .     S
C26    H51     1.110   .     S
C26    H50     1.110   .     S
C26    H49     1.110   .     S
C27    C31     1.397   .     A
C27    C642    1.428   1_554 S
C27    C658    1.417   1_554 S
C28    C29     1.383   .     A
C28    C647    1.399   .     S
C28    C657    1.417   .     S
C29    C30     1.380   .     A
C29    H57     1.085   .     S
C30    H39     1.075   .     S
C31    H36     1.076   .     S
C32    H35     1.083   .     S
Cu33   O66     1.960   .     S
Cu33   Cu34    2.677   .     S
Cu33   N59     2.012   .     S
Cu33   O64     1.972   .     S
Cu33   O61     1.962   .     S
Cu33   O68     1.962   .     S
Cu34   O67     1.962   .     S
Cu34   N60     2.011   .     S
Cu34   O65     1.962   .     S
Cu34   O63     1.960   .     S
Cu34   O69     1.972   .     S
H38    C650    1.079   1_554 S
H44    C164    1.111   1_455 S
H58    C647    1.082   .     S
C71    C79     1.444   .     S
C71    O133    1.289   .     A
C71    O131    1.289   .     A
C72    C74     1.483   .     S
C72    C93     1.431   .     A
C72    C89     1.399   .     A
C73    C79     1.398   .     A
C73    H110    1.084   .     S
C73    C285    1.393   .     S
C74    O135    1.286   .     A
C74    O134    1.310   .     A
C75    C76     1.411   .     A
C75    O140    1.386   .     S
C75    C493    1.393   1_545 S
C76    C77     1.401   .     A
C76    C85     1.450   .     S
C77    H116    1.084   .     S
C77    C498    1.383   1_545 S
C78    H122    1.084   .     S
C78    C79     1.397   .     A
C78    C287    1.383   .     S
C80    H123    1.082   .     S
C80    N130    1.367   .     A
C80    C151    1.416   .     S
C81    H124    1.082   .     S
C81    N129    1.367   .     A
C82    C93     1.424   .     A
C82    C721    1.428   .     S
C82    C727    1.428   .     S
C83    N129    1.367   .     A
C83    H125    1.082   .     S
C84    H126    1.081   .     S
C84    N130    1.367   .     A
C84    C153    1.416   .     S
C85    O137    1.289   .     A
C85    O136    1.292   .     A
C86    O138    1.291   .     A
C86    C88     1.455   .     S
C86    O139    1.293   .     A
C87    C102    1.389   .     A
C87    C728    1.399   1_554 S
C87    H758    1.082   1_554 S
C88    C102    1.398   .     A
C88    C101    1.397   .     A
C89    C90     1.385   .     A
C89    H107    1.083   .     S
C90    C721    1.392   .     S
C90    H738    1.079   .     S
C91    O132    1.381   .     S
C91    C720    1.392   1_554 S
C91    C712    1.428   1_554 S
C92    H112    1.113   .     S
C92    C94     1.522   .     S
C92    H111    1.114   .     S
C92    O140    1.413   .     S
C93    C100    1.418   .     A
C94    H115    1.110   .     S
C94    H113    1.111   .     S
C94    H184    1.111   .     S
C95    H118    1.115   .     S
C95    H117    1.115   .     S
C95    C96     1.521   .     S
C95    O132    1.413   .     S
C96    H121    1.110   .     S
C96    H120    1.110   .     S
C96    H119    1.110   .     S
C97    C101    1.397   .     A
C97    C712    1.428   1_554 S
C97    C728    1.417   1_554 S
C98    C99     1.383   .     A
C98    C717    1.399   .     S
C98    C727    1.417   .     S
C99    C100    1.380   .     A
C99    H127    1.085   .     S
C100   H109    1.075   .     S
C101   H106    1.076   .     S
C102   H105    1.083   .     S
Cu103  O136    1.960   .     S
Cu103  Cu104   2.677   .     S
Cu103  N129    2.012   .     S
Cu103  O134    1.972   .     S
Cu103  O131    1.962   .     S
Cu103  O138    1.962   .     S
Cu104  O137    1.962   .     S
Cu104  N130    2.011   .     S
Cu104  O135    1.962   .     S
Cu104  O133    1.960   .     S
Cu104  O139    1.972   .     S
H108   C720    1.079   1_554 S
H128   C717    1.082   .     S
C141   C149    1.444   .     S
C141   O203    1.289   .     A
C141   O201    1.289   .     A
C142   C144    1.483   .     S
C142   C163    1.431   .     A
C142   C159    1.399   .     A
C143   C149    1.398   .     A
C143   H180    1.084   .     S
C143   C355    1.393   .     S
C144   O205    1.286   .     A
C144   O204    1.310   .     A
C145   C146    1.411   .     A
C145   O210    1.386   .     S
C145   C563    1.393   1_545 S
C146   C147    1.401   .     A
C146   C155    1.450   .     S
C147   H186    1.084   .     S
C147   C568    1.383   1_545 S
C148   H192    1.084   .     S
C148   C149    1.397   .     A
C148   C357    1.383   .     S
C150   H193    1.082   .     S
C150   N200    1.367   .     A
C150   C11     1.416   1_655 S
C151   H194    1.082   .     S
C151   N199    1.367   .     A
C152   C163    1.424   .     A
C152   C791    1.428   .     S
C152   C797    1.428   .     S
C153   N199    1.367   .     A
C153   H195    1.082   .     S
C154   H196    1.081   .     S
C154   N200    1.367   .     A
C154   C13     1.416   1_655 S
C155   O207    1.289   .     A
C155   O206    1.292   .     A
C156   O208    1.291   .     A
C156   C158    1.455   .     S
C156   O209    1.293   .     A
C157   C172    1.389   .     A
C157   C798    1.399   1_554 S
C157   H828    1.082   1_554 S
C158   C172    1.398   .     A
C158   C171    1.397   .     A
C159   C160    1.385   .     A
C159   H177    1.083   .     S
C160   C791    1.392   .     S
C160   H808    1.079   .     S
C161   O202    1.381   .     S
C161   C790    1.392   1_554 S
C161   C782    1.428   1_554 S
C162   H182    1.113   .     S
C162   C164    1.522   .     S
C162   H181    1.114   .     S
C162   O210    1.413   .     S
C163   C170    1.418   .     A
C164   H185    1.110   .     S
C164   H183    1.111   .     S
C164   H44     1.111   1_655 S
C165   H188    1.115   .     S
C165   H187    1.115   .     S
C165   C166    1.521   .     S
C165   O202    1.413   .     S
C166   H191    1.110   .     S
C166   H190    1.110   .     S
C166   H189    1.110   .     S
C167   C171    1.397   .     A
C167   C782    1.428   1_554 S
C167   C798    1.417   1_554 S
C168   C169    1.383   .     A
C168   C787    1.399   .     S
C168   C797    1.417   .     S
C169   C170    1.380   .     A
C169   H197    1.085   .     S
C170   H179    1.075   .     S
C171   H176    1.076   .     S
C172   H175    1.083   .     S
Cu173  O206    1.960   .     S
Cu173  Cu174   2.677   .     S
Cu173  N199    2.012   .     S
Cu173  O204    1.972   .     S
Cu173  O201    1.962   .     S
Cu173  O208    1.962   .     S
Cu174  O207    1.962   .     S
Cu174  N200    2.011   .     S
Cu174  O205    1.962   .     S
Cu174  O203    1.960   .     S
Cu174  O209    1.972   .     S
H178   C790    1.079   1_554 S
H198   C787    1.082   .     S
C211   C219    1.444   .     S
C211   O273    1.289   .     A
C211   O271    1.289   .     A
C212   C214    1.483   .     S
C212   C233    1.431   .     A
C212   C229    1.399   .     A
C213   C219    1.398   .     A
C213   H250    1.084   .     S
C213   C425    1.393   .     S
C214   O275    1.286   .     A
C214   O274    1.310   .     A
C215   C216    1.411   .     A
C215   O280    1.386   .     S
C216   C217    1.401   .     A
C216   C225    1.450   .     S
C217   H256    1.084   .     S
C218   H262    1.084   .     S
C218   C219    1.397   .     A
C218   C427    1.383   .     S
C220   H263    1.082   .     S
C220   N270    1.367   .     A
C220   C291    1.416   .     S
C221   H264    1.082   .     S
C221   N269    1.367   .     A
C221   C360    1.416   1_455 S
C222   C233    1.424   .     A
C222   C861    1.428   .     S
C222   C867    1.428   .     S
C223   N269    1.367   .     A
C223   H265    1.082   .     S
C223   C364    1.416   1_455 S
C224   H266    1.081   .     S
C224   N270    1.367   .     A
C224   C293    1.416   .     S
C225   O277    1.289   .     A
C225   O276    1.292   .     A
C226   O278    1.291   .     A
C226   C228    1.455   .     S
C226   O279    1.293   .     A
C227   C242    1.389   .     A
C227   C868    1.399   1_554 S
C227   H898    1.082   1_554 S
C228   C242    1.398   .     A
C228   C241    1.397   .     A
C229   C230    1.385   .     A
C229   H247    1.083   .     S
C230   C861    1.392   .     S
C230   H878    1.079   .     S
C231   O272    1.381   .     S
C231   C860    1.392   1_554 S
C231   C852    1.428   1_554 S
C232   H252    1.113   .     S
C232   C234    1.522   .     S
C232   H251    1.114   .     S
C232   O280    1.413   .     S
C233   C240    1.418   .     A
C234   H255    1.110   .     S
C234   H253    1.111   .     S
C234   H324    1.111   .     S
C235   H258    1.115   .     S
C235   H257    1.115   .     S
C235   C236    1.521   .     S
C235   O272    1.413   .     S
C236   H261    1.110   .     S
C236   H260    1.110   .     S
C236   H259    1.110   .     S
C237   C241    1.397   .     A
C237   C852    1.428   1_554 S
C237   C868    1.417   1_554 S
C238   C239    1.383   .     A
C238   C857    1.399   .     S
C238   C867    1.417   .     S
C239   C240    1.380   .     A
C239   H267    1.085   .     S
C240   H249    1.075   .     S
C241   H246    1.076   .     S
C242   H245    1.083   .     S
Cu243  O276    1.960   .     S
Cu243  Cu244   2.677   .     S
Cu243  N269    2.012   .     S
Cu243  O274    1.972   .     S
Cu243  O271    1.962   .     S
Cu243  O278    1.962   .     S
Cu244  O277    1.962   .     S
Cu244  N270    2.011   .     S
Cu244  O275    1.962   .     S
Cu244  O273    1.960   .     S
Cu244  O279    1.972   .     S
H248   C860    1.079   1_554 S
H254   C374    1.111   1_455 S
H268   C857    1.082   .     S
C281   C289    1.444   .     S
C281   O343    1.289   .     A
C281   O341    1.289   .     A
C282   C284    1.483   .     S
C282   C303    1.431   .     A
C282   C299    1.399   .     A
C283   C289    1.398   .     A
C283   H320    1.084   .     S
C283   C495    1.393   .     S
C284   O345    1.286   .     A
C284   O344    1.310   .     A
C285   C286    1.411   .     A
C285   O350    1.386   .     S
C286   C287    1.401   .     A
C286   C295    1.450   .     S
C287   H326    1.084   .     S
C288   H332    1.084   .     S
C288   C289    1.397   .     A
C288   C497    1.383   .     S
C290   H333    1.082   .     S
C290   N340    1.367   .     A
C290   C361    1.416   .     S
C291   H334    1.082   .     S
C291   N339    1.367   .     A
C292   C303    1.424   .     A
C292   C931    1.428   .     S
C292   C937    1.428   .     S
C293   N339    1.367   .     A
C293   H335    1.082   .     S
C294   H336    1.081   .     S
C294   N340    1.367   .     A
C294   C363    1.416   .     S
C295   O347    1.289   .     A
C295   O346    1.292   .     A
C296   O348    1.291   .     A
C296   C298    1.455   .     S
C296   O349    1.293   .     A
C297   C312    1.389   .     A
C297   C938    1.399   1_554 S
C297   H968    1.082   1_554 S
C298   C312    1.398   .     A
C298   C311    1.397   .     A
C299   C300    1.385   .     A
C299   H317    1.083   .     S
C300   C931    1.392   .     S
C300   H948    1.079   .     S
C301   O342    1.381   .     S
C301   C930    1.392   1_554 S
C301   C922    1.428   1_554 S
C302   H322    1.113   .     S
C302   C304    1.522   .     S
C302   H321    1.114   .     S
C302   O350    1.413   .     S
C303   C310    1.418   .     A
C304   H325    1.110   .     S
C304   H323    1.111   .     S
C304   H394    1.111   .     S
C305   H328    1.115   .     S
C305   H327    1.115   .     S
C305   C306    1.521   .     S
C305   O342    1.413   .     S
C306   H331    1.110   .     S
C306   H330    1.110   .     S
C306   H329    1.110   .     S
C307   C311    1.397   .     A
C307   C922    1.428   1_554 S
C307   C938    1.417   1_554 S
C308   C309    1.383   .     A
C308   C927    1.399   .     S
C308   C937    1.417   .     S
C309   C310    1.380   .     A
C309   H337    1.085   .     S
C310   H319    1.075   .     S
C311   H316    1.076   .     S
C312   H315    1.083   .     S
Cu313  O346    1.960   .     S
Cu313  Cu314   2.677   .     S
Cu313  N339    2.012   .     S
Cu313  O344    1.972   .     S
Cu313  O341    1.962   .     S
Cu313  O348    1.962   .     S
Cu314  O347    1.962   .     S
Cu314  N340    2.011   .     S
Cu314  O345    1.962   .     S
Cu314  O343    1.960   .     S
Cu314  O349    1.972   .     S
H318   C930    1.079   1_554 S
H338   C927    1.082   .     S
C351   C359    1.444   .     S
C351   O413    1.289   .     A
C351   O411    1.289   .     A
C352   C354    1.483   .     S
C352   C373    1.431   .     A
C352   C369    1.399   .     A
C353   C359    1.398   .     A
C353   H390    1.084   .     S
C353   C565    1.393   .     S
C354   O415    1.286   .     A
C354   O414    1.310   .     A
C355   C356    1.411   .     A
C355   O420    1.386   .     S
C356   C357    1.401   .     A
C356   C365    1.450   .     S
C357   H396    1.084   .     S
C358   H402    1.084   .     S
C358   C359    1.397   .     A
C358   C567    1.383   .     S
C360   H403    1.082   .     S
C360   N410    1.367   .     A
C360   C221    1.416   1_655 S
C361   H404    1.082   .     S
C361   N409    1.367   .     A
C362   C373    1.424   .     A
C362   C1001   1.428   .     S
C362   C1007   1.428   .     S
C363   N409    1.367   .     A
C363   H405    1.082   .     S
C364   H406    1.081   .     S
C364   N410    1.367   .     A
C364   C223    1.416   1_655 S
C365   O417    1.289   .     A
C365   O416    1.292   .     A
C366   O418    1.291   .     A
C366   C368    1.455   .     S
C366   O419    1.293   .     A
C367   C382    1.389   .     A
C367   C1008   1.399   1_554 S
C367   H1038   1.082   1_554 S
C368   C382    1.398   .     A
C368   C381    1.397   .     A
C369   C370    1.385   .     A
C369   H387    1.083   .     S
C370   C1001   1.392   .     S
C370   H1018   1.079   .     S
C371   O412    1.381   .     S
C371   C1000   1.392   1_554 S
C371   C992    1.428   1_554 S
C372   H392    1.113   .     S
C372   C374    1.522   .     S
C372   H391    1.114   .     S
C372   O420    1.413   .     S
C373   C380    1.418   .     A
C374   H395    1.110   .     S
C374   H393    1.111   .     S
C374   H254    1.111   1_655 S
C375   H398    1.115   .     S
C375   H397    1.115   .     S
C375   C376    1.521   .     S
C375   O412    1.413   .     S
C376   H401    1.110   .     S
C376   H400    1.110   .     S
C376   H399    1.110   .     S
C377   C381    1.397   .     A
C377   C992    1.428   1_554 S
C377   C1008   1.417   1_554 S
C378   C379    1.383   .     A
C378   C997    1.399   .     S
C378   C1007   1.417   .     S
C379   C380    1.380   .     A
C379   H407    1.085   .     S
C380   H389    1.075   .     S
C381   H386    1.076   .     S
C382   H385    1.083   .     S
Cu383  O416    1.960   .     S
Cu383  Cu384   2.677   .     S
Cu383  N409    2.012   .     S
Cu383  O414    1.972   .     S
Cu383  O411    1.962   .     S
Cu383  O418    1.962   .     S
Cu384  O417    1.962   .     S
Cu384  N410    2.011   .     S
Cu384  O415    1.962   .     S
Cu384  O413    1.960   .     S
Cu384  O419    1.972   .     S
H388   C1000   1.079   1_554 S
H408   C997    1.082   .     S
C421   C429    1.444   .     S
C421   O483    1.289   .     A
C421   O481    1.289   .     A
C422   C424    1.483   .     S
C422   C443    1.431   .     A
C422   C439    1.399   .     A
C423   C429    1.398   .     A
C423   H460    1.084   .     S
C423   C5      1.393   1_565 S
C424   O485    1.286   .     A
C424   O484    1.310   .     A
C425   C426    1.411   .     A
C425   O490    1.386   .     S
C426   C427    1.401   .     A
C426   C435    1.450   .     S
C427   H466    1.084   .     S
C428   H472    1.084   .     S
C428   C429    1.397   .     A
C428   C7      1.383   1_565 S
C430   H473    1.082   .     S
C430   N480    1.367   .     A
C430   C501    1.416   .     S
C431   H474    1.082   .     S
C431   N479    1.367   .     A
C431   C570    1.416   1_455 S
C432   C443    1.424   .     A
C432   C1071   1.428   .     S
C432   C1077   1.428   .     S
C433   N479    1.367   .     A
C433   H475    1.082   .     S
C433   C574    1.416   1_455 S
C434   H476    1.081   .     S
C434   N480    1.367   .     A
C434   C503    1.416   .     S
C435   O487    1.289   .     A
C435   O486    1.292   .     A
C436   O488    1.291   .     A
C436   C438    1.455   .     S
C436   O489    1.293   .     A
C437   C452    1.389   .     A
C437   C1078   1.399   1_554 S
C437   H1108   1.082   1_554 S
C438   C452    1.398   .     A
C438   C451    1.397   .     A
C439   C440    1.385   .     A
C439   H457    1.083   .     S
C440   C1071   1.392   .     S
C440   H1088   1.079   .     S
C441   O482    1.381   .     S
C441   C1070   1.392   1_554 S
C441   C1062   1.428   1_554 S
C442   H462    1.113   .     S
C442   C444    1.522   .     S
C442   H461    1.114   .     S
C442   O490    1.413   .     S
C443   C450    1.418   .     A
C444   H465    1.110   .     S
C444   H463    1.111   .     S
C444   H534    1.111   .     S
C445   H468    1.115   .     S
C445   H467    1.115   .     S
C445   C446    1.521   .     S
C445   O482    1.413   .     S
C446   H471    1.110   .     S
C446   H470    1.110   .     S
C446   H469    1.110   .     S
C447   C451    1.397   .     A
C447   C1062   1.428   1_554 S
C447   C1078   1.417   1_554 S
C448   C449    1.383   .     A
C448   C1067   1.399   .     S
C448   C1077   1.417   .     S
C449   C450    1.380   .     A
C449   H477    1.085   .     S
C450   H459    1.075   .     S
C451   H456    1.076   .     S
C452   H455    1.083   .     S
Cu453  O486    1.960   .     S
Cu453  Cu454   2.677   .     S
Cu453  N479    2.012   .     S
Cu453  O484    1.972   .     S
Cu453  O481    1.962   .     S
Cu453  O488    1.962   .     S
Cu454  O487    1.962   .     S
Cu454  N480    2.011   .     S
Cu454  O485    1.962   .     S
Cu454  O483    1.960   .     S
Cu454  O489    1.972   .     S
H458   C1070   1.079   1_554 S
H464   C584    1.111   1_455 S
H478   C1067   1.082   .     S
C491   C499    1.444   .     S
C491   O553    1.289   .     A
C491   O551    1.289   .     A
C492   C494    1.483   .     S
C492   C513    1.431   .     A
C492   C509    1.399   .     A
C493   C499    1.398   .     A
C493   H530    1.084   .     S
C493   C75     1.393   1_565 S
C494   O555    1.286   .     A
C494   O554    1.310   .     A
C495   C496    1.411   .     A
C495   O560    1.386   .     S
C496   C497    1.401   .     A
C496   C505    1.450   .     S
C497   H536    1.084   .     S
C498   H542    1.084   .     S
C498   C499    1.397   .     A
C498   C77     1.383   1_565 S
C500   H543    1.082   .     S
C500   N550    1.367   .     A
C500   C571    1.416   .     S
C501   H544    1.082   .     S
C501   N549    1.367   .     A
C502   C513    1.424   .     A
C502   C1141   1.428   .     S
C502   C1147   1.428   .     S
C503   N549    1.367   .     A
C503   H545    1.082   .     S
C504   H546    1.081   .     S
C504   N550    1.367   .     A
C504   C573    1.416   .     S
C505   O557    1.289   .     A
C505   O556    1.292   .     A
C506   O558    1.291   .     A
C506   C508    1.455   .     S
C506   O559    1.293   .     A
C507   C522    1.389   .     A
C507   C1148   1.399   1_554 S
C507   H1178   1.082   1_554 S
C508   C522    1.398   .     A
C508   C521    1.397   .     A
C509   C510    1.385   .     A
C509   H527    1.083   .     S
C510   C1141   1.392   .     S
C510   H1158   1.079   .     S
C511   O552    1.381   .     S
C511   C1140   1.392   1_554 S
C511   C1132   1.428   1_554 S
C512   H532    1.113   .     S
C512   C514    1.522   .     S
C512   H531    1.114   .     S
C512   O560    1.413   .     S
C513   C520    1.418   .     A
C514   H535    1.110   .     S
C514   H533    1.111   .     S
C514   H604    1.111   .     S
C515   H538    1.115   .     S
C515   H537    1.115   .     S
C515   C516    1.521   .     S
C515   O552    1.413   .     S
C516   H541    1.110   .     S
C516   H540    1.110   .     S
C516   H539    1.110   .     S
C517   C521    1.397   .     A
C517   C1132   1.428   1_554 S
C517   C1148   1.417   1_554 S
C518   C519    1.383   .     A
C518   C1137   1.399   .     S
C518   C1147   1.417   .     S
C519   C520    1.380   .     A
C519   H547    1.085   .     S
C520   H529    1.075   .     S
C521   H526    1.076   .     S
C522   H525    1.083   .     S
Cu523  O556    1.960   .     S
Cu523  Cu524   2.677   .     S
Cu523  N549    2.012   .     S
Cu523  O554    1.972   .     S
Cu523  O551    1.962   .     S
Cu523  O558    1.962   .     S
Cu524  O557    1.962   .     S
Cu524  N550    2.011   .     S
Cu524  O555    1.962   .     S
Cu524  O553    1.960   .     S
Cu524  O559    1.972   .     S
H528   C1140   1.079   1_554 S
H548   C1137   1.082   .     S
C561   C569    1.444   .     S
C561   O623    1.289   .     A
C561   O621    1.289   .     A
C562   C564    1.483   .     S
C562   C583    1.431   .     A
C562   C579    1.399   .     A
C563   C569    1.398   .     A
C563   H600    1.084   .     S
C563   C145    1.393   1_565 S
C564   O625    1.286   .     A
C564   O624    1.310   .     A
C565   C566    1.411   .     A
C565   O630    1.386   .     S
C566   C567    1.401   .     A
C566   C575    1.450   .     S
C567   H606    1.084   .     S
C568   H612    1.084   .     S
C568   C569    1.397   .     A
C568   C147    1.383   1_565 S
C570   H613    1.082   .     S
C570   N620    1.367   .     A
C570   C431    1.416   1_655 S
C571   H614    1.082   .     S
C571   N619    1.367   .     A
C572   C583    1.424   .     A
C572   C1211   1.428   .     S
C572   C1217   1.428   .     S
C573   N619    1.367   .     A
C573   H615    1.082   .     S
C574   H616    1.081   .     S
C574   N620    1.367   .     A
C574   C433    1.416   1_655 S
C575   O627    1.289   .     A
C575   O626    1.292   .     A
C576   O628    1.291   .     A
C576   C578    1.455   .     S
C576   O629    1.293   .     A
C577   C592    1.389   .     A
C577   C1218   1.399   1_554 S
C577   H1248   1.082   1_554 S
C578   C592    1.398   .     A
C578   C591    1.397   .     A
C579   C580    1.385   .     A
C579   H597    1.083   .     S
C580   C1211   1.392   .     S
C580   H1228   1.079   .     S
C581   O622    1.381   .     S
C581   C1210   1.392   1_554 S
C581   C1202   1.428   1_554 S
C582   H602    1.113   .     S
C582   C584    1.522   .     S
C582   H601    1.114   .     S
C582   O630    1.413   .     S
C583   C590    1.418   .     A
C584   H605    1.110   .     S
C584   H603    1.111   .     S
C584   H464    1.111   1_655 S
C585   H608    1.115   .     S
C585   H607    1.115   .     S
C585   C586    1.521   .     S
C585   O622    1.413   .     S
C586   H611    1.110   .     S
C586   H610    1.110   .     S
C586   H609    1.110   .     S
C587   C591    1.397   .     A
C587   C1202   1.428   1_554 S
C587   C1218   1.417   1_554 S
C588   C589    1.383   .     A
C588   C1207   1.399   .     S
C588   C1217   1.417   .     S
C589   C590    1.380   .     A
C589   H617    1.085   .     S
C590   H599    1.075   .     S
C591   H596    1.076   .     S
C592   H595    1.083   .     S
Cu593  O626    1.960   .     S
Cu593  Cu594   2.677   .     S
Cu593  N619    2.012   .     S
Cu593  O624    1.972   .     S
Cu593  O621    1.962   .     S
Cu593  O628    1.962   .     S
Cu594  O627    1.962   .     S
Cu594  N620    2.011   .     S
Cu594  O625    1.962   .     S
Cu594  O623    1.960   .     S
Cu594  O629    1.972   .     S
H598   C1210   1.079   1_554 S
H618   C1207   1.082   .     S
C631   C639    1.444   .     S
C631   O693    1.289   .     A
C631   O691    1.289   .     A
C632   C634    1.483   .     S
C632   C653    1.431   .     A
C632   C649    1.399   .     A
C633   C639    1.398   .     A
C633   H670    1.084   .     S
C633   C845    1.393   .     S
C634   O695    1.286   .     A
C634   O694    1.310   .     A
C635   C636    1.411   .     A
C635   O700    1.386   .     S
C635   C1053   1.393   1_545 S
C636   C637    1.401   .     A
C636   C645    1.450   .     S
C637   H676    1.084   .     S
C637   C1058   1.383   1_545 S
C638   H682    1.084   .     S
C638   C639    1.397   .     A
C638   C847    1.383   .     S
C640   H683    1.082   .     S
C640   N690    1.367   .     A
C640   C711    1.416   .     S
C641   H684    1.082   .     S
C641   N689    1.367   .     A
C641   C780    1.416   1_455 S
C642   C653    1.424   .     A
C642   C21     1.428   1_556 S
C642   C27     1.428   1_556 S
C643   N689    1.367   .     A
C643   H685    1.082   .     S
C643   C784    1.416   1_455 S
C644   H686    1.081   .     S
C644   N690    1.367   .     A
C644   C713    1.416   .     S
C645   O697    1.289   .     A
C645   O696    1.292   .     A
C646   O698    1.291   .     A
C646   C648    1.455   .     S
C646   O699    1.293   .     A
C647   C662    1.389   .     A
C648   C662    1.398   .     A
C648   C661    1.397   .     A
C649   C650    1.385   .     A
C649   H667    1.083   .     S
C650   C21     1.392   1_556 S
C650   H38     1.079   1_556 S
C651   O692    1.381   .     S
C652   H672    1.113   .     S
C652   C654    1.522   .     S
C652   H671    1.114   .     S
C652   O700    1.413   .     S
C653   C660    1.418   .     A
C654   H675    1.110   .     S
C654   H673    1.111   .     S
C654   H744    1.111   .     S
C655   H678    1.115   .     S
C655   H677    1.115   .     S
C655   C656    1.521   .     S
C655   O692    1.413   .     S
C656   H681    1.110   .     S
C656   H680    1.110   .     S
C656   H679    1.110   .     S
C657   C661    1.397   .     A
C658   C659    1.383   .     A
C658   C17     1.399   1_556 S
C658   C27     1.417   1_556 S
C659   C660    1.380   .     A
C659   H687    1.085   .     S
C660   H669    1.075   .     S
C661   H666    1.076   .     S
C662   H665    1.083   .     S
Cu663  O696    1.960   .     S
Cu663  Cu664   2.677   .     S
Cu663  N689    2.012   .     S
Cu663  O694    1.972   .     S
Cu663  O691    1.962   .     S
Cu663  O698    1.962   .     S
Cu664  O697    1.962   .     S
Cu664  N690    2.011   .     S
Cu664  O695    1.962   .     S
Cu664  O693    1.960   .     S
Cu664  O699    1.972   .     S
H674   C794    1.111   1_455 S
H688   C17     1.082   1_556 S
C701   C709    1.444   .     S
C701   O763    1.289   .     A
C701   O761    1.289   .     A
C702   C704    1.483   .     S
C702   C723    1.431   .     A
C702   C719    1.399   .     A
C703   C709    1.398   .     A
C703   H740    1.084   .     S
C703   C915    1.393   .     S
C704   O765    1.286   .     A
C704   O764    1.310   .     A
C705   C706    1.411   .     A
C705   O770    1.386   .     S
C705   C1123   1.393   1_545 S
C706   C707    1.401   .     A
C706   C715    1.450   .     S
C707   H746    1.084   .     S
C707   C1128   1.383   1_545 S
C708   H752    1.084   .     S
C708   C709    1.397   .     A
C708   C917    1.383   .     S
C710   H753    1.082   .     S
C710   N760    1.367   .     A
C710   C781    1.416   .     S
C711   H754    1.082   .     S
C711   N759    1.367   .     A
C712   C723    1.424   .     A
C712   C91     1.428   1_556 S
C712   C97     1.428   1_556 S
C713   N759    1.367   .     A
C713   H755    1.082   .     S
C714   H756    1.081   .     S
C714   N760    1.367   .     A
C714   C783    1.416   .     S
C715   O767    1.289   .     A
C715   O766    1.292   .     A
C716   O768    1.291   .     A
C716   C718    1.455   .     S
C716   O769    1.293   .     A
C717   C732    1.389   .     A
C718   C732    1.398   .     A
C718   C731    1.397   .     A
C719   C720    1.385   .     A
C719   H737    1.083   .     S
C720   C91     1.392   1_556 S
C720   H108    1.079   1_556 S
C721   O762    1.381   .     S
C722   H742    1.113   .     S
C722   C724    1.522   .     S
C722   H741    1.114   .     S
C722   O770    1.413   .     S
C723   C730    1.418   .     A
C724   H745    1.110   .     S
C724   H743    1.111   .     S
C724   H814    1.111   .     S
C725   H748    1.115   .     S
C725   H747    1.115   .     S
C725   C726    1.521   .     S
C725   O762    1.413   .     S
C726   H751    1.110   .     S
C726   H750    1.110   .     S
C726   H749    1.110   .     S
C727   C731    1.397   .     A
C728   C729    1.383   .     A
C728   C87     1.399   1_556 S
C728   C97     1.417   1_556 S
C729   C730    1.380   .     A
C729   H757    1.085   .     S
C730   H739    1.075   .     S
C731   H736    1.076   .     S
C732   H735    1.083   .     S
Cu733  O766    1.960   .     S
Cu733  Cu734   2.677   .     S
Cu733  N759    2.012   .     S
Cu733  O764    1.972   .     S
Cu733  O761    1.962   .     S
Cu733  O768    1.962   .     S
Cu734  O767    1.962   .     S
Cu734  N760    2.011   .     S
Cu734  O765    1.962   .     S
Cu734  O763    1.960   .     S
Cu734  O769    1.972   .     S
H758   C87     1.082   1_556 S
C771   C779    1.444   .     S
C771   O833    1.289   .     A
C771   O831    1.289   .     A
C772   C774    1.483   .     S
C772   C793    1.431   .     A
C772   C789    1.399   .     A
C773   C779    1.398   .     A
C773   H810    1.084   .     S
C773   C985    1.393   .     S
C774   O835    1.286   .     A
C774   O834    1.310   .     A
C775   C776    1.411   .     A
C775   O840    1.386   .     S
C775   C1193   1.393   1_545 S
C776   C777    1.401   .     A
C776   C785    1.450   .     S
C777   H816    1.084   .     S
C777   C1198   1.383   1_545 S
C778   H822    1.084   .     S
C778   C779    1.397   .     A
C778   C987    1.383   .     S
C780   H823    1.082   .     S
C780   N830    1.367   .     A
C780   C641    1.416   1_655 S
C781   H824    1.082   .     S
C781   N829    1.367   .     A
C782   C793    1.424   .     A
C782   C161    1.428   1_556 S
C782   C167    1.428   1_556 S
C783   N829    1.367   .     A
C783   H825    1.082   .     S
C784   H826    1.081   .     S
C784   N830    1.367   .     A
C784   C643    1.416   1_655 S
C785   O837    1.289   .     A
C785   O836    1.292   .     A
C786   O838    1.291   .     A
C786   C788    1.455   .     S
C786   O839    1.293   .     A
C787   C802    1.389   .     A
C788   C802    1.398   .     A
C788   C801    1.397   .     A
C789   C790    1.385   .     A
C789   H807    1.083   .     S
C790   C161    1.392   1_556 S
C790   H178    1.079   1_556 S
C791   O832    1.381   .     S
C792   H812    1.113   .     S
C792   C794    1.522   .     S
C792   H811    1.114   .     S
C792   O840    1.413   .     S
C793   C800    1.418   .     A
C794   H815    1.110   .     S
C794   H813    1.111   .     S
C794   H674    1.111   1_655 S
C795   H818    1.115   .     S
C795   H817    1.115   .     S
C795   C796    1.521   .     S
C795   O832    1.413   .     S
C796   H821    1.110   .     S
C796   H820    1.110   .     S
C796   H819    1.110   .     S
C797   C801    1.397   .     A
C798   C799    1.383   .     A
C798   C157    1.399   1_556 S
C798   C167    1.417   1_556 S
C799   C800    1.380   .     A
C799   H827    1.085   .     S
C800   H809    1.075   .     S
C801   H806    1.076   .     S
C802   H805    1.083   .     S
Cu803  O836    1.960   .     S
Cu803  Cu804   2.677   .     S
Cu803  N829    2.012   .     S
Cu803  O834    1.972   .     S
Cu803  O831    1.962   .     S
Cu803  O838    1.962   .     S
Cu804  O837    1.962   .     S
Cu804  N830    2.011   .     S
Cu804  O835    1.962   .     S
Cu804  O833    1.960   .     S
Cu804  O839    1.972   .     S
H828   C157    1.082   1_556 S
C841   C849    1.444   .     S
C841   O903    1.289   .     A
C841   O901    1.289   .     A
C842   C844    1.483   .     S
C842   C863    1.431   .     A
C842   C859    1.399   .     A
C843   C849    1.398   .     A
C843   H880    1.084   .     S
C843   C1055   1.393   .     S
C844   O905    1.286   .     A
C844   O904    1.310   .     A
C845   C846    1.411   .     A
C845   O910    1.386   .     S
C846   C847    1.401   .     A
C846   C855    1.450   .     S
C847   H886    1.084   .     S
C848   H892    1.084   .     S
C848   C849    1.397   .     A
C848   C1057   1.383   .     S
C850   H893    1.082   .     S
C850   N900    1.367   .     A
C850   C921    1.416   .     S
C851   H894    1.082   .     S
C851   N899    1.367   .     A
C851   C990    1.416   1_455 S
C852   C863    1.424   .     A
C852   C231    1.428   1_556 S
C852   C237    1.428   1_556 S
C853   N899    1.367   .     A
C853   H895    1.082   .     S
C853   C994    1.416   1_455 S
C854   H896    1.081   .     S
C854   N900    1.367   .     A
C854   C923    1.416   .     S
C855   O907    1.289   .     A
C855   O906    1.292   .     A
C856   O908    1.291   .     A
C856   C858    1.455   .     S
C856   O909    1.293   .     A
C857   C872    1.389   .     A
C858   C872    1.398   .     A
C858   C871    1.397   .     A
C859   C860    1.385   .     A
C859   H877    1.083   .     S
C860   C231    1.392   1_556 S
C860   H248    1.079   1_556 S
C861   O902    1.381   .     S
C862   H882    1.113   .     S
C862   C864    1.522   .     S
C862   H881    1.114   .     S
C862   O910    1.413   .     S
C863   C870    1.418   .     A
C864   H885    1.110   .     S
C864   H883    1.111   .     S
C864   H954    1.111   .     S
C865   H888    1.115   .     S
C865   H887    1.115   .     S
C865   C866    1.521   .     S
C865   O902    1.413   .     S
C866   H891    1.110   .     S
C866   H890    1.110   .     S
C866   H889    1.110   .     S
C867   C871    1.397   .     A
C868   C869    1.383   .     A
C868   C227    1.399   1_556 S
C868   C237    1.417   1_556 S
C869   C870    1.380   .     A
C869   H897    1.085   .     S
C870   H879    1.075   .     S
C871   H876    1.076   .     S
C872   H875    1.083   .     S
Cu873  O906    1.960   .     S
Cu873  Cu874   2.677   .     S
Cu873  N899    2.012   .     S
Cu873  O904    1.972   .     S
Cu873  O901    1.962   .     S
Cu873  O908    1.962   .     S
Cu874  O907    1.962   .     S
Cu874  N900    2.011   .     S
Cu874  O905    1.962   .     S
Cu874  O903    1.960   .     S
Cu874  O909    1.972   .     S
H884   C1004   1.111   1_455 S
H898   C227    1.082   1_556 S
C911   C919    1.444   .     S
C911   O973    1.289   .     A
C911   O971    1.289   .     A
C912   C914    1.483   .     S
C912   C933    1.431   .     A
C912   C929    1.399   .     A
C913   C919    1.398   .     A
C913   H950    1.084   .     S
C913   C1125   1.393   .     S
C914   O975    1.286   .     A
C914   O974    1.310   .     A
C915   C916    1.411   .     A
C915   O980    1.386   .     S
C916   C917    1.401   .     A
C916   C925    1.450   .     S
C917   H956    1.084   .     S
C918   H962    1.084   .     S
C918   C919    1.397   .     A
C918   C1127   1.383   .     S
C920   H963    1.082   .     S
C920   N970    1.367   .     A
C920   C991    1.416   .     S
C921   H964    1.082   .     S
C921   N969    1.367   .     A
C922   C933    1.424   .     A
C922   C301    1.428   1_556 S
C922   C307    1.428   1_556 S
C923   N969    1.367   .     A
C923   H965    1.082   .     S
C924   H966    1.081   .     S
C924   N970    1.367   .     A
C924   C993    1.416   .     S
C925   O977    1.289   .     A
C925   O976    1.292   .     A
C926   O978    1.291   .     A
C926   C928    1.455   .     S
C926   O979    1.293   .     A
C927   C942    1.389   .     A
C928   C942    1.398   .     A
C928   C941    1.397   .     A
C929   C930    1.385   .     A
C929   H947    1.083   .     S
C930   C301    1.392   1_556 S
C930   H318    1.079   1_556 S
C931   O972    1.381   .     S
C932   H952    1.113   .     S
C932   C934    1.522   .     S
C932   H951    1.114   .     S
C932   O980    1.413   .     S
C933   C940    1.418   .     A
C934   H955    1.110   .     S
C934   H953    1.111   .     S
C934   H1024   1.111   .     S
C935   H958    1.115   .     S
C935   H957    1.115   .     S
C935   C936    1.521   .     S
C935   O972    1.413   .     S
C936   H961    1.110   .     S
C936   H960    1.110   .     S
C936   H959    1.110   .     S
C937   C941    1.397   .     A
C938   C939    1.383   .     A
C938   C297    1.399   1_556 S
C938   C307    1.417   1_556 S
C939   C940    1.380   .     A
C939   H967    1.085   .     S
C940   H949    1.075   .     S
C941   H946    1.076   .     S
C942   H945    1.083   .     S
Cu943  O976    1.960   .     S
Cu943  Cu944   2.677   .     S
Cu943  N969    2.012   .     S
Cu943  O974    1.972   .     S
Cu943  O971    1.962   .     S
Cu943  O978    1.962   .     S
Cu944  O977    1.962   .     S
Cu944  N970    2.011   .     S
Cu944  O975    1.962   .     S
Cu944  O973    1.960   .     S
Cu944  O979    1.972   .     S
H968   C297    1.082   1_556 S
C981   C989    1.444   .     S
C981   O1043   1.289   .     A
C981   O1041   1.289   .     A
C982   C984    1.483   .     S
C982   C1003   1.431   .     A
C982   C999    1.399   .     A
C983   C989    1.398   .     A
C983   H1020   1.084   .     S
C983   C1195   1.393   .     S
C984   O1045   1.286   .     A
C984   O1044   1.310   .     A
C985   C986    1.411   .     A
C985   O1050   1.386   .     S
C986   C987    1.401   .     A
C986   C995    1.450   .     S
C987   H1026   1.084   .     S
C988   H1032   1.084   .     S
C988   C989    1.397   .     A
C988   C1197   1.383   .     S
C990   H1033   1.082   .     S
C990   N1040   1.367   .     A
C990   C851    1.416   1_655 S
C991   H1034   1.082   .     S
C991   N1039   1.367   .     A
C992   C1003   1.424   .     A
C992   C371    1.428   1_556 S
C992   C377    1.428   1_556 S
C993   N1039   1.367   .     A
C993   H1035   1.082   .     S
C994   H1036   1.081   .     S
C994   N1040   1.367   .     A
C994   C853    1.416   1_655 S
C995   O1047   1.289   .     A
C995   O1046   1.292   .     A
C996   O1048   1.291   .     A
C996   C998    1.455   .     S
C996   O1049   1.293   .     A
C997   C1012   1.389   .     A
C998   C1012   1.398   .     A
C998   C1011   1.397   .     A
C999   C1000   1.385   .     A
C999   H1017   1.083   .     S
C1000  C371    1.392   1_556 S
C1000  H388    1.079   1_556 S
C1001  O1042   1.381   .     S
C1002  H1022   1.113   .     S
C1002  C1004   1.522   .     S
C1002  H1021   1.114   .     S
C1002  O1050   1.413   .     S
C1003  C1010   1.418   .     A
C1004  H1025   1.110   .     S
C1004  H1023   1.111   .     S
C1004  H884    1.111   1_655 S
C1005  H1028   1.115   .     S
C1005  H1027   1.115   .     S
C1005  C1006   1.521   .     S
C1005  O1042   1.413   .     S
C1006  H1031   1.110   .     S
C1006  H1030   1.110   .     S
C1006  H1029   1.110   .     S
C1007  C1011   1.397   .     A
C1008  C1009   1.383   .     A
C1008  C367    1.399   1_556 S
C1008  C377    1.417   1_556 S
C1009  C1010   1.380   .     A
C1009  H1037   1.085   .     S
C1010  H1019   1.075   .     S
C1011  H1016   1.076   .     S
C1012  H1015   1.083   .     S
Cu1013 O1046   1.960   .     S
Cu1013 Cu1014  2.677   .     S
Cu1013 N1039   2.012   .     S
Cu1013 O1044   1.972   .     S
Cu1013 O1041   1.962   .     S
Cu1013 O1048   1.962   .     S
Cu1014 O1047   1.962   .     S
Cu1014 N1040   2.011   .     S
Cu1014 O1045   1.962   .     S
Cu1014 O1043   1.960   .     S
Cu1014 O1049   1.972   .     S
H1038  C367    1.082   1_556 S
C1051  C1059   1.444   .     S
C1051  O1113   1.289   .     A
C1051  O1111   1.289   .     A
C1052  C1054   1.483   .     S
C1052  C1073   1.431   .     A
C1052  C1069   1.399   .     A
C1053  C1059   1.398   .     A
C1053  H1090   1.084   .     S
C1053  C635    1.393   1_565 S
C1054  O1115   1.286   .     A
C1054  O1114   1.310   .     A
C1055  C1056   1.411   .     A
C1055  O1120   1.386   .     S
C1056  C1057   1.401   .     A
C1056  C1065   1.450   .     S
C1057  H1096   1.084   .     S
C1058  H1102   1.084   .     S
C1058  C1059   1.397   .     A
C1058  C637    1.383   1_565 S
C1060  H1103   1.082   .     S
C1060  N1110   1.367   .     A
C1060  C1131   1.416   .     S
C1061  H1104   1.082   .     S
C1061  N1109   1.367   .     A
C1061  C1200   1.416   1_455 S
C1062  C1073   1.424   .     A
C1062  C441    1.428   1_556 S
C1062  C447    1.428   1_556 S
C1063  N1109   1.367   .     A
C1063  H1105   1.082   .     S
C1063  C1204   1.416   1_455 S
C1064  H1106   1.081   .     S
C1064  N1110   1.367   .     A
C1064  C1133   1.416   .     S
C1065  O1117   1.289   .     A
C1065  O1116   1.292   .     A
C1066  O1118   1.291   .     A
C1066  C1068   1.455   .     S
C1066  O1119   1.293   .     A
C1067  C1082   1.389   .     A
C1068  C1082   1.398   .     A
C1068  C1081   1.397   .     A
C1069  C1070   1.385   .     A
C1069  H1087   1.083   .     S
C1070  C441    1.392   1_556 S
C1070  H458    1.079   1_556 S
C1071  O1112   1.381   .     S
C1072  H1092   1.113   .     S
C1072  C1074   1.522   .     S
C1072  H1091   1.114   .     S
C1072  O1120   1.413   .     S
C1073  C1080   1.418   .     A
C1074  H1095   1.110   .     S
C1074  H1093   1.111   .     S
C1074  H1164   1.111   .     S
C1075  H1098   1.115   .     S
C1075  H1097   1.115   .     S
C1075  C1076   1.521   .     S
C1075  O1112   1.413   .     S
C1076  H1101   1.110   .     S
C1076  H1100   1.110   .     S
C1076  H1099   1.110   .     S
C1077  C1081   1.397   .     A
C1078  C1079   1.383   .     A
C1078  C437    1.399   1_556 S
C1078  C447    1.417   1_556 S
C1079  C1080   1.380   .     A
C1079  H1107   1.085   .     S
C1080  H1089   1.075   .     S
C1081  H1086   1.076   .     S
C1082  H1085   1.083   .     S
Cu1083 O1116   1.960   .     S
Cu1083 Cu1084  2.677   .     S
Cu1083 N1109   2.012   .     S
Cu1083 O1114   1.972   .     S
Cu1083 O1111   1.962   .     S
Cu1083 O1118   1.962   .     S
Cu1084 O1117   1.962   .     S
Cu1084 N1110   2.011   .     S
Cu1084 O1115   1.962   .     S
Cu1084 O1113   1.960   .     S
Cu1084 O1119   1.972   .     S
H1094  C1214   1.111   1_455 S
H1108  C437    1.082   1_556 S
C1121  C1129   1.444   .     S
C1121  O1183   1.289   .     A
C1121  O1181   1.289   .     A
C1122  C1124   1.483   .     S
C1122  C1143   1.431   .     A
C1122  C1139   1.399   .     A
C1123  C1129   1.398   .     A
C1123  H1160   1.084   .     S
C1123  C705    1.393   1_565 S
C1124  O1185   1.286   .     A
C1124  O1184   1.310   .     A
C1125  C1126   1.411   .     A
C1125  O1190   1.386   .     S
C1126  C1127   1.401   .     A
C1126  C1135   1.450   .     S
C1127  H1166   1.084   .     S
C1128  H1172   1.084   .     S
C1128  C1129   1.397   .     A
C1128  C707    1.383   1_565 S
C1130  H1173   1.082   .     S
C1130  N1180   1.367   .     A
C1130  C1201   1.416   .     S
C1131  H1174   1.082   .     S
C1131  N1179   1.367   .     A
C1132  C1143   1.424   .     A
C1132  C511    1.428   1_556 S
C1132  C517    1.428   1_556 S
C1133  N1179   1.367   .     A
C1133  H1175   1.082   .     S
C1134  H1176   1.081   .     S
C1134  N1180   1.367   .     A
C1134  C1203   1.416   .     S
C1135  O1187   1.289   .     A
C1135  O1186   1.292   .     A
C1136  O1188   1.291   .     A
C1136  C1138   1.455   .     S
C1136  O1189   1.293   .     A
C1137  C1152   1.389   .     A
C1138  C1152   1.398   .     A
C1138  C1151   1.397   .     A
C1139  C1140   1.385   .     A
C1139  H1157   1.083   .     S
C1140  C511    1.392   1_556 S
C1140  H528    1.079   1_556 S
C1141  O1182   1.381   .     S
C1142  H1162   1.113   .     S
C1142  C1144   1.522   .     S
C1142  H1161   1.114   .     S
C1142  O1190   1.413   .     S
C1143  C1150   1.418   .     A
C1144  H1165   1.110   .     S
C1144  H1163   1.111   .     S
C1144  H1234   1.111   .     S
C1145  H1168   1.115   .     S
C1145  H1167   1.115   .     S
C1145  C1146   1.521   .     S
C1145  O1182   1.413   .     S
C1146  H1171   1.110   .     S
C1146  H1170   1.110   .     S
C1146  H1169   1.110   .     S
C1147  C1151   1.397   .     A
C1148  C1149   1.383   .     A
C1148  C507    1.399   1_556 S
C1148  C517    1.417   1_556 S
C1149  C1150   1.380   .     A
C1149  H1177   1.085   .     S
C1150  H1159   1.075   .     S
C1151  H1156   1.076   .     S
C1152  H1155   1.083   .     S
Cu1153 O1186   1.960   .     S
Cu1153 Cu1154  2.677   .     S
Cu1153 N1179   2.012   .     S
Cu1153 O1184   1.972   .     S
Cu1153 O1181   1.962   .     S
Cu1153 O1188   1.962   .     S
Cu1154 O1187   1.962   .     S
Cu1154 N1180   2.011   .     S
Cu1154 O1185   1.962   .     S
Cu1154 O1183   1.960   .     S
Cu1154 O1189   1.972   .     S
H1178  C507    1.082   1_556 S
C1191  C1199   1.444   .     S
C1191  O1253   1.289   .     A
C1191  O1251   1.289   .     A
C1192  C1194   1.483   .     S
C1192  C1213   1.431   .     A
C1192  C1209   1.399   .     A
C1193  C1199   1.398   .     A
C1193  H1230   1.084   .     S
C1193  C775    1.393   1_565 S
C1194  O1255   1.286   .     A
C1194  O1254   1.310   .     A
C1195  C1196   1.411   .     A
C1195  O1260   1.386   .     S
C1196  C1197   1.401   .     A
C1196  C1205   1.450   .     S
C1197  H1236   1.084   .     S
C1198  H1242   1.084   .     S
C1198  C1199   1.397   .     A
C1198  C777    1.383   1_565 S
C1200  H1243   1.082   .     S
C1200  N1250   1.367   .     A
C1200  C1061   1.416   1_655 S
C1201  H1244   1.082   .     S
C1201  N1249   1.367   .     A
C1202  C1213   1.424   .     A
C1202  C581    1.428   1_556 S
C1202  C587    1.428   1_556 S
C1203  N1249   1.367   .     A
C1203  H1245   1.082   .     S
C1204  H1246   1.081   .     S
C1204  N1250   1.367   .     A
C1204  C1063   1.416   1_655 S
C1205  O1257   1.289   .     A
C1205  O1256   1.292   .     A
C1206  O1258   1.291   .     A
C1206  C1208   1.455   .     S
C1206  O1259   1.293   .     A
C1207  C1222   1.389   .     A
C1208  C1222   1.398   .     A
C1208  C1221   1.397   .     A
C1209  C1210   1.385   .     A
C1209  H1227   1.083   .     S
C1210  C581    1.392   1_556 S
C1210  H598    1.079   1_556 S
C1211  O1252   1.381   .     S
C1212  H1232   1.113   .     S
C1212  C1214   1.522   .     S
C1212  H1231   1.114   .     S
C1212  O1260   1.413   .     S
C1213  C1220   1.418   .     A
C1214  H1235   1.110   .     S
C1214  H1233   1.111   .     S
C1214  H1094   1.111   1_655 S
C1215  H1238   1.115   .     S
C1215  H1237   1.115   .     S
C1215  C1216   1.521   .     S
C1215  O1252   1.413   .     S
C1216  H1241   1.110   .     S
C1216  H1240   1.110   .     S
C1216  H1239   1.110   .     S
C1217  C1221   1.397   .     A
C1218  C1219   1.383   .     A
C1218  C577    1.399   1_556 S
C1218  C587    1.417   1_556 S
C1219  C1220   1.380   .     A
C1219  H1247   1.085   .     S
C1220  H1229   1.075   .     S
C1221  H1226   1.076   .     S
C1222  H1225   1.083   .     S
Cu1223 O1256   1.960   .     S
Cu1223 Cu1224  2.677   .     S
Cu1223 N1249   2.012   .     S
Cu1223 O1254   1.972   .     S
Cu1223 O1251   1.962   .     S
Cu1223 O1258   1.962   .     S
Cu1224 O1257   1.962   .     S
Cu1224 N1250   2.011   .     S
Cu1224 O1255   1.962   .     S
Cu1224 O1253   1.960   .     S
Cu1224 O1259   1.972   .     S
H1248  C577    1.082   1_556 S
