data_str_m2_o1_o16_pcu_sym.35
_audit_creation_date              2020-01-03
_audit_creation_method            'Materials Studio'
_symmetry_space_group_name_H-M    'P1'
_symmetry_Int_Tables_number       1
_symmetry_cell_setting            triclinic
loop_
_symmetry_equiv_pos_as_xyz
  x,y,z
_cell_length_a                    28.5477
_cell_length_b                    32.4877
_cell_length_c                    26.8616
_cell_angle_alpha                 90.3664
_cell_angle_beta                  72.4577
_cell_angle_gamma                 89.9917
loop_
_atom_site_label
_atom_site_type_symbol
_atom_site_fract_x
_atom_site_fract_y
_atom_site_fract_z
_atom_site_U_iso_or_equiv
_atom_site_adp_type
_atom_site_occupancy
C1     C     0.16662   0.24598   0.25018   0.00000  Uiso   1.00
C2     C     0.12443   0.16204   0.40752   0.00000  Uiso   1.00
C3     C     0.20703   0.31208   0.25650   0.00000  Uiso   1.00
C4     C     0.14044   0.16437   0.35007   0.00000  Uiso   1.00
C5     C     0.20697   0.02133   0.25660   0.00000  Uiso   1.00
C6     C     0.16653   0.04275   0.25039   0.00000  Uiso   1.00
C7     C     0.12594   0.02127   0.24453   0.00000  Uiso   1.00
C8     C     0.12592   0.31202   0.24462   0.00000  Uiso   1.00
C9     C     0.16653   0.29060   0.25042   0.00000  Uiso   1.00
C10    C     0.29869   0.19186   0.28374   0.00000  Uiso   1.00
C11    C     0.01571   0.19194   0.28289   0.00000  Uiso   1.00
C12    C     0.14467   0.15888   0.48971   0.00000  Uiso   1.00
C13    C     0.03432   0.14147   0.21700   0.00000  Uiso   1.00
C14    C     0.31748   0.14073   0.21724   0.00000  Uiso   1.00
C15    C     0.16663   0.08736   0.25010   0.00000  Uiso   1.00
C16    C     0.19293   0.16592   0.14992   0.00000  Uiso   1.00
C17    C     0.26336   0.13122   0.01434   0.00000  Uiso   1.00
C18    C     0.20789   0.16002   0.09325   0.00000  Uiso   1.00
C19    C     0.07695   0.17573   0.43479   0.00000  Uiso   1.00
C20    C     0.06260   0.17959   0.48871   0.00000  Uiso   1.00
C21    C     0.09608   0.17214   0.01598   0.00000  Uiso   1.00
C22    C     0.26993   0.22389   0.36512   0.00000  Uiso   1.00
C23    C     0.15699   0.14983   0.43569   0.00000  Uiso   1.00
C24    C     0.32284   0.07694   0.17620   0.00000  Uiso   1.00
C25    C     0.18116   0.15388   0.01542   0.00000  Uiso   1.00
C26    C     0.22740   0.13584   0.48850   0.00000  Uiso   1.00
C27    C     0.23644   0.12186   0.43684   0.00000  Uiso   1.00
C28    C     0.20092   0.12822   0.41151   0.00000  Uiso   1.00
C29    C     0.17319   0.16699   0.06716   0.00000  Uiso   1.00
C30    C     0.25351   0.14297   0.06641   0.00000  Uiso   1.00
Cu31   Cu    0.11978   0.16666   0.25000   0.00000  Uiso   1.00
Cu32   Cu    0.21355   0.16667   0.25000   0.00000  Uiso   1.00
H33    H     0.28086   0.13732   0.08610   0.00000  Uiso   1.00
H34    H     0.08226   0.17601   0.05772   0.00000  Uiso   1.00
H35    H     0.02567   0.18968   0.00943   0.00000  Uiso   1.00
H36    H     0.20781   0.11513   0.37292   0.00000  Uiso   1.00
H37    H     0.23862   0.29608   0.26140   0.00000  Uiso   1.00
H38    H     0.29732   0.24830   0.36449   0.00000  Uiso   1.00
H39    H     0.28004   0.19472   0.38086   0.00000  Uiso   1.00
H40    H     0.23428   0.23416   0.39238   0.00000  Uiso   1.00
H41    H     0.29914   0.05604   0.16156   0.00000  Uiso   1.00
H42    H     0.32524   0.06396   0.21366   0.00000  Uiso   1.00
H43    H     0.02618   0.07729   0.14633   0.00000  Uiso   1.00
H44    H     0.23841   0.03739   0.26179   0.00000  Uiso   1.00
H45    H     0.28083   0.08964   0.37401   0.00000  Uiso   1.00
H46    H     0.30959   0.12373   0.40151   0.00000  Uiso   1.00
H47    H     0.09433   0.03728   0.23965   0.00000  Uiso   1.00
H48    H     0.09428   0.29596   0.23984   0.00000  Uiso   1.00
H49    H     0.02832   0.21256   0.30785   0.00000  Uiso   1.00
H50    H     0.06153   0.12233   0.19012   0.00000  Uiso   1.00
H51    H     0.29881   0.11752   0.49498   0.00000  Uiso   1.00
H52    H     0.13991   0.18268   0.08852   0.00000  Uiso   1.00
H53    H     0.05103   0.18428   0.41432   0.00000  Uiso   1.00
N54    N     0.04931   0.16666   0.24998   0.00000  Uiso   1.00
N55    N     0.28402   0.16669   0.25000   0.00000  Uiso   1.00
N56    N     0.28189   0.10147   0.40995   0.00000  Uiso   1.00
O57    O     0.12708   0.22678   0.25000   0.00000  Uiso   1.00
O58    O     0.30170   0.11666   0.18248   0.00000  Uiso   1.00
O59    O     0.20627   0.22679   0.25000   0.00000  Uiso   1.00
O60    O     0.10775   0.16665   0.32549   0.00000  Uiso   1.00
O61    O     0.18694   0.16666   0.32549   0.00000  Uiso   1.00
O62    O     0.12706   0.10654   0.24999   0.00000  Uiso   1.00
O63    O     0.20625   0.10655   0.25000   0.00000  Uiso   1.00
O64    O     0.14640   0.16667   0.17451   0.00000  Uiso   1.00
O65    O     0.22559   0.16668   0.17451   0.00000  Uiso   1.00
O66    O     0.26423   0.21884   0.31501   0.00000  Uiso   1.00
C67    C     0.49996   0.24598   0.25018   0.00000  Uiso   1.00
C68    C     0.45776   0.16204   0.40752   0.00000  Uiso   1.00
C69    C     0.54036   0.31208   0.25650   0.00000  Uiso   1.00
C70    C     0.47377   0.16437   0.35007   0.00000  Uiso   1.00
C71    C     0.54030   0.02133   0.25660   0.00000  Uiso   1.00
C72    C     0.49986   0.04275   0.25039   0.00000  Uiso   1.00
C73    C     0.45927   0.02127   0.24453   0.00000  Uiso   1.00
C74    C     0.45925   0.31202   0.24462   0.00000  Uiso   1.00
C75    C     0.49986   0.29060   0.25042   0.00000  Uiso   1.00
C76    C     0.63203   0.19186   0.28374   0.00000  Uiso   1.00
C77    C     0.34905   0.19194   0.28289   0.00000  Uiso   1.00
C78    C     0.47801   0.15888   0.48971   0.00000  Uiso   1.00
C79    C     0.36765   0.14147   0.21700   0.00000  Uiso   1.00
C80    C     0.65081   0.14073   0.21724   0.00000  Uiso   1.00
C81    C     0.49996   0.08736   0.25010   0.00000  Uiso   1.00
C82    C     0.52627   0.16592   0.14992   0.00000  Uiso   1.00
C83    C     0.59669   0.13122   0.01434   0.00000  Uiso   1.00
C84    C     0.54122   0.16002   0.09325   0.00000  Uiso   1.00
C85    C     0.41029   0.17573   0.43479   0.00000  Uiso   1.00
C86    C     0.39593   0.17959   0.48871   0.00000  Uiso   1.00
C87    C     0.42941   0.17214   0.01598   0.00000  Uiso   1.00
C88    C     0.60326   0.22389   0.36512   0.00000  Uiso   1.00
C89    C     0.49032   0.14983   0.43569   0.00000  Uiso   1.00
C90    C     0.65618   0.07694   0.17620   0.00000  Uiso   1.00
C91    C     0.51450   0.15388   0.01542   0.00000  Uiso   1.00
C92    C     0.56074   0.13584   0.48850   0.00000  Uiso   1.00
C93    C     0.56977   0.12186   0.43684   0.00000  Uiso   1.00
C94    C     0.53425   0.12822   0.41151   0.00000  Uiso   1.00
C95    C     0.50652   0.16699   0.06716   0.00000  Uiso   1.00
C96    C     0.58685   0.14297   0.06641   0.00000  Uiso   1.00
Cu97   Cu    0.45311   0.16666   0.25000   0.00000  Uiso   1.00
Cu98   Cu    0.54689   0.16667   0.25000   0.00000  Uiso   1.00
H99    H     0.61419   0.13732   0.08610   0.00000  Uiso   1.00
H100   H     0.41559   0.17601   0.05772   0.00000  Uiso   1.00
H101   H     0.35900   0.18968   0.00943   0.00000  Uiso   1.00
H102   H     0.54114   0.11513   0.37292   0.00000  Uiso   1.00
H103   H     0.57195   0.29608   0.26140   0.00000  Uiso   1.00
H104   H     0.63066   0.24830   0.36449   0.00000  Uiso   1.00
H105   H     0.61337   0.19472   0.38086   0.00000  Uiso   1.00
H106   H     0.56762   0.23416   0.39238   0.00000  Uiso   1.00
H107   H     0.63247   0.05604   0.16156   0.00000  Uiso   1.00
H108   H     0.65857   0.06396   0.21366   0.00000  Uiso   1.00
H109   H     0.35951   0.07729   0.14633   0.00000  Uiso   1.00
H110   H     0.57175   0.03739   0.26179   0.00000  Uiso   1.00
H111   H     0.61417   0.08964   0.37401   0.00000  Uiso   1.00
H112   H     0.64292   0.12373   0.40151   0.00000  Uiso   1.00
H113   H     0.42767   0.03728   0.23965   0.00000  Uiso   1.00
H114   H     0.42761   0.29596   0.23984   0.00000  Uiso   1.00
H115   H     0.36165   0.21256   0.30785   0.00000  Uiso   1.00
H116   H     0.39486   0.12233   0.19012   0.00000  Uiso   1.00
H117   H     0.63214   0.11752   0.49498   0.00000  Uiso   1.00
H118   H     0.47325   0.18268   0.08852   0.00000  Uiso   1.00
H119   H     0.38436   0.18428   0.41432   0.00000  Uiso   1.00
N120   N     0.38265   0.16666   0.24998   0.00000  Uiso   1.00
N121   N     0.61735   0.16669   0.25000   0.00000  Uiso   1.00
N122   N     0.61523   0.10147   0.40995   0.00000  Uiso   1.00
O123   O     0.46042   0.22678   0.25000   0.00000  Uiso   1.00
O124   O     0.63503   0.11666   0.18248   0.00000  Uiso   1.00
O125   O     0.53961   0.22679   0.25000   0.00000  Uiso   1.00
O126   O     0.44108   0.16665   0.32549   0.00000  Uiso   1.00
O127   O     0.52027   0.16666   0.32549   0.00000  Uiso   1.00
O128   O     0.46039   0.10654   0.24999   0.00000  Uiso   1.00
O129   O     0.53958   0.10655   0.25000   0.00000  Uiso   1.00
O130   O     0.47973   0.16667   0.17451   0.00000  Uiso   1.00
O131   O     0.55892   0.16668   0.17451   0.00000  Uiso   1.00
O132   O     0.59757   0.21884   0.31501   0.00000  Uiso   1.00
C133   C     0.83329   0.24598   0.25018   0.00000  Uiso   1.00
C134   C     0.79110   0.16204   0.40752   0.00000  Uiso   1.00
C135   C     0.87369   0.31208   0.25650   0.00000  Uiso   1.00
C136   C     0.80711   0.16437   0.35007   0.00000  Uiso   1.00
C137   C     0.87363   0.02133   0.25660   0.00000  Uiso   1.00
C138   C     0.83319   0.04275   0.25039   0.00000  Uiso   1.00
C139   C     0.79260   0.02127   0.24453   0.00000  Uiso   1.00
C140   C     0.79258   0.31202   0.24462   0.00000  Uiso   1.00
C141   C     0.83319   0.29060   0.25042   0.00000  Uiso   1.00
C142   C     0.96536   0.19186   0.28374   0.00000  Uiso   1.00
C143   C     0.68238   0.19194   0.28289   0.00000  Uiso   1.00
C144   C     0.81134   0.15888   0.48971   0.00000  Uiso   1.00
C145   C     0.70099   0.14147   0.21700   0.00000  Uiso   1.00
C146   C     0.98415   0.14073   0.21724   0.00000  Uiso   1.00
C147   C     0.83329   0.08736   0.25010   0.00000  Uiso   1.00
C148   C     0.85960   0.16592   0.14992   0.00000  Uiso   1.00
C149   C     0.93002   0.13122   0.01434   0.00000  Uiso   1.00
C150   C     0.87456   0.16002   0.09325   0.00000  Uiso   1.00
C151   C     0.74362   0.17573   0.43479   0.00000  Uiso   1.00
C152   C     0.72927   0.17959   0.48871   0.00000  Uiso   1.00
C153   C     0.76275   0.17214   0.01598   0.00000  Uiso   1.00
C154   C     0.93660   0.22389   0.36512   0.00000  Uiso   1.00
C155   C     0.82365   0.14983   0.43569   0.00000  Uiso   1.00
C156   C     0.98951   0.07694   0.17620   0.00000  Uiso   1.00
C157   C     0.84783   0.15388   0.01542   0.00000  Uiso   1.00
C158   C     0.89407   0.13584   0.48850   0.00000  Uiso   1.00
C159   C     0.90310   0.12186   0.43684   0.00000  Uiso   1.00
C160   C     0.86759   0.12822   0.41151   0.00000  Uiso   1.00
C161   C     0.83985   0.16699   0.06716   0.00000  Uiso   1.00
C162   C     0.92018   0.14297   0.06641   0.00000  Uiso   1.00
Cu163  Cu    0.78645   0.16666   0.25000   0.00000  Uiso   1.00
Cu164  Cu    0.88022   0.16667   0.25000   0.00000  Uiso   1.00
H165   H     0.94753   0.13732   0.08610   0.00000  Uiso   1.00
H166   H     0.74892   0.17601   0.05772   0.00000  Uiso   1.00
H167   H     0.69233   0.18968   0.00943   0.00000  Uiso   1.00
H168   H     0.87447   0.11513   0.37292   0.00000  Uiso   1.00
H169   H     0.90529   0.29608   0.26140   0.00000  Uiso   1.00
H170   H     0.96399   0.24830   0.36449   0.00000  Uiso   1.00
H171   H     0.94671   0.19472   0.38086   0.00000  Uiso   1.00
H172   H     0.90095   0.23416   0.39238   0.00000  Uiso   1.00
H173   H     0.96580   0.05604   0.16156   0.00000  Uiso   1.00
H174   H     0.99191   0.06396   0.21366   0.00000  Uiso   1.00
H175   H     0.69285   0.07729   0.14633   0.00000  Uiso   1.00
H176   H     0.90508   0.03739   0.26179   0.00000  Uiso   1.00
H177   H     0.94750   0.08964   0.37401   0.00000  Uiso   1.00
H178   H     0.97625   0.12373   0.40151   0.00000  Uiso   1.00
H179   H     0.76100   0.03728   0.23965   0.00000  Uiso   1.00
H180   H     0.76095   0.29596   0.23984   0.00000  Uiso   1.00
H181   H     0.69499   0.21256   0.30785   0.00000  Uiso   1.00
H182   H     0.72820   0.12233   0.19012   0.00000  Uiso   1.00
H183   H     0.96547   0.11752   0.49498   0.00000  Uiso   1.00
H184   H     0.80658   0.18268   0.08852   0.00000  Uiso   1.00
H185   H     0.71770   0.18428   0.41432   0.00000  Uiso   1.00
N186   N     0.71598   0.16666   0.24998   0.00000  Uiso   1.00
N187   N     0.95069   0.16669   0.25000   0.00000  Uiso   1.00
N188   N     0.94856   0.10147   0.40995   0.00000  Uiso   1.00
O189   O     0.79375   0.22678   0.25000   0.00000  Uiso   1.00
O190   O     0.96836   0.11666   0.18248   0.00000  Uiso   1.00
O191   O     0.87294   0.22679   0.25000   0.00000  Uiso   1.00
O192   O     0.77441   0.16665   0.32549   0.00000  Uiso   1.00
O193   O     0.85360   0.16666   0.32549   0.00000  Uiso   1.00
O194   O     0.79373   0.10654   0.24999   0.00000  Uiso   1.00
O195   O     0.87292   0.10655   0.25000   0.00000  Uiso   1.00
O196   O     0.81306   0.16667   0.17451   0.00000  Uiso   1.00
O197   O     0.89225   0.16668   0.17451   0.00000  Uiso   1.00
O198   O     0.93090   0.21884   0.31501   0.00000  Uiso   1.00
C199   C     0.16662   0.57931   0.25018   0.00000  Uiso   1.00
C200   C     0.12443   0.49537   0.40752   0.00000  Uiso   1.00
C201   C     0.20703   0.64541   0.25650   0.00000  Uiso   1.00
C202   C     0.14044   0.49770   0.35007   0.00000  Uiso   1.00
C203   C     0.20697   0.35466   0.25660   0.00000  Uiso   1.00
C204   C     0.16653   0.37608   0.25039   0.00000  Uiso   1.00
C205   C     0.12594   0.35460   0.24453   0.00000  Uiso   1.00
C206   C     0.12592   0.64535   0.24462   0.00000  Uiso   1.00
C207   C     0.16653   0.62393   0.25042   0.00000  Uiso   1.00
C208   C     0.29869   0.52520   0.28374   0.00000  Uiso   1.00
C209   C     0.01571   0.52527   0.28289   0.00000  Uiso   1.00
C210   C     0.14467   0.49221   0.48971   0.00000  Uiso   1.00
C211   C     0.03432   0.47480   0.21700   0.00000  Uiso   1.00
C212   C     0.31748   0.47406   0.21724   0.00000  Uiso   1.00
C213   C     0.16663   0.42069   0.25010   0.00000  Uiso   1.00
C214   C     0.19293   0.49925   0.14992   0.00000  Uiso   1.00
C215   C     0.26336   0.46455   0.01434   0.00000  Uiso   1.00
C216   C     0.20789   0.49336   0.09325   0.00000  Uiso   1.00
C217   C     0.07695   0.50906   0.43479   0.00000  Uiso   1.00
C218   C     0.06260   0.51292   0.48871   0.00000  Uiso   1.00
C219   C     0.09608   0.50547   0.01598   0.00000  Uiso   1.00
C220   C     0.26993   0.55722   0.36512   0.00000  Uiso   1.00
C221   C     0.15699   0.48316   0.43569   0.00000  Uiso   1.00
C222   C     0.32284   0.41028   0.17620   0.00000  Uiso   1.00
C223   C     0.18116   0.48721   0.01542   0.00000  Uiso   1.00
C224   C     0.22740   0.46917   0.48850   0.00000  Uiso   1.00
C225   C     0.23644   0.45519   0.43684   0.00000  Uiso   1.00
C226   C     0.20092   0.46155   0.41151   0.00000  Uiso   1.00
C227   C     0.17319   0.50032   0.06716   0.00000  Uiso   1.00
C228   C     0.25351   0.47631   0.06641   0.00000  Uiso   1.00
Cu229  Cu    0.11978   0.49999   0.25000   0.00000  Uiso   1.00
Cu230  Cu    0.21355   0.50001   0.25000   0.00000  Uiso   1.00
H231   H     0.28086   0.47066   0.08610   0.00000  Uiso   1.00
H232   H     0.08226   0.50935   0.05772   0.00000  Uiso   1.00
H233   H     0.02567   0.52301   0.00943   0.00000  Uiso   1.00
H234   H     0.20781   0.44846   0.37292   0.00000  Uiso   1.00
H235   H     0.23862   0.62941   0.26140   0.00000  Uiso   1.00
H236   H     0.29732   0.58163   0.36449   0.00000  Uiso   1.00
H237   H     0.28004   0.52805   0.38086   0.00000  Uiso   1.00
H238   H     0.23428   0.56750   0.39238   0.00000  Uiso   1.00
H239   H     0.29914   0.38938   0.16156   0.00000  Uiso   1.00
H240   H     0.32524   0.39729   0.21366   0.00000  Uiso   1.00
H241   H     0.02618   0.41062   0.14633   0.00000  Uiso   1.00
H242   H     0.23841   0.37073   0.26179   0.00000  Uiso   1.00
H243   H     0.28083   0.42298   0.37401   0.00000  Uiso   1.00
H244   H     0.30959   0.45706   0.40151   0.00000  Uiso   1.00
H245   H     0.09433   0.37061   0.23965   0.00000  Uiso   1.00
H246   H     0.09428   0.62930   0.23984   0.00000  Uiso   1.00
H247   H     0.02832   0.54589   0.30785   0.00000  Uiso   1.00
H248   H     0.06153   0.45566   0.19012   0.00000  Uiso   1.00
H249   H     0.29881   0.45086   0.49498   0.00000  Uiso   1.00
H250   H     0.13991   0.51602   0.08852   0.00000  Uiso   1.00
H251   H     0.05103   0.51761   0.41432   0.00000  Uiso   1.00
N252   N     0.04931   0.49999   0.24998   0.00000  Uiso   1.00
N253   N     0.28402   0.50002   0.25000   0.00000  Uiso   1.00
N254   N     0.28189   0.43480   0.40995   0.00000  Uiso   1.00
O255   O     0.12708   0.56011   0.25000   0.00000  Uiso   1.00
O256   O     0.30170   0.44999   0.18248   0.00000  Uiso   1.00
O257   O     0.20627   0.56012   0.25000   0.00000  Uiso   1.00
O258   O     0.10775   0.49998   0.32549   0.00000  Uiso   1.00
O259   O     0.18694   0.49999   0.32549   0.00000  Uiso   1.00
O260   O     0.12706   0.43988   0.24999   0.00000  Uiso   1.00
O261   O     0.20625   0.43989   0.25000   0.00000  Uiso   1.00
O262   O     0.14640   0.50001   0.17451   0.00000  Uiso   1.00
O263   O     0.22559   0.50002   0.17451   0.00000  Uiso   1.00
O264   O     0.26423   0.55217   0.31501   0.00000  Uiso   1.00
C265   C     0.49996   0.57931   0.25018   0.00000  Uiso   1.00
C266   C     0.45776   0.49537   0.40752   0.00000  Uiso   1.00
C267   C     0.54036   0.64541   0.25650   0.00000  Uiso   1.00
C268   C     0.47377   0.49770   0.35007   0.00000  Uiso   1.00
C269   C     0.54030   0.35466   0.25660   0.00000  Uiso   1.00
C270   C     0.49986   0.37608   0.25039   0.00000  Uiso   1.00
C271   C     0.45927   0.35460   0.24453   0.00000  Uiso   1.00
C272   C     0.45925   0.64535   0.24462   0.00000  Uiso   1.00
C273   C     0.49986   0.62393   0.25042   0.00000  Uiso   1.00
C274   C     0.63203   0.52520   0.28374   0.00000  Uiso   1.00
C275   C     0.34905   0.52527   0.28289   0.00000  Uiso   1.00
C276   C     0.47801   0.49221   0.48971   0.00000  Uiso   1.00
C277   C     0.36765   0.47480   0.21700   0.00000  Uiso   1.00
C278   C     0.65081   0.47406   0.21724   0.00000  Uiso   1.00
C279   C     0.49996   0.42069   0.25010   0.00000  Uiso   1.00
C280   C     0.52627   0.49925   0.14992   0.00000  Uiso   1.00
C281   C     0.59669   0.46455   0.01434   0.00000  Uiso   1.00
C282   C     0.54122   0.49336   0.09325   0.00000  Uiso   1.00
C283   C     0.41029   0.50906   0.43479   0.00000  Uiso   1.00
C284   C     0.39593   0.51292   0.48871   0.00000  Uiso   1.00
C285   C     0.42941   0.50547   0.01598   0.00000  Uiso   1.00
C286   C     0.60326   0.55722   0.36512   0.00000  Uiso   1.00
C287   C     0.49032   0.48316   0.43569   0.00000  Uiso   1.00
C288   C     0.65618   0.41028   0.17620   0.00000  Uiso   1.00
C289   C     0.51450   0.48721   0.01542   0.00000  Uiso   1.00
C290   C     0.56074   0.46917   0.48850   0.00000  Uiso   1.00
C291   C     0.56977   0.45519   0.43684   0.00000  Uiso   1.00
C292   C     0.53425   0.46155   0.41151   0.00000  Uiso   1.00
C293   C     0.50652   0.50032   0.06716   0.00000  Uiso   1.00
C294   C     0.58685   0.47631   0.06641   0.00000  Uiso   1.00
Cu295  Cu    0.45311   0.49999   0.25000   0.00000  Uiso   1.00
Cu296  Cu    0.54689   0.50001   0.25000   0.00000  Uiso   1.00
H297   H     0.61419   0.47066   0.08610   0.00000  Uiso   1.00
H298   H     0.41559   0.50935   0.05772   0.00000  Uiso   1.00
H299   H     0.35900   0.52301   0.00943   0.00000  Uiso   1.00
H300   H     0.54114   0.44846   0.37292   0.00000  Uiso   1.00
H301   H     0.57195   0.62941   0.26140   0.00000  Uiso   1.00
H302   H     0.63066   0.58163   0.36449   0.00000  Uiso   1.00
H303   H     0.61337   0.52805   0.38086   0.00000  Uiso   1.00
H304   H     0.56762   0.56750   0.39238   0.00000  Uiso   1.00
H305   H     0.63247   0.38938   0.16156   0.00000  Uiso   1.00
H306   H     0.65857   0.39729   0.21366   0.00000  Uiso   1.00
H307   H     0.35951   0.41062   0.14633   0.00000  Uiso   1.00
H308   H     0.57175   0.37073   0.26179   0.00000  Uiso   1.00
H309   H     0.61417   0.42298   0.37401   0.00000  Uiso   1.00
H310   H     0.64292   0.45706   0.40151   0.00000  Uiso   1.00
H311   H     0.42767   0.37061   0.23965   0.00000  Uiso   1.00
H312   H     0.42761   0.62930   0.23984   0.00000  Uiso   1.00
H313   H     0.36165   0.54589   0.30785   0.00000  Uiso   1.00
H314   H     0.39486   0.45566   0.19012   0.00000  Uiso   1.00
H315   H     0.63214   0.45086   0.49498   0.00000  Uiso   1.00
H316   H     0.47325   0.51602   0.08852   0.00000  Uiso   1.00
H317   H     0.38436   0.51761   0.41432   0.00000  Uiso   1.00
N318   N     0.38265   0.49999   0.24998   0.00000  Uiso   1.00
N319   N     0.61735   0.50002   0.25000   0.00000  Uiso   1.00
N320   N     0.61523   0.43480   0.40995   0.00000  Uiso   1.00
O321   O     0.46042   0.56011   0.25000   0.00000  Uiso   1.00
O322   O     0.63503   0.44999   0.18248   0.00000  Uiso   1.00
O323   O     0.53961   0.56012   0.25000   0.00000  Uiso   1.00
O324   O     0.44108   0.49998   0.32549   0.00000  Uiso   1.00
O325   O     0.52027   0.49999   0.32549   0.00000  Uiso   1.00
O326   O     0.46039   0.43988   0.24999   0.00000  Uiso   1.00
O327   O     0.53958   0.43989   0.25000   0.00000  Uiso   1.00
O328   O     0.47973   0.50001   0.17451   0.00000  Uiso   1.00
O329   O     0.55892   0.50002   0.17451   0.00000  Uiso   1.00
O330   O     0.59757   0.55217   0.31501   0.00000  Uiso   1.00
C331   C     0.83329   0.57931   0.25018   0.00000  Uiso   1.00
C332   C     0.79110   0.49537   0.40752   0.00000  Uiso   1.00
C333   C     0.87369   0.64541   0.25650   0.00000  Uiso   1.00
C334   C     0.80711   0.49770   0.35007   0.00000  Uiso   1.00
C335   C     0.87363   0.35466   0.25660   0.00000  Uiso   1.00
C336   C     0.83319   0.37608   0.25039   0.00000  Uiso   1.00
C337   C     0.79260   0.35460   0.24453   0.00000  Uiso   1.00
C338   C     0.79258   0.64535   0.24462   0.00000  Uiso   1.00
C339   C     0.83319   0.62393   0.25042   0.00000  Uiso   1.00
C340   C     0.96536   0.52520   0.28374   0.00000  Uiso   1.00
C341   C     0.68238   0.52527   0.28289   0.00000  Uiso   1.00
C342   C     0.81134   0.49221   0.48971   0.00000  Uiso   1.00
C343   C     0.70099   0.47480   0.21700   0.00000  Uiso   1.00
C344   C     0.98415   0.47406   0.21724   0.00000  Uiso   1.00
C345   C     0.83329   0.42069   0.25010   0.00000  Uiso   1.00
C346   C     0.85960   0.49925   0.14992   0.00000  Uiso   1.00
C347   C     0.93002   0.46455   0.01434   0.00000  Uiso   1.00
C348   C     0.87456   0.49336   0.09325   0.00000  Uiso   1.00
C349   C     0.74362   0.50906   0.43479   0.00000  Uiso   1.00
C350   C     0.72927   0.51292   0.48871   0.00000  Uiso   1.00
C351   C     0.76275   0.50547   0.01598   0.00000  Uiso   1.00
C352   C     0.93660   0.55722   0.36512   0.00000  Uiso   1.00
C353   C     0.82365   0.48316   0.43569   0.00000  Uiso   1.00
C354   C     0.98951   0.41028   0.17620   0.00000  Uiso   1.00
C355   C     0.84783   0.48721   0.01542   0.00000  Uiso   1.00
C356   C     0.89407   0.46917   0.48850   0.00000  Uiso   1.00
C357   C     0.90310   0.45519   0.43684   0.00000  Uiso   1.00
C358   C     0.86759   0.46155   0.41151   0.00000  Uiso   1.00
C359   C     0.83985   0.50032   0.06716   0.00000  Uiso   1.00
C360   C     0.92018   0.47631   0.06641   0.00000  Uiso   1.00
Cu361  Cu    0.78645   0.49999   0.25000   0.00000  Uiso   1.00
Cu362  Cu    0.88022   0.50001   0.25000   0.00000  Uiso   1.00
H363   H     0.94753   0.47066   0.08610   0.00000  Uiso   1.00
H364   H     0.74892   0.50935   0.05772   0.00000  Uiso   1.00
H365   H     0.69233   0.52301   0.00943   0.00000  Uiso   1.00
H366   H     0.87447   0.44846   0.37292   0.00000  Uiso   1.00
H367   H     0.90529   0.62941   0.26140   0.00000  Uiso   1.00
H368   H     0.96399   0.58163   0.36449   0.00000  Uiso   1.00
H369   H     0.94671   0.52805   0.38086   0.00000  Uiso   1.00
H370   H     0.90095   0.56750   0.39238   0.00000  Uiso   1.00
H371   H     0.96580   0.38938   0.16156   0.00000  Uiso   1.00
H372   H     0.99191   0.39729   0.21366   0.00000  Uiso   1.00
H373   H     0.69285   0.41062   0.14633   0.00000  Uiso   1.00
H374   H     0.90508   0.37073   0.26179   0.00000  Uiso   1.00
H375   H     0.94750   0.42298   0.37401   0.00000  Uiso   1.00
H376   H     0.97625   0.45706   0.40151   0.00000  Uiso   1.00
H377   H     0.76100   0.37061   0.23965   0.00000  Uiso   1.00
H378   H     0.76095   0.62930   0.23984   0.00000  Uiso   1.00
H379   H     0.69499   0.54589   0.30785   0.00000  Uiso   1.00
H380   H     0.72820   0.45566   0.19012   0.00000  Uiso   1.00
H381   H     0.96547   0.45086   0.49498   0.00000  Uiso   1.00
H382   H     0.80658   0.51602   0.08852   0.00000  Uiso   1.00
H383   H     0.71770   0.51761   0.41432   0.00000  Uiso   1.00
N384   N     0.71598   0.49999   0.24998   0.00000  Uiso   1.00
N385   N     0.95069   0.50002   0.25000   0.00000  Uiso   1.00
N386   N     0.94856   0.43480   0.40995   0.00000  Uiso   1.00
O387   O     0.79375   0.56011   0.25000   0.00000  Uiso   1.00
O388   O     0.96836   0.44999   0.18248   0.00000  Uiso   1.00
O389   O     0.87294   0.56012   0.25000   0.00000  Uiso   1.00
O390   O     0.77441   0.49998   0.32549   0.00000  Uiso   1.00
O391   O     0.85360   0.49999   0.32549   0.00000  Uiso   1.00
O392   O     0.79373   0.43988   0.24999   0.00000  Uiso   1.00
O393   O     0.87292   0.43989   0.25000   0.00000  Uiso   1.00
O394   O     0.81306   0.50001   0.17451   0.00000  Uiso   1.00
O395   O     0.89225   0.50002   0.17451   0.00000  Uiso   1.00
O396   O     0.93090   0.55217   0.31501   0.00000  Uiso   1.00
C397   C     0.16662   0.91265   0.25018   0.00000  Uiso   1.00
C398   C     0.12443   0.82870   0.40752   0.00000  Uiso   1.00
C399   C     0.20703   0.97875   0.25650   0.00000  Uiso   1.00
C400   C     0.14044   0.83103   0.35007   0.00000  Uiso   1.00
C401   C     0.20697   0.68800   0.25660   0.00000  Uiso   1.00
C402   C     0.16653   0.70942   0.25039   0.00000  Uiso   1.00
C403   C     0.12594   0.68794   0.24453   0.00000  Uiso   1.00
C404   C     0.12592   0.97869   0.24462   0.00000  Uiso   1.00
C405   C     0.16653   0.95726   0.25042   0.00000  Uiso   1.00
C406   C     0.29869   0.85853   0.28374   0.00000  Uiso   1.00
C407   C     0.01571   0.85860   0.28289   0.00000  Uiso   1.00
C408   C     0.14467   0.82554   0.48971   0.00000  Uiso   1.00
C409   C     0.03432   0.80813   0.21700   0.00000  Uiso   1.00
C410   C     0.31748   0.80740   0.21724   0.00000  Uiso   1.00
C411   C     0.16663   0.75402   0.25010   0.00000  Uiso   1.00
C412   C     0.19293   0.83258   0.14992   0.00000  Uiso   1.00
C413   C     0.26336   0.79788   0.01434   0.00000  Uiso   1.00
C414   C     0.20789   0.82669   0.09325   0.00000  Uiso   1.00
C415   C     0.07695   0.84240   0.43479   0.00000  Uiso   1.00
C416   C     0.06260   0.84625   0.48871   0.00000  Uiso   1.00
C417   C     0.09608   0.83881   0.01598   0.00000  Uiso   1.00
C418   C     0.26993   0.89055   0.36512   0.00000  Uiso   1.00
C419   C     0.15699   0.81650   0.43569   0.00000  Uiso   1.00
C420   C     0.32284   0.74361   0.17620   0.00000  Uiso   1.00
C421   C     0.18116   0.82055   0.01542   0.00000  Uiso   1.00
C422   C     0.22740   0.80251   0.48850   0.00000  Uiso   1.00
C423   C     0.23644   0.78852   0.43684   0.00000  Uiso   1.00
C424   C     0.20092   0.79489   0.41151   0.00000  Uiso   1.00
C425   C     0.17319   0.83366   0.06716   0.00000  Uiso   1.00
C426   C     0.25351   0.80964   0.06641   0.00000  Uiso   1.00
Cu427  Cu    0.11978   0.83333   0.25000   0.00000  Uiso   1.00
Cu428  Cu    0.21355   0.83334   0.25000   0.00000  Uiso   1.00
H429   H     0.28086   0.80399   0.08610   0.00000  Uiso   1.00
H430   H     0.08226   0.84268   0.05772   0.00000  Uiso   1.00
H431   H     0.02567   0.85635   0.00943   0.00000  Uiso   1.00
H432   H     0.20781   0.78179   0.37292   0.00000  Uiso   1.00
H433   H     0.23862   0.96274   0.26140   0.00000  Uiso   1.00
H434   H     0.29732   0.91497   0.36449   0.00000  Uiso   1.00
H435   H     0.28004   0.86139   0.38086   0.00000  Uiso   1.00
H436   H     0.23428   0.90083   0.39238   0.00000  Uiso   1.00
H437   H     0.29914   0.72271   0.16156   0.00000  Uiso   1.00
H438   H     0.32524   0.73063   0.21366   0.00000  Uiso   1.00
H439   H     0.02618   0.74395   0.14633   0.00000  Uiso   1.00
H440   H     0.23841   0.70406   0.26179   0.00000  Uiso   1.00
H441   H     0.28083   0.75631   0.37401   0.00000  Uiso   1.00
H442   H     0.30959   0.79040   0.40151   0.00000  Uiso   1.00
H443   H     0.09433   0.70395   0.23965   0.00000  Uiso   1.00
H444   H     0.09428   0.96263   0.23984   0.00000  Uiso   1.00
H445   H     0.02832   0.87922   0.30785   0.00000  Uiso   1.00
H446   H     0.06153   0.78900   0.19012   0.00000  Uiso   1.00
H447   H     0.29881   0.78419   0.49498   0.00000  Uiso   1.00
H448   H     0.13991   0.84935   0.08852   0.00000  Uiso   1.00
H449   H     0.05103   0.85095   0.41432   0.00000  Uiso   1.00
N450   N     0.04931   0.83332   0.24998   0.00000  Uiso   1.00
N451   N     0.28402   0.83335   0.25000   0.00000  Uiso   1.00
N452   N     0.28189   0.76814   0.40995   0.00000  Uiso   1.00
O453   O     0.12708   0.89345   0.25000   0.00000  Uiso   1.00
O454   O     0.30170   0.78332   0.18248   0.00000  Uiso   1.00
O455   O     0.20627   0.89346   0.25000   0.00000  Uiso   1.00
O456   O     0.10775   0.83332   0.32549   0.00000  Uiso   1.00
O457   O     0.18694   0.83333   0.32549   0.00000  Uiso   1.00
O458   O     0.12706   0.77321   0.24999   0.00000  Uiso   1.00
O459   O     0.20625   0.77322   0.25000   0.00000  Uiso   1.00
O460   O     0.14640   0.83334   0.17451   0.00000  Uiso   1.00
O461   O     0.22559   0.83335   0.17451   0.00000  Uiso   1.00
O462   O     0.26423   0.88550   0.31501   0.00000  Uiso   1.00
C463   C     0.49996   0.91265   0.25018   0.00000  Uiso   1.00
C464   C     0.45776   0.82870   0.40752   0.00000  Uiso   1.00
C465   C     0.54036   0.97875   0.25650   0.00000  Uiso   1.00
C466   C     0.47377   0.83103   0.35007   0.00000  Uiso   1.00
C467   C     0.54030   0.68800   0.25660   0.00000  Uiso   1.00
C468   C     0.49986   0.70942   0.25039   0.00000  Uiso   1.00
C469   C     0.45927   0.68794   0.24453   0.00000  Uiso   1.00
C470   C     0.45925   0.97869   0.24462   0.00000  Uiso   1.00
C471   C     0.49986   0.95726   0.25042   0.00000  Uiso   1.00
C472   C     0.63203   0.85853   0.28374   0.00000  Uiso   1.00
C473   C     0.34905   0.85860   0.28289   0.00000  Uiso   1.00
C474   C     0.47801   0.82554   0.48971   0.00000  Uiso   1.00
C475   C     0.36765   0.80813   0.21700   0.00000  Uiso   1.00
C476   C     0.65081   0.80740   0.21724   0.00000  Uiso   1.00
C477   C     0.49996   0.75402   0.25010   0.00000  Uiso   1.00
C478   C     0.52627   0.83258   0.14992   0.00000  Uiso   1.00
C479   C     0.59669   0.79788   0.01434   0.00000  Uiso   1.00
C480   C     0.54122   0.82669   0.09325   0.00000  Uiso   1.00
C481   C     0.41029   0.84240   0.43479   0.00000  Uiso   1.00
C482   C     0.39593   0.84625   0.48871   0.00000  Uiso   1.00
C483   C     0.42941   0.83881   0.01598   0.00000  Uiso   1.00
C484   C     0.60326   0.89055   0.36512   0.00000  Uiso   1.00
C485   C     0.49032   0.81650   0.43569   0.00000  Uiso   1.00
C486   C     0.65618   0.74361   0.17620   0.00000  Uiso   1.00
C487   C     0.51450   0.82055   0.01542   0.00000  Uiso   1.00
C488   C     0.56074   0.80251   0.48850   0.00000  Uiso   1.00
C489   C     0.56977   0.78852   0.43684   0.00000  Uiso   1.00
C490   C     0.53425   0.79489   0.41151   0.00000  Uiso   1.00
C491   C     0.50652   0.83366   0.06716   0.00000  Uiso   1.00
C492   C     0.58685   0.80964   0.06641   0.00000  Uiso   1.00
Cu493  Cu    0.45311   0.83333   0.25000   0.00000  Uiso   1.00
Cu494  Cu    0.54689   0.83334   0.25000   0.00000  Uiso   1.00
H495   H     0.61419   0.80399   0.08610   0.00000  Uiso   1.00
H496   H     0.41559   0.84268   0.05772   0.00000  Uiso   1.00
H497   H     0.35900   0.85635   0.00943   0.00000  Uiso   1.00
H498   H     0.54114   0.78179   0.37292   0.00000  Uiso   1.00
H499   H     0.57195   0.96274   0.26140   0.00000  Uiso   1.00
H500   H     0.63066   0.91497   0.36449   0.00000  Uiso   1.00
H501   H     0.61337   0.86139   0.38086   0.00000  Uiso   1.00
H502   H     0.56762   0.90083   0.39238   0.00000  Uiso   1.00
H503   H     0.63247   0.72271   0.16156   0.00000  Uiso   1.00
H504   H     0.65857   0.73063   0.21366   0.00000  Uiso   1.00
H505   H     0.35951   0.74395   0.14633   0.00000  Uiso   1.00
H506   H     0.57175   0.70406   0.26179   0.00000  Uiso   1.00
H507   H     0.61417   0.75631   0.37401   0.00000  Uiso   1.00
H508   H     0.64292   0.79040   0.40151   0.00000  Uiso   1.00
H509   H     0.42767   0.70395   0.23965   0.00000  Uiso   1.00
H510   H     0.42761   0.96263   0.23984   0.00000  Uiso   1.00
H511   H     0.36165   0.87922   0.30785   0.00000  Uiso   1.00
H512   H     0.39486   0.78900   0.19012   0.00000  Uiso   1.00
H513   H     0.63214   0.78419   0.49498   0.00000  Uiso   1.00
H514   H     0.47325   0.84935   0.08852   0.00000  Uiso   1.00
H515   H     0.38436   0.85095   0.41432   0.00000  Uiso   1.00
N516   N     0.38265   0.83332   0.24998   0.00000  Uiso   1.00
N517   N     0.61735   0.83335   0.25000   0.00000  Uiso   1.00
N518   N     0.61523   0.76814   0.40995   0.00000  Uiso   1.00
O519   O     0.46042   0.89345   0.25000   0.00000  Uiso   1.00
O520   O     0.63503   0.78332   0.18248   0.00000  Uiso   1.00
O521   O     0.53961   0.89346   0.25000   0.00000  Uiso   1.00
O522   O     0.44108   0.83332   0.32549   0.00000  Uiso   1.00
O523   O     0.52027   0.83333   0.32549   0.00000  Uiso   1.00
O524   O     0.46039   0.77321   0.24999   0.00000  Uiso   1.00
O525   O     0.53958   0.77322   0.25000   0.00000  Uiso   1.00
O526   O     0.47973   0.83334   0.17451   0.00000  Uiso   1.00
O527   O     0.55892   0.83335   0.17451   0.00000  Uiso   1.00
O528   O     0.59757   0.88550   0.31501   0.00000  Uiso   1.00
C529   C     0.83329   0.91265   0.25018   0.00000  Uiso   1.00
C530   C     0.79110   0.82870   0.40752   0.00000  Uiso   1.00
C531   C     0.87369   0.97875   0.25650   0.00000  Uiso   1.00
C532   C     0.80711   0.83103   0.35007   0.00000  Uiso   1.00
C533   C     0.87363   0.68800   0.25660   0.00000  Uiso   1.00
C534   C     0.83319   0.70942   0.25039   0.00000  Uiso   1.00
C535   C     0.79260   0.68794   0.24453   0.00000  Uiso   1.00
C536   C     0.79258   0.97869   0.24462   0.00000  Uiso   1.00
C537   C     0.83319   0.95726   0.25042   0.00000  Uiso   1.00
C538   C     0.96536   0.85853   0.28374   0.00000  Uiso   1.00
C539   C     0.68238   0.85860   0.28289   0.00000  Uiso   1.00
C540   C     0.81134   0.82554   0.48971   0.00000  Uiso   1.00
C541   C     0.70099   0.80813   0.21700   0.00000  Uiso   1.00
C542   C     0.98415   0.80740   0.21724   0.00000  Uiso   1.00
C543   C     0.83329   0.75402   0.25010   0.00000  Uiso   1.00
C544   C     0.85960   0.83258   0.14992   0.00000  Uiso   1.00
C545   C     0.93002   0.79788   0.01434   0.00000  Uiso   1.00
C546   C     0.87456   0.82669   0.09325   0.00000  Uiso   1.00
C547   C     0.74362   0.84240   0.43479   0.00000  Uiso   1.00
C548   C     0.72927   0.84625   0.48871   0.00000  Uiso   1.00
C549   C     0.76275   0.83881   0.01598   0.00000  Uiso   1.00
C550   C     0.93660   0.89055   0.36512   0.00000  Uiso   1.00
C551   C     0.82365   0.81650   0.43569   0.00000  Uiso   1.00
C552   C     0.98951   0.74361   0.17620   0.00000  Uiso   1.00
C553   C     0.84783   0.82055   0.01542   0.00000  Uiso   1.00
C554   C     0.89407   0.80251   0.48850   0.00000  Uiso   1.00
C555   C     0.90310   0.78852   0.43684   0.00000  Uiso   1.00
C556   C     0.86759   0.79489   0.41151   0.00000  Uiso   1.00
C557   C     0.83985   0.83366   0.06716   0.00000  Uiso   1.00
C558   C     0.92018   0.80964   0.06641   0.00000  Uiso   1.00
Cu559  Cu    0.78645   0.83333   0.25000   0.00000  Uiso   1.00
Cu560  Cu    0.88022   0.83334   0.25000   0.00000  Uiso   1.00
H561   H     0.94753   0.80399   0.08610   0.00000  Uiso   1.00
H562   H     0.74892   0.84268   0.05772   0.00000  Uiso   1.00
H563   H     0.69233   0.85635   0.00943   0.00000  Uiso   1.00
H564   H     0.87447   0.78179   0.37292   0.00000  Uiso   1.00
H565   H     0.90529   0.96274   0.26140   0.00000  Uiso   1.00
H566   H     0.96399   0.91497   0.36449   0.00000  Uiso   1.00
H567   H     0.94671   0.86139   0.38086   0.00000  Uiso   1.00
H568   H     0.90095   0.90083   0.39238   0.00000  Uiso   1.00
H569   H     0.96580   0.72271   0.16156   0.00000  Uiso   1.00
H570   H     0.99191   0.73063   0.21366   0.00000  Uiso   1.00
H571   H     0.69285   0.74395   0.14633   0.00000  Uiso   1.00
H572   H     0.90508   0.70406   0.26179   0.00000  Uiso   1.00
H573   H     0.94750   0.75631   0.37401   0.00000  Uiso   1.00
H574   H     0.97625   0.79040   0.40151   0.00000  Uiso   1.00
H575   H     0.76100   0.70395   0.23965   0.00000  Uiso   1.00
H576   H     0.76095   0.96263   0.23984   0.00000  Uiso   1.00
H577   H     0.69499   0.87922   0.30785   0.00000  Uiso   1.00
H578   H     0.72820   0.78900   0.19012   0.00000  Uiso   1.00
H579   H     0.96547   0.78419   0.49498   0.00000  Uiso   1.00
H580   H     0.80658   0.84935   0.08852   0.00000  Uiso   1.00
H581   H     0.71770   0.85095   0.41432   0.00000  Uiso   1.00
N582   N     0.71598   0.83332   0.24998   0.00000  Uiso   1.00
N583   N     0.95069   0.83335   0.25000   0.00000  Uiso   1.00
N584   N     0.94856   0.76814   0.40995   0.00000  Uiso   1.00
O585   O     0.79375   0.89345   0.25000   0.00000  Uiso   1.00
O586   O     0.96836   0.78332   0.18248   0.00000  Uiso   1.00
O587   O     0.87294   0.89346   0.25000   0.00000  Uiso   1.00
O588   O     0.77441   0.83332   0.32549   0.00000  Uiso   1.00
O589   O     0.85360   0.83333   0.32549   0.00000  Uiso   1.00
O590   O     0.79373   0.77321   0.24999   0.00000  Uiso   1.00
O591   O     0.87292   0.77322   0.25000   0.00000  Uiso   1.00
O592   O     0.81306   0.83334   0.17451   0.00000  Uiso   1.00
O593   O     0.89225   0.83335   0.17451   0.00000  Uiso   1.00
O594   O     0.93090   0.88550   0.31501   0.00000  Uiso   1.00
C595   C     0.16662   0.24598   0.75018   0.00000  Uiso   1.00
C596   C     0.12443   0.16204   0.90752   0.00000  Uiso   1.00
C597   C     0.20703   0.31208   0.75650   0.00000  Uiso   1.00
C598   C     0.14044   0.16437   0.85007   0.00000  Uiso   1.00
C599   C     0.20697   0.02133   0.75660   0.00000  Uiso   1.00
C600   C     0.16653   0.04275   0.75039   0.00000  Uiso   1.00
C601   C     0.12594   0.02127   0.74453   0.00000  Uiso   1.00
C602   C     0.12592   0.31202   0.74462   0.00000  Uiso   1.00
C603   C     0.16653   0.29060   0.75042   0.00000  Uiso   1.00
C604   C     0.29869   0.19186   0.78374   0.00000  Uiso   1.00
C605   C     0.01571   0.19194   0.78289   0.00000  Uiso   1.00
C606   C     0.14467   0.15888   0.98971   0.00000  Uiso   1.00
C607   C     0.03432   0.14147   0.71700   0.00000  Uiso   1.00
C608   C     0.31748   0.14073   0.71724   0.00000  Uiso   1.00
C609   C     0.16663   0.08736   0.75010   0.00000  Uiso   1.00
C610   C     0.19293   0.16592   0.64992   0.00000  Uiso   1.00
C611   C     0.26336   0.13122   0.51434   0.00000  Uiso   1.00
C612   C     0.20789   0.16002   0.59325   0.00000  Uiso   1.00
C613   C     0.07695   0.17573   0.93479   0.00000  Uiso   1.00
C614   C     0.06260   0.17959   0.98871   0.00000  Uiso   1.00
C615   C     0.09608   0.17214   0.51598   0.00000  Uiso   1.00
C616   C     0.26993   0.22389   0.86512   0.00000  Uiso   1.00
C617   C     0.15699   0.14983   0.93569   0.00000  Uiso   1.00
C618   C     0.32284   0.07694   0.67620   0.00000  Uiso   1.00
C619   C     0.18116   0.15388   0.51542   0.00000  Uiso   1.00
C620   C     0.22740   0.13584   0.98850   0.00000  Uiso   1.00
C621   C     0.23644   0.12186   0.93684   0.00000  Uiso   1.00
C622   C     0.20092   0.12822   0.91151   0.00000  Uiso   1.00
C623   C     0.17319   0.16699   0.56716   0.00000  Uiso   1.00
C624   C     0.25351   0.14297   0.56641   0.00000  Uiso   1.00
Cu625  Cu    0.11978   0.16666   0.75000   0.00000  Uiso   1.00
Cu626  Cu    0.21355   0.16667   0.75000   0.00000  Uiso   1.00
H627   H     0.28086   0.13732   0.58610   0.00000  Uiso   1.00
H628   H     0.08226   0.17601   0.55772   0.00000  Uiso   1.00
H629   H     0.02567   0.18968   0.50943   0.00000  Uiso   1.00
H630   H     0.20781   0.11513   0.87292   0.00000  Uiso   1.00
H631   H     0.23862   0.29608   0.76140   0.00000  Uiso   1.00
H632   H     0.29732   0.24830   0.86449   0.00000  Uiso   1.00
H633   H     0.28004   0.19472   0.88086   0.00000  Uiso   1.00
H634   H     0.23428   0.23416   0.89238   0.00000  Uiso   1.00
H635   H     0.29914   0.05604   0.66156   0.00000  Uiso   1.00
H636   H     0.32524   0.06396   0.71366   0.00000  Uiso   1.00
H637   H     0.02618   0.07729   0.64633   0.00000  Uiso   1.00
H638   H     0.23841   0.03739   0.76179   0.00000  Uiso   1.00
H639   H     0.28083   0.08964   0.87401   0.00000  Uiso   1.00
H640   H     0.30959   0.12373   0.90151   0.00000  Uiso   1.00
H641   H     0.09433   0.03728   0.73965   0.00000  Uiso   1.00
H642   H     0.09428   0.29596   0.73984   0.00000  Uiso   1.00
H643   H     0.02832   0.21256   0.80785   0.00000  Uiso   1.00
H644   H     0.06153   0.12233   0.69012   0.00000  Uiso   1.00
H645   H     0.29881   0.11752   0.99498   0.00000  Uiso   1.00
H646   H     0.13991   0.18268   0.58852   0.00000  Uiso   1.00
H647   H     0.05103   0.18428   0.91432   0.00000  Uiso   1.00
N648   N     0.04931   0.16666   0.74998   0.00000  Uiso   1.00
N649   N     0.28402   0.16669   0.75000   0.00000  Uiso   1.00
N650   N     0.28189   0.10147   0.90995   0.00000  Uiso   1.00
O651   O     0.12708   0.22678   0.75000   0.00000  Uiso   1.00
O652   O     0.30170   0.11666   0.68248   0.00000  Uiso   1.00
O653   O     0.20627   0.22679   0.75000   0.00000  Uiso   1.00
O654   O     0.10775   0.16665   0.82549   0.00000  Uiso   1.00
O655   O     0.18694   0.16666   0.82549   0.00000  Uiso   1.00
O656   O     0.12706   0.10654   0.74999   0.00000  Uiso   1.00
O657   O     0.20625   0.10655   0.75000   0.00000  Uiso   1.00
O658   O     0.14640   0.16667   0.67451   0.00000  Uiso   1.00
O659   O     0.22559   0.16668   0.67451   0.00000  Uiso   1.00
O660   O     0.26423   0.21884   0.81501   0.00000  Uiso   1.00
C661   C     0.49996   0.24598   0.75018   0.00000  Uiso   1.00
C662   C     0.45776   0.16204   0.90752   0.00000  Uiso   1.00
C663   C     0.54036   0.31208   0.75650   0.00000  Uiso   1.00
C664   C     0.47377   0.16437   0.85007   0.00000  Uiso   1.00
C665   C     0.54030   0.02133   0.75660   0.00000  Uiso   1.00
C666   C     0.49986   0.04275   0.75039   0.00000  Uiso   1.00
C667   C     0.45927   0.02127   0.74453   0.00000  Uiso   1.00
C668   C     0.45925   0.31202   0.74462   0.00000  Uiso   1.00
C669   C     0.49986   0.29060   0.75042   0.00000  Uiso   1.00
C670   C     0.63203   0.19186   0.78374   0.00000  Uiso   1.00
C671   C     0.34905   0.19194   0.78289   0.00000  Uiso   1.00
C672   C     0.47801   0.15888   0.98971   0.00000  Uiso   1.00
C673   C     0.36765   0.14147   0.71700   0.00000  Uiso   1.00
C674   C     0.65081   0.14073   0.71724   0.00000  Uiso   1.00
C675   C     0.49996   0.08736   0.75010   0.00000  Uiso   1.00
C676   C     0.52627   0.16592   0.64992   0.00000  Uiso   1.00
C677   C     0.59669   0.13122   0.51434   0.00000  Uiso   1.00
C678   C     0.54122   0.16002   0.59325   0.00000  Uiso   1.00
C679   C     0.41029   0.17573   0.93479   0.00000  Uiso   1.00
C680   C     0.39593   0.17959   0.98871   0.00000  Uiso   1.00
C681   C     0.42941   0.17214   0.51598   0.00000  Uiso   1.00
C682   C     0.60326   0.22389   0.86512   0.00000  Uiso   1.00
C683   C     0.49032   0.14983   0.93569   0.00000  Uiso   1.00
C684   C     0.65618   0.07694   0.67620   0.00000  Uiso   1.00
C685   C     0.51450   0.15388   0.51542   0.00000  Uiso   1.00
C686   C     0.56074   0.13584   0.98850   0.00000  Uiso   1.00
C687   C     0.56977   0.12186   0.93684   0.00000  Uiso   1.00
C688   C     0.53425   0.12822   0.91151   0.00000  Uiso   1.00
C689   C     0.50652   0.16699   0.56716   0.00000  Uiso   1.00
C690   C     0.58685   0.14297   0.56641   0.00000  Uiso   1.00
Cu691  Cu    0.45311   0.16666   0.75000   0.00000  Uiso   1.00
Cu692  Cu    0.54689   0.16667   0.75000   0.00000  Uiso   1.00
H693   H     0.61419   0.13732   0.58610   0.00000  Uiso   1.00
H694   H     0.41559   0.17601   0.55772   0.00000  Uiso   1.00
H695   H     0.35900   0.18968   0.50943   0.00000  Uiso   1.00
H696   H     0.54114   0.11513   0.87292   0.00000  Uiso   1.00
H697   H     0.57195   0.29608   0.76140   0.00000  Uiso   1.00
H698   H     0.63066   0.24830   0.86449   0.00000  Uiso   1.00
H699   H     0.61337   0.19472   0.88086   0.00000  Uiso   1.00
H700   H     0.56762   0.23416   0.89238   0.00000  Uiso   1.00
H701   H     0.63247   0.05604   0.66156   0.00000  Uiso   1.00
H702   H     0.65857   0.06396   0.71366   0.00000  Uiso   1.00
H703   H     0.35951   0.07729   0.64633   0.00000  Uiso   1.00
H704   H     0.57175   0.03739   0.76179   0.00000  Uiso   1.00
H705   H     0.61417   0.08964   0.87401   0.00000  Uiso   1.00
H706   H     0.64292   0.12373   0.90151   0.00000  Uiso   1.00
H707   H     0.42767   0.03728   0.73965   0.00000  Uiso   1.00
H708   H     0.42761   0.29596   0.73984   0.00000  Uiso   1.00
H709   H     0.36165   0.21256   0.80785   0.00000  Uiso   1.00
H710   H     0.39486   0.12233   0.69012   0.00000  Uiso   1.00
H711   H     0.63214   0.11752   0.99498   0.00000  Uiso   1.00
H712   H     0.47325   0.18268   0.58852   0.00000  Uiso   1.00
H713   H     0.38436   0.18428   0.91432   0.00000  Uiso   1.00
N714   N     0.38265   0.16666   0.74998   0.00000  Uiso   1.00
N715   N     0.61735   0.16669   0.75000   0.00000  Uiso   1.00
N716   N     0.61523   0.10147   0.90995   0.00000  Uiso   1.00
O717   O     0.46042   0.22678   0.75000   0.00000  Uiso   1.00
O718   O     0.63503   0.11666   0.68248   0.00000  Uiso   1.00
O719   O     0.53961   0.22679   0.75000   0.00000  Uiso   1.00
O720   O     0.44108   0.16665   0.82549   0.00000  Uiso   1.00
O721   O     0.52027   0.16666   0.82549   0.00000  Uiso   1.00
O722   O     0.46039   0.10654   0.74999   0.00000  Uiso   1.00
O723   O     0.53958   0.10655   0.75000   0.00000  Uiso   1.00
O724   O     0.47973   0.16667   0.67451   0.00000  Uiso   1.00
O725   O     0.55892   0.16668   0.67451   0.00000  Uiso   1.00
O726   O     0.59757   0.21884   0.81501   0.00000  Uiso   1.00
C727   C     0.83329   0.24598   0.75018   0.00000  Uiso   1.00
C728   C     0.79110   0.16204   0.90752   0.00000  Uiso   1.00
C729   C     0.87369   0.31208   0.75650   0.00000  Uiso   1.00
C730   C     0.80711   0.16437   0.85007   0.00000  Uiso   1.00
C731   C     0.87363   0.02133   0.75660   0.00000  Uiso   1.00
C732   C     0.83319   0.04275   0.75039   0.00000  Uiso   1.00
C733   C     0.79260   0.02127   0.74453   0.00000  Uiso   1.00
C734   C     0.79258   0.31202   0.74462   0.00000  Uiso   1.00
C735   C     0.83319   0.29060   0.75042   0.00000  Uiso   1.00
C736   C     0.96536   0.19186   0.78374   0.00000  Uiso   1.00
C737   C     0.68238   0.19194   0.78289   0.00000  Uiso   1.00
C738   C     0.81134   0.15888   0.98971   0.00000  Uiso   1.00
C739   C     0.70099   0.14147   0.71700   0.00000  Uiso   1.00
C740   C     0.98415   0.14073   0.71724   0.00000  Uiso   1.00
C741   C     0.83329   0.08736   0.75010   0.00000  Uiso   1.00
C742   C     0.85960   0.16592   0.64992   0.00000  Uiso   1.00
C743   C     0.93002   0.13122   0.51434   0.00000  Uiso   1.00
C744   C     0.87456   0.16002   0.59325   0.00000  Uiso   1.00
C745   C     0.74362   0.17573   0.93479   0.00000  Uiso   1.00
C746   C     0.72927   0.17959   0.98871   0.00000  Uiso   1.00
C747   C     0.76275   0.17214   0.51598   0.00000  Uiso   1.00
C748   C     0.93660   0.22389   0.86512   0.00000  Uiso   1.00
C749   C     0.82365   0.14983   0.93569   0.00000  Uiso   1.00
C750   C     0.98951   0.07694   0.67620   0.00000  Uiso   1.00
C751   C     0.84783   0.15388   0.51542   0.00000  Uiso   1.00
C752   C     0.89407   0.13584   0.98850   0.00000  Uiso   1.00
C753   C     0.90310   0.12186   0.93684   0.00000  Uiso   1.00
C754   C     0.86759   0.12822   0.91151   0.00000  Uiso   1.00
C755   C     0.83985   0.16699   0.56716   0.00000  Uiso   1.00
C756   C     0.92018   0.14297   0.56641   0.00000  Uiso   1.00
Cu757  Cu    0.78645   0.16666   0.75000   0.00000  Uiso   1.00
Cu758  Cu    0.88022   0.16667   0.75000   0.00000  Uiso   1.00
H759   H     0.94753   0.13732   0.58610   0.00000  Uiso   1.00
H760   H     0.74892   0.17601   0.55772   0.00000  Uiso   1.00
H761   H     0.69233   0.18968   0.50943   0.00000  Uiso   1.00
H762   H     0.87447   0.11513   0.87292   0.00000  Uiso   1.00
H763   H     0.90529   0.29608   0.76140   0.00000  Uiso   1.00
H764   H     0.96399   0.24830   0.86449   0.00000  Uiso   1.00
H765   H     0.94671   0.19472   0.88086   0.00000  Uiso   1.00
H766   H     0.90095   0.23416   0.89238   0.00000  Uiso   1.00
H767   H     0.96580   0.05604   0.66156   0.00000  Uiso   1.00
H768   H     0.99191   0.06396   0.71366   0.00000  Uiso   1.00
H769   H     0.69285   0.07729   0.64633   0.00000  Uiso   1.00
H770   H     0.90508   0.03739   0.76179   0.00000  Uiso   1.00
H771   H     0.94750   0.08964   0.87401   0.00000  Uiso   1.00
H772   H     0.97625   0.12373   0.90151   0.00000  Uiso   1.00
H773   H     0.76100   0.03728   0.73965   0.00000  Uiso   1.00
H774   H     0.76095   0.29596   0.73984   0.00000  Uiso   1.00
H775   H     0.69499   0.21256   0.80785   0.00000  Uiso   1.00
H776   H     0.72820   0.12233   0.69012   0.00000  Uiso   1.00
H777   H     0.96547   0.11752   0.99498   0.00000  Uiso   1.00
H778   H     0.80658   0.18268   0.58852   0.00000  Uiso   1.00
H779   H     0.71770   0.18428   0.91432   0.00000  Uiso   1.00
N780   N     0.71598   0.16666   0.74998   0.00000  Uiso   1.00
N781   N     0.95069   0.16669   0.75000   0.00000  Uiso   1.00
N782   N     0.94856   0.10147   0.90995   0.00000  Uiso   1.00
O783   O     0.79375   0.22678   0.75000   0.00000  Uiso   1.00
O784   O     0.96836   0.11666   0.68248   0.00000  Uiso   1.00
O785   O     0.87294   0.22679   0.75000   0.00000  Uiso   1.00
O786   O     0.77441   0.16665   0.82549   0.00000  Uiso   1.00
O787   O     0.85360   0.16666   0.82549   0.00000  Uiso   1.00
O788   O     0.79373   0.10654   0.74999   0.00000  Uiso   1.00
O789   O     0.87292   0.10655   0.75000   0.00000  Uiso   1.00
O790   O     0.81306   0.16667   0.67451   0.00000  Uiso   1.00
O791   O     0.89225   0.16668   0.67451   0.00000  Uiso   1.00
O792   O     0.93090   0.21884   0.81501   0.00000  Uiso   1.00
C793   C     0.16662   0.57931   0.75018   0.00000  Uiso   1.00
C794   C     0.12443   0.49537   0.90752   0.00000  Uiso   1.00
C795   C     0.20703   0.64541   0.75650   0.00000  Uiso   1.00
C796   C     0.14044   0.49770   0.85007   0.00000  Uiso   1.00
C797   C     0.20697   0.35466   0.75660   0.00000  Uiso   1.00
C798   C     0.16653   0.37608   0.75039   0.00000  Uiso   1.00
C799   C     0.12594   0.35460   0.74453   0.00000  Uiso   1.00
C800   C     0.12592   0.64535   0.74462   0.00000  Uiso   1.00
C801   C     0.16653   0.62393   0.75042   0.00000  Uiso   1.00
C802   C     0.29869   0.52520   0.78374   0.00000  Uiso   1.00
C803   C     0.01571   0.52527   0.78289   0.00000  Uiso   1.00
C804   C     0.14467   0.49221   0.98971   0.00000  Uiso   1.00
C805   C     0.03432   0.47480   0.71700   0.00000  Uiso   1.00
C806   C     0.31748   0.47406   0.71724   0.00000  Uiso   1.00
C807   C     0.16663   0.42069   0.75010   0.00000  Uiso   1.00
C808   C     0.19293   0.49925   0.64992   0.00000  Uiso   1.00
C809   C     0.26336   0.46455   0.51434   0.00000  Uiso   1.00
C810   C     0.20789   0.49336   0.59325   0.00000  Uiso   1.00
C811   C     0.07695   0.50906   0.93479   0.00000  Uiso   1.00
C812   C     0.06260   0.51292   0.98871   0.00000  Uiso   1.00
C813   C     0.09608   0.50547   0.51598   0.00000  Uiso   1.00
C814   C     0.26993   0.55722   0.86512   0.00000  Uiso   1.00
C815   C     0.15699   0.48316   0.93569   0.00000  Uiso   1.00
C816   C     0.32284   0.41028   0.67620   0.00000  Uiso   1.00
C817   C     0.18116   0.48721   0.51542   0.00000  Uiso   1.00
C818   C     0.22740   0.46917   0.98850   0.00000  Uiso   1.00
C819   C     0.23644   0.45519   0.93684   0.00000  Uiso   1.00
C820   C     0.20092   0.46155   0.91151   0.00000  Uiso   1.00
C821   C     0.17319   0.50032   0.56716   0.00000  Uiso   1.00
C822   C     0.25351   0.47631   0.56641   0.00000  Uiso   1.00
Cu823  Cu    0.11978   0.49999   0.75000   0.00000  Uiso   1.00
Cu824  Cu    0.21355   0.50001   0.75000   0.00000  Uiso   1.00
H825   H     0.28086   0.47066   0.58610   0.00000  Uiso   1.00
H826   H     0.08226   0.50935   0.55772   0.00000  Uiso   1.00
H827   H     0.02567   0.52301   0.50943   0.00000  Uiso   1.00
H828   H     0.20781   0.44846   0.87292   0.00000  Uiso   1.00
H829   H     0.23862   0.62941   0.76140   0.00000  Uiso   1.00
H830   H     0.29732   0.58163   0.86449   0.00000  Uiso   1.00
H831   H     0.28004   0.52805   0.88086   0.00000  Uiso   1.00
H832   H     0.23428   0.56750   0.89238   0.00000  Uiso   1.00
H833   H     0.29914   0.38938   0.66156   0.00000  Uiso   1.00
H834   H     0.32524   0.39729   0.71366   0.00000  Uiso   1.00
H835   H     0.02618   0.41062   0.64633   0.00000  Uiso   1.00
H836   H     0.23841   0.37073   0.76179   0.00000  Uiso   1.00
H837   H     0.28083   0.42298   0.87401   0.00000  Uiso   1.00
H838   H     0.30959   0.45706   0.90151   0.00000  Uiso   1.00
H839   H     0.09433   0.37061   0.73965   0.00000  Uiso   1.00
H840   H     0.09428   0.62930   0.73984   0.00000  Uiso   1.00
H841   H     0.02832   0.54589   0.80785   0.00000  Uiso   1.00
H842   H     0.06153   0.45566   0.69012   0.00000  Uiso   1.00
H843   H     0.29881   0.45086   0.99498   0.00000  Uiso   1.00
H844   H     0.13991   0.51602   0.58852   0.00000  Uiso   1.00
H845   H     0.05103   0.51761   0.91432   0.00000  Uiso   1.00
N846   N     0.04931   0.49999   0.74998   0.00000  Uiso   1.00
N847   N     0.28402   0.50002   0.75000   0.00000  Uiso   1.00
N848   N     0.28189   0.43480   0.90995   0.00000  Uiso   1.00
O849   O     0.12708   0.56011   0.75000   0.00000  Uiso   1.00
O850   O     0.30170   0.44999   0.68248   0.00000  Uiso   1.00
O851   O     0.20627   0.56012   0.75000   0.00000  Uiso   1.00
O852   O     0.10775   0.49998   0.82549   0.00000  Uiso   1.00
O853   O     0.18694   0.49999   0.82549   0.00000  Uiso   1.00
O854   O     0.12706   0.43988   0.74999   0.00000  Uiso   1.00
O855   O     0.20625   0.43989   0.75000   0.00000  Uiso   1.00
O856   O     0.14640   0.50001   0.67451   0.00000  Uiso   1.00
O857   O     0.22559   0.50002   0.67451   0.00000  Uiso   1.00
O858   O     0.26423   0.55217   0.81501   0.00000  Uiso   1.00
C859   C     0.49996   0.57931   0.75018   0.00000  Uiso   1.00
C860   C     0.45776   0.49537   0.90752   0.00000  Uiso   1.00
C861   C     0.54036   0.64541   0.75650   0.00000  Uiso   1.00
C862   C     0.47377   0.49770   0.85007   0.00000  Uiso   1.00
C863   C     0.54030   0.35466   0.75660   0.00000  Uiso   1.00
C864   C     0.49986   0.37608   0.75039   0.00000  Uiso   1.00
C865   C     0.45927   0.35460   0.74453   0.00000  Uiso   1.00
C866   C     0.45925   0.64535   0.74462   0.00000  Uiso   1.00
C867   C     0.49986   0.62393   0.75042   0.00000  Uiso   1.00
C868   C     0.63203   0.52520   0.78374   0.00000  Uiso   1.00
C869   C     0.34905   0.52527   0.78289   0.00000  Uiso   1.00
C870   C     0.47801   0.49221   0.98971   0.00000  Uiso   1.00
C871   C     0.36765   0.47480   0.71700   0.00000  Uiso   1.00
C872   C     0.65081   0.47406   0.71724   0.00000  Uiso   1.00
C873   C     0.49996   0.42069   0.75010   0.00000  Uiso   1.00
C874   C     0.52627   0.49925   0.64992   0.00000  Uiso   1.00
C875   C     0.59669   0.46455   0.51434   0.00000  Uiso   1.00
C876   C     0.54122   0.49336   0.59325   0.00000  Uiso   1.00
C877   C     0.41029   0.50906   0.93479   0.00000  Uiso   1.00
C878   C     0.39593   0.51292   0.98871   0.00000  Uiso   1.00
C879   C     0.42941   0.50547   0.51598   0.00000  Uiso   1.00
C880   C     0.60326   0.55722   0.86512   0.00000  Uiso   1.00
C881   C     0.49032   0.48316   0.93569   0.00000  Uiso   1.00
C882   C     0.65618   0.41028   0.67620   0.00000  Uiso   1.00
C883   C     0.51450   0.48721   0.51542   0.00000  Uiso   1.00
C884   C     0.56074   0.46917   0.98850   0.00000  Uiso   1.00
C885   C     0.56977   0.45519   0.93684   0.00000  Uiso   1.00
C886   C     0.53425   0.46155   0.91151   0.00000  Uiso   1.00
C887   C     0.50652   0.50032   0.56716   0.00000  Uiso   1.00
C888   C     0.58685   0.47631   0.56641   0.00000  Uiso   1.00
Cu889  Cu    0.45311   0.49999   0.75000   0.00000  Uiso   1.00
Cu890  Cu    0.54689   0.50001   0.75000   0.00000  Uiso   1.00
H891   H     0.61419   0.47066   0.58610   0.00000  Uiso   1.00
H892   H     0.41559   0.50935   0.55772   0.00000  Uiso   1.00
H893   H     0.35900   0.52301   0.50943   0.00000  Uiso   1.00
H894   H     0.54114   0.44846   0.87292   0.00000  Uiso   1.00
H895   H     0.57195   0.62941   0.76140   0.00000  Uiso   1.00
H896   H     0.63066   0.58163   0.86449   0.00000  Uiso   1.00
H897   H     0.61337   0.52805   0.88086   0.00000  Uiso   1.00
H898   H     0.56762   0.56750   0.89238   0.00000  Uiso   1.00
H899   H     0.63247   0.38938   0.66156   0.00000  Uiso   1.00
H900   H     0.65857   0.39729   0.71366   0.00000  Uiso   1.00
H901   H     0.35951   0.41062   0.64633   0.00000  Uiso   1.00
H902   H     0.57175   0.37073   0.76179   0.00000  Uiso   1.00
H903   H     0.61417   0.42298   0.87401   0.00000  Uiso   1.00
H904   H     0.64292   0.45706   0.90151   0.00000  Uiso   1.00
H905   H     0.42767   0.37061   0.73965   0.00000  Uiso   1.00
H906   H     0.42761   0.62930   0.73984   0.00000  Uiso   1.00
H907   H     0.36165   0.54589   0.80785   0.00000  Uiso   1.00
H908   H     0.39486   0.45566   0.69012   0.00000  Uiso   1.00
H909   H     0.63214   0.45086   0.99498   0.00000  Uiso   1.00
H910   H     0.47325   0.51602   0.58852   0.00000  Uiso   1.00
H911   H     0.38436   0.51761   0.91432   0.00000  Uiso   1.00
N912   N     0.38265   0.49999   0.74998   0.00000  Uiso   1.00
N913   N     0.61735   0.50002   0.75000   0.00000  Uiso   1.00
N914   N     0.61523   0.43480   0.90995   0.00000  Uiso   1.00
O915   O     0.46042   0.56011   0.75000   0.00000  Uiso   1.00
O916   O     0.63503   0.44999   0.68248   0.00000  Uiso   1.00
O917   O     0.53961   0.56012   0.75000   0.00000  Uiso   1.00
O918   O     0.44108   0.49998   0.82549   0.00000  Uiso   1.00
O919   O     0.52027   0.49999   0.82549   0.00000  Uiso   1.00
O920   O     0.46039   0.43988   0.74999   0.00000  Uiso   1.00
O921   O     0.53958   0.43989   0.75000   0.00000  Uiso   1.00
O922   O     0.47973   0.50001   0.67451   0.00000  Uiso   1.00
O923   O     0.55892   0.50002   0.67451   0.00000  Uiso   1.00
O924   O     0.59757   0.55217   0.81501   0.00000  Uiso   1.00
C925   C     0.83329   0.57931   0.75018   0.00000  Uiso   1.00
C926   C     0.79110   0.49537   0.90752   0.00000  Uiso   1.00
C927   C     0.87369   0.64541   0.75650   0.00000  Uiso   1.00
C928   C     0.80711   0.49770   0.85007   0.00000  Uiso   1.00
C929   C     0.87363   0.35466   0.75660   0.00000  Uiso   1.00
C930   C     0.83319   0.37608   0.75039   0.00000  Uiso   1.00
C931   C     0.79260   0.35460   0.74453   0.00000  Uiso   1.00
C932   C     0.79258   0.64535   0.74462   0.00000  Uiso   1.00
C933   C     0.83319   0.62393   0.75042   0.00000  Uiso   1.00
C934   C     0.96536   0.52520   0.78374   0.00000  Uiso   1.00
C935   C     0.68238   0.52527   0.78289   0.00000  Uiso   1.00
C936   C     0.81134   0.49221   0.98971   0.00000  Uiso   1.00
C937   C     0.70099   0.47480   0.71700   0.00000  Uiso   1.00
C938   C     0.98415   0.47406   0.71724   0.00000  Uiso   1.00
C939   C     0.83329   0.42069   0.75010   0.00000  Uiso   1.00
C940   C     0.85960   0.49925   0.64992   0.00000  Uiso   1.00
C941   C     0.93002   0.46455   0.51434   0.00000  Uiso   1.00
C942   C     0.87456   0.49336   0.59325   0.00000  Uiso   1.00
C943   C     0.74362   0.50906   0.93479   0.00000  Uiso   1.00
C944   C     0.72927   0.51292   0.98871   0.00000  Uiso   1.00
C945   C     0.76275   0.50547   0.51598   0.00000  Uiso   1.00
C946   C     0.93660   0.55722   0.86512   0.00000  Uiso   1.00
C947   C     0.82365   0.48316   0.93569   0.00000  Uiso   1.00
C948   C     0.98951   0.41028   0.67620   0.00000  Uiso   1.00
C949   C     0.84783   0.48721   0.51542   0.00000  Uiso   1.00
C950   C     0.89407   0.46917   0.98850   0.00000  Uiso   1.00
C951   C     0.90310   0.45519   0.93684   0.00000  Uiso   1.00
C952   C     0.86759   0.46155   0.91151   0.00000  Uiso   1.00
C953   C     0.83985   0.50032   0.56716   0.00000  Uiso   1.00
C954   C     0.92018   0.47631   0.56641   0.00000  Uiso   1.00
Cu955  Cu    0.78645   0.49999   0.75000   0.00000  Uiso   1.00
Cu956  Cu    0.88022   0.50001   0.75000   0.00000  Uiso   1.00
H957   H     0.94753   0.47066   0.58610   0.00000  Uiso   1.00
H958   H     0.74892   0.50935   0.55772   0.00000  Uiso   1.00
H959   H     0.69233   0.52301   0.50943   0.00000  Uiso   1.00
H960   H     0.87447   0.44846   0.87292   0.00000  Uiso   1.00
H961   H     0.90529   0.62941   0.76140   0.00000  Uiso   1.00
H962   H     0.96399   0.58163   0.86449   0.00000  Uiso   1.00
H963   H     0.94671   0.52805   0.88086   0.00000  Uiso   1.00
H964   H     0.90095   0.56750   0.89238   0.00000  Uiso   1.00
H965   H     0.96580   0.38938   0.66156   0.00000  Uiso   1.00
H966   H     0.99191   0.39729   0.71366   0.00000  Uiso   1.00
H967   H     0.69285   0.41062   0.64633   0.00000  Uiso   1.00
H968   H     0.90508   0.37073   0.76179   0.00000  Uiso   1.00
H969   H     0.94750   0.42298   0.87401   0.00000  Uiso   1.00
H970   H     0.97625   0.45706   0.90151   0.00000  Uiso   1.00
H971   H     0.76100   0.37061   0.73965   0.00000  Uiso   1.00
H972   H     0.76095   0.62930   0.73984   0.00000  Uiso   1.00
H973   H     0.69499   0.54589   0.80785   0.00000  Uiso   1.00
H974   H     0.72820   0.45566   0.69012   0.00000  Uiso   1.00
H975   H     0.96547   0.45086   0.99498   0.00000  Uiso   1.00
H976   H     0.80658   0.51602   0.58852   0.00000  Uiso   1.00
H977   H     0.71770   0.51761   0.91432   0.00000  Uiso   1.00
N978   N     0.71598   0.49999   0.74998   0.00000  Uiso   1.00
N979   N     0.95069   0.50002   0.75000   0.00000  Uiso   1.00
N980   N     0.94856   0.43480   0.90995   0.00000  Uiso   1.00
O981   O     0.79375   0.56011   0.75000   0.00000  Uiso   1.00
O982   O     0.96836   0.44999   0.68248   0.00000  Uiso   1.00
O983   O     0.87294   0.56012   0.75000   0.00000  Uiso   1.00
O984   O     0.77441   0.49998   0.82549   0.00000  Uiso   1.00
O985   O     0.85360   0.49999   0.82549   0.00000  Uiso   1.00
O986   O     0.79373   0.43988   0.74999   0.00000  Uiso   1.00
O987   O     0.87292   0.43989   0.75000   0.00000  Uiso   1.00
O988   O     0.81306   0.50001   0.67451   0.00000  Uiso   1.00
O989   O     0.89225   0.50002   0.67451   0.00000  Uiso   1.00
O990   O     0.93090   0.55217   0.81501   0.00000  Uiso   1.00
C991   C     0.16662   0.91265   0.75018   0.00000  Uiso   1.00
C992   C     0.12443   0.82870   0.90752   0.00000  Uiso   1.00
C993   C     0.20703   0.97875   0.75650   0.00000  Uiso   1.00
C994   C     0.14044   0.83103   0.85007   0.00000  Uiso   1.00
C995   C     0.20697   0.68800   0.75660   0.00000  Uiso   1.00
C996   C     0.16653   0.70942   0.75039   0.00000  Uiso   1.00
C997   C     0.12594   0.68794   0.74453   0.00000  Uiso   1.00
C998   C     0.12592   0.97869   0.74462   0.00000  Uiso   1.00
C999   C     0.16653   0.95726   0.75042   0.00000  Uiso   1.00
C1000  C     0.29869   0.85853   0.78374   0.00000  Uiso   1.00
C1001  C     0.01571   0.85860   0.78289   0.00000  Uiso   1.00
C1002  C     0.14467   0.82554   0.98971   0.00000  Uiso   1.00
C1003  C     0.03432   0.80813   0.71700   0.00000  Uiso   1.00
C1004  C     0.31748   0.80740   0.71724   0.00000  Uiso   1.00
C1005  C     0.16663   0.75402   0.75010   0.00000  Uiso   1.00
C1006  C     0.19293   0.83258   0.64992   0.00000  Uiso   1.00
C1007  C     0.26336   0.79788   0.51434   0.00000  Uiso   1.00
C1008  C     0.20789   0.82669   0.59325   0.00000  Uiso   1.00
C1009  C     0.07695   0.84240   0.93479   0.00000  Uiso   1.00
C1010  C     0.06260   0.84625   0.98871   0.00000  Uiso   1.00
C1011  C     0.09608   0.83881   0.51598   0.00000  Uiso   1.00
C1012  C     0.26993   0.89055   0.86512   0.00000  Uiso   1.00
C1013  C     0.15699   0.81650   0.93569   0.00000  Uiso   1.00
C1014  C     0.32284   0.74361   0.67620   0.00000  Uiso   1.00
C1015  C     0.18116   0.82055   0.51542   0.00000  Uiso   1.00
C1016  C     0.22740   0.80251   0.98850   0.00000  Uiso   1.00
C1017  C     0.23644   0.78852   0.93684   0.00000  Uiso   1.00
C1018  C     0.20092   0.79489   0.91151   0.00000  Uiso   1.00
C1019  C     0.17319   0.83366   0.56716   0.00000  Uiso   1.00
C1020  C     0.25351   0.80964   0.56641   0.00000  Uiso   1.00
Cu1021 Cu    0.11978   0.83333   0.75000   0.00000  Uiso   1.00
Cu1022 Cu    0.21355   0.83334   0.75000   0.00000  Uiso   1.00
H1023  H     0.28086   0.80399   0.58610   0.00000  Uiso   1.00
H1024  H     0.08226   0.84268   0.55772   0.00000  Uiso   1.00
H1025  H     0.02567   0.85635   0.50943   0.00000  Uiso   1.00
H1026  H     0.20781   0.78179   0.87292   0.00000  Uiso   1.00
H1027  H     0.23862   0.96274   0.76140   0.00000  Uiso   1.00
H1028  H     0.29732   0.91497   0.86449   0.00000  Uiso   1.00
H1029  H     0.28004   0.86139   0.88086   0.00000  Uiso   1.00
H1030  H     0.23428   0.90083   0.89238   0.00000  Uiso   1.00
H1031  H     0.29914   0.72271   0.66156   0.00000  Uiso   1.00
H1032  H     0.32524   0.73063   0.71366   0.00000  Uiso   1.00
H1033  H     0.02618   0.74395   0.64633   0.00000  Uiso   1.00
H1034  H     0.23841   0.70406   0.76179   0.00000  Uiso   1.00
H1035  H     0.28083   0.75631   0.87401   0.00000  Uiso   1.00
H1036  H     0.30959   0.79040   0.90151   0.00000  Uiso   1.00
H1037  H     0.09433   0.70395   0.73965   0.00000  Uiso   1.00
H1038  H     0.09428   0.96263   0.73984   0.00000  Uiso   1.00
H1039  H     0.02832   0.87922   0.80785   0.00000  Uiso   1.00
H1040  H     0.06153   0.78900   0.69012   0.00000  Uiso   1.00
H1041  H     0.29881   0.78419   0.99498   0.00000  Uiso   1.00
H1042  H     0.13991   0.84935   0.58852   0.00000  Uiso   1.00
H1043  H     0.05103   0.85095   0.91432   0.00000  Uiso   1.00
N1044  N     0.04931   0.83332   0.74998   0.00000  Uiso   1.00
N1045  N     0.28402   0.83335   0.75000   0.00000  Uiso   1.00
N1046  N     0.28189   0.76814   0.90995   0.00000  Uiso   1.00
O1047  O     0.12708   0.89345   0.75000   0.00000  Uiso   1.00
O1048  O     0.30170   0.78332   0.68248   0.00000  Uiso   1.00
O1049  O     0.20627   0.89346   0.75000   0.00000  Uiso   1.00
O1050  O     0.10775   0.83332   0.82549   0.00000  Uiso   1.00
O1051  O     0.18694   0.83333   0.82549   0.00000  Uiso   1.00
O1052  O     0.12706   0.77321   0.74999   0.00000  Uiso   1.00
O1053  O     0.20625   0.77322   0.75000   0.00000  Uiso   1.00
O1054  O     0.14640   0.83334   0.67451   0.00000  Uiso   1.00
O1055  O     0.22559   0.83335   0.67451   0.00000  Uiso   1.00
O1056  O     0.26423   0.88550   0.81501   0.00000  Uiso   1.00
C1057  C     0.49996   0.91265   0.75018   0.00000  Uiso   1.00
C1058  C     0.45776   0.82870   0.90752   0.00000  Uiso   1.00
C1059  C     0.54036   0.97875   0.75650   0.00000  Uiso   1.00
C1060  C     0.47377   0.83103   0.85007   0.00000  Uiso   1.00
C1061  C     0.54030   0.68800   0.75660   0.00000  Uiso   1.00
C1062  C     0.49986   0.70942   0.75039   0.00000  Uiso   1.00
C1063  C     0.45927   0.68794   0.74453   0.00000  Uiso   1.00
C1064  C     0.45925   0.97869   0.74462   0.00000  Uiso   1.00
C1065  C     0.49986   0.95726   0.75042   0.00000  Uiso   1.00
C1066  C     0.63203   0.85853   0.78374   0.00000  Uiso   1.00
C1067  C     0.34905   0.85860   0.78289   0.00000  Uiso   1.00
C1068  C     0.47801   0.82554   0.98971   0.00000  Uiso   1.00
C1069  C     0.36765   0.80813   0.71700   0.00000  Uiso   1.00
C1070  C     0.65081   0.80740   0.71724   0.00000  Uiso   1.00
C1071  C     0.49996   0.75402   0.75010   0.00000  Uiso   1.00
C1072  C     0.52627   0.83258   0.64992   0.00000  Uiso   1.00
C1073  C     0.59669   0.79788   0.51434   0.00000  Uiso   1.00
C1074  C     0.54122   0.82669   0.59325   0.00000  Uiso   1.00
C1075  C     0.41029   0.84240   0.93479   0.00000  Uiso   1.00
C1076  C     0.39593   0.84625   0.98871   0.00000  Uiso   1.00
C1077  C     0.42941   0.83881   0.51598   0.00000  Uiso   1.00
C1078  C     0.60326   0.89055   0.86512   0.00000  Uiso   1.00
C1079  C     0.49032   0.81650   0.93569   0.00000  Uiso   1.00
C1080  C     0.65618   0.74361   0.67620   0.00000  Uiso   1.00
C1081  C     0.51450   0.82055   0.51542   0.00000  Uiso   1.00
C1082  C     0.56074   0.80251   0.98850   0.00000  Uiso   1.00
C1083  C     0.56977   0.78852   0.93684   0.00000  Uiso   1.00
C1084  C     0.53425   0.79489   0.91151   0.00000  Uiso   1.00
C1085  C     0.50652   0.83366   0.56716   0.00000  Uiso   1.00
C1086  C     0.58685   0.80964   0.56641   0.00000  Uiso   1.00
Cu1087 Cu    0.45311   0.83333   0.75000   0.00000  Uiso   1.00
Cu1088 Cu    0.54689   0.83334   0.75000   0.00000  Uiso   1.00
H1089  H     0.61419   0.80399   0.58610   0.00000  Uiso   1.00
H1090  H     0.41559   0.84268   0.55772   0.00000  Uiso   1.00
H1091  H     0.35900   0.85635   0.50943   0.00000  Uiso   1.00
H1092  H     0.54114   0.78179   0.87292   0.00000  Uiso   1.00
H1093  H     0.57195   0.96274   0.76140   0.00000  Uiso   1.00
H1094  H     0.63066   0.91497   0.86449   0.00000  Uiso   1.00
H1095  H     0.61337   0.86139   0.88086   0.00000  Uiso   1.00
H1096  H     0.56762   0.90083   0.89238   0.00000  Uiso   1.00
H1097  H     0.63247   0.72271   0.66156   0.00000  Uiso   1.00
H1098  H     0.65857   0.73063   0.71366   0.00000  Uiso   1.00
H1099  H     0.35951   0.74395   0.64633   0.00000  Uiso   1.00
H1100  H     0.57175   0.70406   0.76179   0.00000  Uiso   1.00
H1101  H     0.61417   0.75631   0.87401   0.00000  Uiso   1.00
H1102  H     0.64292   0.79040   0.90151   0.00000  Uiso   1.00
H1103  H     0.42767   0.70395   0.73965   0.00000  Uiso   1.00
H1104  H     0.42761   0.96263   0.73984   0.00000  Uiso   1.00
H1105  H     0.36165   0.87922   0.80785   0.00000  Uiso   1.00
H1106  H     0.39486   0.78900   0.69012   0.00000  Uiso   1.00
H1107  H     0.63214   0.78419   0.99498   0.00000  Uiso   1.00
H1108  H     0.47325   0.84935   0.58852   0.00000  Uiso   1.00
H1109  H     0.38436   0.85095   0.91432   0.00000  Uiso   1.00
N1110  N     0.38265   0.83332   0.74998   0.00000  Uiso   1.00
N1111  N     0.61735   0.83335   0.75000   0.00000  Uiso   1.00
N1112  N     0.61523   0.76814   0.90995   0.00000  Uiso   1.00
O1113  O     0.46042   0.89345   0.75000   0.00000  Uiso   1.00
O1114  O     0.63503   0.78332   0.68248   0.00000  Uiso   1.00
O1115  O     0.53961   0.89346   0.75000   0.00000  Uiso   1.00
O1116  O     0.44108   0.83332   0.82549   0.00000  Uiso   1.00
O1117  O     0.52027   0.83333   0.82549   0.00000  Uiso   1.00
O1118  O     0.46039   0.77321   0.74999   0.00000  Uiso   1.00
O1119  O     0.53958   0.77322   0.75000   0.00000  Uiso   1.00
O1120  O     0.47973   0.83334   0.67451   0.00000  Uiso   1.00
O1121  O     0.55892   0.83335   0.67451   0.00000  Uiso   1.00
O1122  O     0.59757   0.88550   0.81501   0.00000  Uiso   1.00
C1123  C     0.83329   0.91265   0.75018   0.00000  Uiso   1.00
C1124  C     0.79110   0.82870   0.90752   0.00000  Uiso   1.00
C1125  C     0.87369   0.97875   0.75650   0.00000  Uiso   1.00
C1126  C     0.80711   0.83103   0.85007   0.00000  Uiso   1.00
C1127  C     0.87363   0.68800   0.75660   0.00000  Uiso   1.00
C1128  C     0.83319   0.70942   0.75039   0.00000  Uiso   1.00
C1129  C     0.79260   0.68794   0.74453   0.00000  Uiso   1.00
C1130  C     0.79258   0.97869   0.74462   0.00000  Uiso   1.00
C1131  C     0.83319   0.95726   0.75042   0.00000  Uiso   1.00
C1132  C     0.96536   0.85853   0.78374   0.00000  Uiso   1.00
C1133  C     0.68238   0.85860   0.78289   0.00000  Uiso   1.00
C1134  C     0.81134   0.82554   0.98971   0.00000  Uiso   1.00
C1135  C     0.70099   0.80813   0.71700   0.00000  Uiso   1.00
C1136  C     0.98415   0.80740   0.71724   0.00000  Uiso   1.00
C1137  C     0.83329   0.75402   0.75010   0.00000  Uiso   1.00
C1138  C     0.85960   0.83258   0.64992   0.00000  Uiso   1.00
C1139  C     0.93002   0.79788   0.51434   0.00000  Uiso   1.00
C1140  C     0.87456   0.82669   0.59325   0.00000  Uiso   1.00
C1141  C     0.74362   0.84240   0.93479   0.00000  Uiso   1.00
C1142  C     0.72927   0.84625   0.98871   0.00000  Uiso   1.00
C1143  C     0.76275   0.83881   0.51598   0.00000  Uiso   1.00
C1144  C     0.93660   0.89055   0.86512   0.00000  Uiso   1.00
C1145  C     0.82365   0.81650   0.93569   0.00000  Uiso   1.00
C1146  C     0.98951   0.74361   0.67620   0.00000  Uiso   1.00
C1147  C     0.84783   0.82055   0.51542   0.00000  Uiso   1.00
C1148  C     0.89407   0.80251   0.98850   0.00000  Uiso   1.00
C1149  C     0.90310   0.78852   0.93684   0.00000  Uiso   1.00
C1150  C     0.86759   0.79489   0.91151   0.00000  Uiso   1.00
C1151  C     0.83985   0.83366   0.56716   0.00000  Uiso   1.00
C1152  C     0.92018   0.80964   0.56641   0.00000  Uiso   1.00
Cu1153 Cu    0.78645   0.83333   0.75000   0.00000  Uiso   1.00
Cu1154 Cu    0.88022   0.83334   0.75000   0.00000  Uiso   1.00
H1155  H     0.94753   0.80399   0.58610   0.00000  Uiso   1.00
H1156  H     0.74892   0.84268   0.55772   0.00000  Uiso   1.00
H1157  H     0.69233   0.85635   0.50943   0.00000  Uiso   1.00
H1158  H     0.87447   0.78179   0.87292   0.00000  Uiso   1.00
H1159  H     0.90529   0.96274   0.76140   0.00000  Uiso   1.00
H1160  H     0.96399   0.91497   0.86449   0.00000  Uiso   1.00
H1161  H     0.94671   0.86139   0.88086   0.00000  Uiso   1.00
H1162  H     0.90095   0.90083   0.89238   0.00000  Uiso   1.00
H1163  H     0.96580   0.72271   0.66156   0.00000  Uiso   1.00
H1164  H     0.99191   0.73063   0.71366   0.00000  Uiso   1.00
H1165  H     0.69285   0.74395   0.64633   0.00000  Uiso   1.00
H1166  H     0.90508   0.70406   0.76179   0.00000  Uiso   1.00
H1167  H     0.94750   0.75631   0.87401   0.00000  Uiso   1.00
H1168  H     0.97625   0.79040   0.90151   0.00000  Uiso   1.00
H1169  H     0.76100   0.70395   0.73965   0.00000  Uiso   1.00
H1170  H     0.76095   0.96263   0.73984   0.00000  Uiso   1.00
H1171  H     0.69499   0.87922   0.80785   0.00000  Uiso   1.00
H1172  H     0.72820   0.78900   0.69012   0.00000  Uiso   1.00
H1173  H     0.96547   0.78419   0.99498   0.00000  Uiso   1.00
H1174  H     0.80658   0.84935   0.58852   0.00000  Uiso   1.00
H1175  H     0.71770   0.85095   0.91432   0.00000  Uiso   1.00
N1176  N     0.71598   0.83332   0.74998   0.00000  Uiso   1.00
N1177  N     0.95069   0.83335   0.75000   0.00000  Uiso   1.00
N1178  N     0.94856   0.76814   0.90995   0.00000  Uiso   1.00
O1179  O     0.79375   0.89345   0.75000   0.00000  Uiso   1.00
O1180  O     0.96836   0.78332   0.68248   0.00000  Uiso   1.00
O1181  O     0.87294   0.89346   0.75000   0.00000  Uiso   1.00
O1182  O     0.77441   0.83332   0.82549   0.00000  Uiso   1.00
O1183  O     0.85360   0.83333   0.82549   0.00000  Uiso   1.00
O1184  O     0.79373   0.77321   0.74999   0.00000  Uiso   1.00
O1185  O     0.87292   0.77322   0.75000   0.00000  Uiso   1.00
O1186  O     0.81306   0.83334   0.67451   0.00000  Uiso   1.00
O1187  O     0.89225   0.83335   0.67451   0.00000  Uiso   1.00
O1188  O     0.93090   0.88550   0.81501   0.00000  Uiso   1.00
loop_
_geom_bond_atom_site_label_1
_geom_bond_atom_site_label_2
_geom_bond_distance
_geom_bond_site_symmetry_2
_ccdc_geom_bond_type
C1     O57     1.291   .     A
C1     O59     1.291   .     A
C1     C9      1.450   .     S
C2     C4      1.474   .     S
C2     C23     1.422   .     A
C2     C19     1.403   .     A
C3     C9      1.401   .     A
C3     H37     1.083   .     S
C3     C203    1.383   .     S
C4     O61     1.295   .     A
C4     O60     1.298   .     A
C5     H44     1.083   .     S
C5     C6      1.401   .     A
C5     C399    1.383   1_545 S
C6     C7      1.401   .     A
C6     C15     1.449   .     S
C7     H47     1.083   .     S
C7     C404    1.384   1_545 S
C8     C9      1.401   .     A
C8     H48     1.083   .     S
C8     C205    1.384   .     S
C10    O66     1.390   .     S
C10    N55     1.373   .     A
C10    C77     1.431   .     S
C11    N54     1.362   .     A
C11    H49     1.080   .     S
C11    C142    1.431   1_455 S
C12    C23     1.415   .     A
C12    C615    1.419   .     S
C12    C619    1.423   .     S
C13    H50     1.080   .     S
C13    N54     1.363   .     A
C13    C146    1.431   1_455 S
C14    N55     1.372   .     A
C14    O58     1.390   .     S
C14    C79     1.431   .     S
C15    O63     1.291   .     A
C15    O62     1.291   .     A
C16    O65     1.295   .     A
C16    C18     1.463   .     S
C16    O64     1.293   .     A
C17    C30     1.392   .     A
C17    C620    1.410   1_554 S
C17    H645    1.083   1_554 S
C18    C29     1.394   .     A
C18    C30     1.397   .     A
C19    C20     1.386   .     A
C19    H53     1.084   .     S
C20    C615    1.390   .     S
C20    H629    1.083   .     S
C21    H34     1.077   .     S
C21    C614    1.390   1_554 S
C21    C606    1.419   1_554 S
C22    H40     1.109   .     S
C22    H39     1.113   .     S
C22    H38     1.110   .     S
C22    O66     1.412   .     S
C23    C28     1.411   .     A
C24    H42     1.115   .     S
C24    H41     1.109   .     S
C24    O58     1.412   .     S
C24    H109    1.111   .     S
C25    C29     1.402   .     A
C25    C606    1.423   1_554 S
C25    C620    1.424   1_554 S
C26    C27     1.405   .     A
C26    C611    1.410   .     S
C26    C619    1.424   .     S
C27    C28     1.397   .     A
C27    N56     1.440   .     S
C28    H36     1.080   .     S
C29    H52     1.077   .     S
C30    H33     1.083   .     S
Cu31   O60     1.952   .     S
Cu31   O62     1.964   .     S
Cu31   N54     2.012   .     S
Cu31   O64     1.939   .     S
Cu31   O57     1.964   .     S
Cu31   Cu32    2.677   .     S
Cu32   N55     2.012   .     S
Cu32   O61     1.939   .     S
Cu32   O59     1.964   .     S
Cu32   O63     1.964   .     S
Cu32   O65     1.952   .     S
H35    C614    1.083   1_554 S
H43    C156    1.111   1_455 S
H45    N56     1.046   .     S
H46    N56     1.046   .     S
H51    C611    1.083   .     S
C67    O123    1.291   .     A
C67    O125    1.291   .     A
C67    C75     1.450   .     S
C68    C70     1.474   .     S
C68    C89     1.422   .     A
C68    C85     1.403   .     A
C69    C75     1.401   .     A
C69    H103    1.083   .     S
C69    C269    1.383   .     S
C70    O127    1.295   .     A
C70    O126    1.298   .     A
C71    H110    1.083   .     S
C71    C72     1.401   .     A
C71    C465    1.383   1_545 S
C72    C73     1.401   .     A
C72    C81     1.449   .     S
C73    H113    1.083   .     S
C73    C470    1.384   1_545 S
C74    C75     1.401   .     A
C74    H114    1.083   .     S
C74    C271    1.384   .     S
C76    O132    1.390   .     S
C76    N121    1.373   .     A
C76    C143    1.431   .     S
C77    N120    1.362   .     A
C77    H115    1.080   .     S
C78    C89     1.415   .     A
C78    C681    1.419   .     S
C78    C685    1.423   .     S
C79    H116    1.080   .     S
C79    N120    1.363   .     A
C80    N121    1.372   .     A
C80    O124    1.390   .     S
C80    C145    1.431   .     S
C81    O129    1.291   .     A
C81    O128    1.291   .     A
C82    O131    1.295   .     A
C82    C84     1.463   .     S
C82    O130    1.293   .     A
C83    C96     1.392   .     A
C83    C686    1.410   1_554 S
C83    H711    1.083   1_554 S
C84    C95     1.394   .     A
C84    C96     1.397   .     A
C85    C86     1.386   .     A
C85    H119    1.084   .     S
C86    C681    1.390   .     S
C86    H695    1.083   .     S
C87    H100    1.077   .     S
C87    C680    1.390   1_554 S
C87    C672    1.419   1_554 S
C88    H106    1.109   .     S
C88    H105    1.113   .     S
C88    H104    1.110   .     S
C88    O132    1.412   .     S
C89    C94     1.411   .     A
C90    H108    1.115   .     S
C90    H107    1.109   .     S
C90    O124    1.412   .     S
C90    H175    1.111   .     S
C91    C95     1.402   .     A
C91    C672    1.423   1_554 S
C91    C686    1.424   1_554 S
C92    C93     1.405   .     A
C92    C677    1.410   .     S
C92    C685    1.424   .     S
C93    C94     1.397   .     A
C93    N122    1.440   .     S
C94    H102    1.080   .     S
C95    H118    1.077   .     S
C96    H99     1.083   .     S
Cu97   O126    1.952   .     S
Cu97   O128    1.964   .     S
Cu97   N120    2.012   .     S
Cu97   O130    1.939   .     S
Cu97   O123    1.964   .     S
Cu97   Cu98    2.677   .     S
Cu98   N121    2.012   .     S
Cu98   O127    1.939   .     S
Cu98   O125    1.964   .     S
Cu98   O129    1.964   .     S
Cu98   O131    1.952   .     S
H101   C680    1.083   1_554 S
H111   N122    1.046   .     S
H112   N122    1.046   .     S
H117   C677    1.083   .     S
C133   O189    1.291   .     A
C133   O191    1.291   .     A
C133   C141    1.450   .     S
C134   C136    1.474   .     S
C134   C155    1.422   .     A
C134   C151    1.403   .     A
C135   C141    1.401   .     A
C135   H169    1.083   .     S
C135   C335    1.383   .     S
C136   O193    1.295   .     A
C136   O192    1.298   .     A
C137   H176    1.083   .     S
C137   C138    1.401   .     A
C137   C531    1.383   1_545 S
C138   C139    1.401   .     A
C138   C147    1.449   .     S
C139   H179    1.083   .     S
C139   C536    1.384   1_545 S
C140   C141    1.401   .     A
C140   H180    1.083   .     S
C140   C337    1.384   .     S
C142   O198    1.390   .     S
C142   N187    1.373   .     A
C142   C11     1.431   1_655 S
C143   N186    1.362   .     A
C143   H181    1.080   .     S
C144   C155    1.415   .     A
C144   C747    1.419   .     S
C144   C751    1.423   .     S
C145   H182    1.080   .     S
C145   N186    1.363   .     A
C146   N187    1.372   .     A
C146   O190    1.390   .     S
C146   C13     1.431   1_655 S
C147   O195    1.291   .     A
C147   O194    1.291   .     A
C148   O197    1.295   .     A
C148   C150    1.463   .     S
C148   O196    1.293   .     A
C149   C162    1.392   .     A
C149   C752    1.410   1_554 S
C149   H777    1.083   1_554 S
C150   C161    1.394   .     A
C150   C162    1.397   .     A
C151   C152    1.386   .     A
C151   H185    1.084   .     S
C152   C747    1.390   .     S
C152   H761    1.083   .     S
C153   H166    1.077   .     S
C153   C746    1.390   1_554 S
C153   C738    1.419   1_554 S
C154   H172    1.109   .     S
C154   H171    1.113   .     S
C154   H170    1.110   .     S
C154   O198    1.412   .     S
C155   C160    1.411   .     A
C156   H174    1.115   .     S
C156   H173    1.109   .     S
C156   O190    1.412   .     S
C156   H43     1.111   1_655 S
C157   C161    1.402   .     A
C157   C738    1.423   1_554 S
C157   C752    1.424   1_554 S
C158   C159    1.405   .     A
C158   C743    1.410   .     S
C158   C751    1.424   .     S
C159   C160    1.397   .     A
C159   N188    1.440   .     S
C160   H168    1.080   .     S
C161   H184    1.077   .     S
C162   H165    1.083   .     S
Cu163  O192    1.952   .     S
Cu163  O194    1.964   .     S
Cu163  N186    2.012   .     S
Cu163  O196    1.939   .     S
Cu163  O189    1.964   .     S
Cu163  Cu164   2.677   .     S
Cu164  N187    2.012   .     S
Cu164  O193    1.939   .     S
Cu164  O191    1.964   .     S
Cu164  O195    1.964   .     S
Cu164  O197    1.952   .     S
H167   C746    1.083   1_554 S
H177   N188    1.046   .     S
H178   N188    1.046   .     S
H183   C743    1.083   .     S
C199   O255    1.291   .     A
C199   O257    1.291   .     A
C199   C207    1.450   .     S
C200   C202    1.474   .     S
C200   C221    1.422   .     A
C200   C217    1.403   .     A
C201   C207    1.401   .     A
C201   H235    1.083   .     S
C201   C401    1.383   .     S
C202   O259    1.295   .     A
C202   O258    1.298   .     A
C203   H242    1.083   .     S
C203   C204    1.401   .     A
C204   C205    1.401   .     A
C204   C213    1.449   .     S
C205   H245    1.083   .     S
C206   C207    1.401   .     A
C206   H246    1.083   .     S
C206   C403    1.384   .     S
C208   O264    1.390   .     S
C208   N253    1.373   .     A
C208   C275    1.431   .     S
C209   N252    1.362   .     A
C209   H247    1.080   .     S
C209   C340    1.431   1_455 S
C210   C221    1.415   .     A
C210   C813    1.419   .     S
C210   C817    1.423   .     S
C211   H248    1.080   .     S
C211   N252    1.363   .     A
C211   C344    1.431   1_455 S
C212   N253    1.372   .     A
C212   O256    1.390   .     S
C212   C277    1.431   .     S
C213   O261    1.291   .     A
C213   O260    1.291   .     A
C214   O263    1.295   .     A
C214   C216    1.463   .     S
C214   O262    1.293   .     A
C215   C228    1.392   .     A
C215   C818    1.410   1_554 S
C215   H843    1.083   1_554 S
C216   C227    1.394   .     A
C216   C228    1.397   .     A
C217   C218    1.386   .     A
C217   H251    1.084   .     S
C218   C813    1.390   .     S
C218   H827    1.083   .     S
C219   H232    1.077   .     S
C219   C812    1.390   1_554 S
C219   C804    1.419   1_554 S
C220   H238    1.109   .     S
C220   H237    1.113   .     S
C220   H236    1.110   .     S
C220   O264    1.412   .     S
C221   C226    1.411   .     A
C222   H240    1.115   .     S
C222   H239    1.109   .     S
C222   O256    1.412   .     S
C222   H307    1.111   .     S
C223   C227    1.402   .     A
C223   C804    1.423   1_554 S
C223   C818    1.424   1_554 S
C224   C225    1.405   .     A
C224   C809    1.410   .     S
C224   C817    1.424   .     S
C225   C226    1.397   .     A
C225   N254    1.440   .     S
C226   H234    1.080   .     S
C227   H250    1.077   .     S
C228   H231    1.083   .     S
Cu229  O258    1.952   .     S
Cu229  O260    1.964   .     S
Cu229  N252    2.012   .     S
Cu229  O262    1.939   .     S
Cu229  O255    1.964   .     S
Cu229  Cu230   2.677   .     S
Cu230  N253    2.012   .     S
Cu230  O259    1.939   .     S
Cu230  O257    1.964   .     S
Cu230  O261    1.964   .     S
Cu230  O263    1.952   .     S
H233   C812    1.083   1_554 S
H241   C354    1.111   1_455 S
H243   N254    1.046   .     S
H244   N254    1.046   .     S
H249   C809    1.083   .     S
C265   O321    1.291   .     A
C265   O323    1.291   .     A
C265   C273    1.450   .     S
C266   C268    1.474   .     S
C266   C287    1.422   .     A
C266   C283    1.403   .     A
C267   C273    1.401   .     A
C267   H301    1.083   .     S
C267   C467    1.383   .     S
C268   O325    1.295   .     A
C268   O324    1.298   .     A
C269   H308    1.083   .     S
C269   C270    1.401   .     A
C270   C271    1.401   .     A
C270   C279    1.449   .     S
C271   H311    1.083   .     S
C272   C273    1.401   .     A
C272   H312    1.083   .     S
C272   C469    1.384   .     S
C274   O330    1.390   .     S
C274   N319    1.373   .     A
C274   C341    1.431   .     S
C275   N318    1.362   .     A
C275   H313    1.080   .     S
C276   C287    1.415   .     A
C276   C879    1.419   .     S
C276   C883    1.423   .     S
C277   H314    1.080   .     S
C277   N318    1.363   .     A
C278   N319    1.372   .     A
C278   O322    1.390   .     S
C278   C343    1.431   .     S
C279   O327    1.291   .     A
C279   O326    1.291   .     A
C280   O329    1.295   .     A
C280   C282    1.463   .     S
C280   O328    1.293   .     A
C281   C294    1.392   .     A
C281   C884    1.410   1_554 S
C281   H909    1.083   1_554 S
C282   C293    1.394   .     A
C282   C294    1.397   .     A
C283   C284    1.386   .     A
C283   H317    1.084   .     S
C284   C879    1.390   .     S
C284   H893    1.083   .     S
C285   H298    1.077   .     S
C285   C878    1.390   1_554 S
C285   C870    1.419   1_554 S
C286   H304    1.109   .     S
C286   H303    1.113   .     S
C286   H302    1.110   .     S
C286   O330    1.412   .     S
C287   C292    1.411   .     A
C288   H306    1.115   .     S
C288   H305    1.109   .     S
C288   O322    1.412   .     S
C288   H373    1.111   .     S
C289   C293    1.402   .     A
C289   C870    1.423   1_554 S
C289   C884    1.424   1_554 S
C290   C291    1.405   .     A
C290   C875    1.410   .     S
C290   C883    1.424   .     S
C291   C292    1.397   .     A
C291   N320    1.440   .     S
C292   H300    1.080   .     S
C293   H316    1.077   .     S
C294   H297    1.083   .     S
Cu295  O324    1.952   .     S
Cu295  O326    1.964   .     S
Cu295  N318    2.012   .     S
Cu295  O328    1.939   .     S
Cu295  O321    1.964   .     S
Cu295  Cu296   2.677   .     S
Cu296  N319    2.012   .     S
Cu296  O325    1.939   .     S
Cu296  O323    1.964   .     S
Cu296  O327    1.964   .     S
Cu296  O329    1.952   .     S
H299   C878    1.083   1_554 S
H309   N320    1.046   .     S
H310   N320    1.046   .     S
H315   C875    1.083   .     S
C331   O387    1.291   .     A
C331   O389    1.291   .     A
C331   C339    1.450   .     S
C332   C334    1.474   .     S
C332   C353    1.422   .     A
C332   C349    1.403   .     A
C333   C339    1.401   .     A
C333   H367    1.083   .     S
C333   C533    1.383   .     S
C334   O391    1.295   .     A
C334   O390    1.298   .     A
C335   H374    1.083   .     S
C335   C336    1.401   .     A
C336   C337    1.401   .     A
C336   C345    1.449   .     S
C337   H377    1.083   .     S
C338   C339    1.401   .     A
C338   H378    1.083   .     S
C338   C535    1.384   .     S
C340   O396    1.390   .     S
C340   N385    1.373   .     A
C340   C209    1.431   1_655 S
C341   N384    1.362   .     A
C341   H379    1.080   .     S
C342   C353    1.415   .     A
C342   C945    1.419   .     S
C342   C949    1.423   .     S
C343   H380    1.080   .     S
C343   N384    1.363   .     A
C344   N385    1.372   .     A
C344   O388    1.390   .     S
C344   C211    1.431   1_655 S
C345   O393    1.291   .     A
C345   O392    1.291   .     A
C346   O395    1.295   .     A
C346   C348    1.463   .     S
C346   O394    1.293   .     A
C347   C360    1.392   .     A
C347   C950    1.410   1_554 S
C347   H975    1.083   1_554 S
C348   C359    1.394   .     A
C348   C360    1.397   .     A
C349   C350    1.386   .     A
C349   H383    1.084   .     S
C350   C945    1.390   .     S
C350   H959    1.083   .     S
C351   H364    1.077   .     S
C351   C944    1.390   1_554 S
C351   C936    1.419   1_554 S
C352   H370    1.109   .     S
C352   H369    1.113   .     S
C352   H368    1.110   .     S
C352   O396    1.412   .     S
C353   C358    1.411   .     A
C354   H372    1.115   .     S
C354   H371    1.109   .     S
C354   O388    1.412   .     S
C354   H241    1.111   1_655 S
C355   C359    1.402   .     A
C355   C936    1.423   1_554 S
C355   C950    1.424   1_554 S
C356   C357    1.405   .     A
C356   C941    1.410   .     S
C356   C949    1.424   .     S
C357   C358    1.397   .     A
C357   N386    1.440   .     S
C358   H366    1.080   .     S
C359   H382    1.077   .     S
C360   H363    1.083   .     S
Cu361  O390    1.952   .     S
Cu361  O392    1.964   .     S
Cu361  N384    2.012   .     S
Cu361  O394    1.939   .     S
Cu361  O387    1.964   .     S
Cu361  Cu362   2.677   .     S
Cu362  N385    2.012   .     S
Cu362  O391    1.939   .     S
Cu362  O389    1.964   .     S
Cu362  O393    1.964   .     S
Cu362  O395    1.952   .     S
H365   C944    1.083   1_554 S
H375   N386    1.046   .     S
H376   N386    1.046   .     S
H381   C941    1.083   .     S
C397   O453    1.291   .     A
C397   O455    1.291   .     A
C397   C405    1.450   .     S
C398   C400    1.474   .     S
C398   C419    1.422   .     A
C398   C415    1.403   .     A
C399   C405    1.401   .     A
C399   H433    1.083   .     S
C399   C5      1.383   1_565 S
C400   O457    1.295   .     A
C400   O456    1.298   .     A
C401   H440    1.083   .     S
C401   C402    1.401   .     A
C402   C403    1.401   .     A
C402   C411    1.449   .     S
C403   H443    1.083   .     S
C404   C405    1.401   .     A
C404   H444    1.083   .     S
C404   C7      1.384   1_565 S
C406   O462    1.390   .     S
C406   N451    1.373   .     A
C406   C473    1.431   .     S
C407   N450    1.362   .     A
C407   H445    1.080   .     S
C407   C538    1.431   1_455 S
C408   C419    1.415   .     A
C408   C1011   1.419   .     S
C408   C1015   1.423   .     S
C409   H446    1.080   .     S
C409   N450    1.363   .     A
C409   C542    1.431   1_455 S
C410   N451    1.372   .     A
C410   O454    1.390   .     S
C410   C475    1.431   .     S
C411   O459    1.291   .     A
C411   O458    1.291   .     A
C412   O461    1.295   .     A
C412   C414    1.463   .     S
C412   O460    1.293   .     A
C413   C426    1.392   .     A
C413   C1016   1.410   1_554 S
C413   H1041   1.083   1_554 S
C414   C425    1.394   .     A
C414   C426    1.397   .     A
C415   C416    1.386   .     A
C415   H449    1.084   .     S
C416   C1011   1.390   .     S
C416   H1025   1.083   .     S
C417   H430    1.077   .     S
C417   C1010   1.390   1_554 S
C417   C1002   1.419   1_554 S
C418   H436    1.109   .     S
C418   H435    1.113   .     S
C418   H434    1.110   .     S
C418   O462    1.412   .     S
C419   C424    1.411   .     A
C420   H438    1.115   .     S
C420   H437    1.109   .     S
C420   O454    1.412   .     S
C420   H505    1.111   .     S
C421   C425    1.402   .     A
C421   C1002   1.423   1_554 S
C421   C1016   1.424   1_554 S
C422   C423    1.405   .     A
C422   C1007   1.410   .     S
C422   C1015   1.424   .     S
C423   C424    1.397   .     A
C423   N452    1.440   .     S
C424   H432    1.080   .     S
C425   H448    1.077   .     S
C426   H429    1.083   .     S
Cu427  O456    1.952   .     S
Cu427  O458    1.964   .     S
Cu427  N450    2.012   .     S
Cu427  O460    1.939   .     S
Cu427  O453    1.964   .     S
Cu427  Cu428   2.677   .     S
Cu428  N451    2.012   .     S
Cu428  O457    1.939   .     S
Cu428  O455    1.964   .     S
Cu428  O459    1.964   .     S
Cu428  O461    1.952   .     S
H431   C1010   1.083   1_554 S
H439   C552    1.111   1_455 S
H441   N452    1.046   .     S
H442   N452    1.046   .     S
H447   C1007   1.083   .     S
C463   O519    1.291   .     A
C463   O521    1.291   .     A
C463   C471    1.450   .     S
C464   C466    1.474   .     S
C464   C485    1.422   .     A
C464   C481    1.403   .     A
C465   C471    1.401   .     A
C465   H499    1.083   .     S
C465   C71     1.383   1_565 S
C466   O523    1.295   .     A
C466   O522    1.298   .     A
C467   H506    1.083   .     S
C467   C468    1.401   .     A
C468   C469    1.401   .     A
C468   C477    1.449   .     S
C469   H509    1.083   .     S
C470   C471    1.401   .     A
C470   H510    1.083   .     S
C470   C73     1.384   1_565 S
C472   O528    1.390   .     S
C472   N517    1.373   .     A
C472   C539    1.431   .     S
C473   N516    1.362   .     A
C473   H511    1.080   .     S
C474   C485    1.415   .     A
C474   C1077   1.419   .     S
C474   C1081   1.423   .     S
C475   H512    1.080   .     S
C475   N516    1.363   .     A
C476   N517    1.372   .     A
C476   O520    1.390   .     S
C476   C541    1.431   .     S
C477   O525    1.291   .     A
C477   O524    1.291   .     A
C478   O527    1.295   .     A
C478   C480    1.463   .     S
C478   O526    1.293   .     A
C479   C492    1.392   .     A
C479   C1082   1.410   1_554 S
C479   H1107   1.083   1_554 S
C480   C491    1.394   .     A
C480   C492    1.397   .     A
C481   C482    1.386   .     A
C481   H515    1.084   .     S
C482   C1077   1.390   .     S
C482   H1091   1.083   .     S
C483   H496    1.077   .     S
C483   C1076   1.390   1_554 S
C483   C1068   1.419   1_554 S
C484   H502    1.109   .     S
C484   H501    1.113   .     S
C484   H500    1.110   .     S
C484   O528    1.412   .     S
C485   C490    1.411   .     A
C486   H504    1.115   .     S
C486   H503    1.109   .     S
C486   O520    1.412   .     S
C486   H571    1.111   .     S
C487   C491    1.402   .     A
C487   C1068   1.423   1_554 S
C487   C1082   1.424   1_554 S
C488   C489    1.405   .     A
C488   C1073   1.410   .     S
C488   C1081   1.424   .     S
C489   C490    1.397   .     A
C489   N518    1.440   .     S
C490   H498    1.080   .     S
C491   H514    1.077   .     S
C492   H495    1.083   .     S
Cu493  O522    1.952   .     S
Cu493  O524    1.964   .     S
Cu493  N516    2.012   .     S
Cu493  O526    1.939   .     S
Cu493  O519    1.964   .     S
Cu493  Cu494   2.677   .     S
Cu494  N517    2.012   .     S
Cu494  O523    1.939   .     S
Cu494  O521    1.964   .     S
Cu494  O525    1.964   .     S
Cu494  O527    1.952   .     S
H497   C1076   1.083   1_554 S
H507   N518    1.046   .     S
H508   N518    1.046   .     S
H513   C1073   1.083   .     S
C529   O585    1.291   .     A
C529   O587    1.291   .     A
C529   C537    1.450   .     S
C530   C532    1.474   .     S
C530   C551    1.422   .     A
C530   C547    1.403   .     A
C531   C537    1.401   .     A
C531   H565    1.083   .     S
C531   C137    1.383   1_565 S
C532   O589    1.295   .     A
C532   O588    1.298   .     A
C533   H572    1.083   .     S
C533   C534    1.401   .     A
C534   C535    1.401   .     A
C534   C543    1.449   .     S
C535   H575    1.083   .     S
C536   C537    1.401   .     A
C536   H576    1.083   .     S
C536   C139    1.384   1_565 S
C538   O594    1.390   .     S
C538   N583    1.373   .     A
C538   C407    1.431   1_655 S
C539   N582    1.362   .     A
C539   H577    1.080   .     S
C540   C551    1.415   .     A
C540   C1143   1.419   .     S
C540   C1147   1.423   .     S
C541   H578    1.080   .     S
C541   N582    1.363   .     A
C542   N583    1.372   .     A
C542   O586    1.390   .     S
C542   C409    1.431   1_655 S
C543   O591    1.291   .     A
C543   O590    1.291   .     A
C544   O593    1.295   .     A
C544   C546    1.463   .     S
C544   O592    1.293   .     A
C545   C558    1.392   .     A
C545   C1148   1.410   1_554 S
C545   H1173   1.083   1_554 S
C546   C557    1.394   .     A
C546   C558    1.397   .     A
C547   C548    1.386   .     A
C547   H581    1.084   .     S
C548   C1143   1.390   .     S
C548   H1157   1.083   .     S
C549   H562    1.077   .     S
C549   C1142   1.390   1_554 S
C549   C1134   1.419   1_554 S
C550   H568    1.109   .     S
C550   H567    1.113   .     S
C550   H566    1.110   .     S
C550   O594    1.412   .     S
C551   C556    1.411   .     A
C552   H570    1.115   .     S
C552   H569    1.109   .     S
C552   O586    1.412   .     S
C552   H439    1.111   1_655 S
C553   C557    1.402   .     A
C553   C1134   1.423   1_554 S
C553   C1148   1.424   1_554 S
C554   C555    1.405   .     A
C554   C1139   1.410   .     S
C554   C1147   1.424   .     S
C555   C556    1.397   .     A
C555   N584    1.440   .     S
C556   H564    1.080   .     S
C557   H580    1.077   .     S
C558   H561    1.083   .     S
Cu559  O588    1.952   .     S
Cu559  O590    1.964   .     S
Cu559  N582    2.012   .     S
Cu559  O592    1.939   .     S
Cu559  O585    1.964   .     S
Cu559  Cu560   2.677   .     S
Cu560  N583    2.012   .     S
Cu560  O589    1.939   .     S
Cu560  O587    1.964   .     S
Cu560  O591    1.964   .     S
Cu560  O593    1.952   .     S
H563   C1142   1.083   1_554 S
H573   N584    1.046   .     S
H574   N584    1.046   .     S
H579   C1139   1.083   .     S
C595   O651    1.291   .     A
C595   O653    1.291   .     A
C595   C603    1.450   .     S
C596   C598    1.474   .     S
C596   C617    1.422   .     A
C596   C613    1.403   .     A
C597   C603    1.401   .     A
C597   H631    1.083   .     S
C597   C797    1.383   .     S
C598   O655    1.295   .     A
C598   O654    1.298   .     A
C599   H638    1.083   .     S
C599   C600    1.401   .     A
C599   C993    1.383   1_545 S
C600   C601    1.401   .     A
C600   C609    1.449   .     S
C601   H641    1.083   .     S
C601   C998    1.384   1_545 S
C602   C603    1.401   .     A
C602   H642    1.083   .     S
C602   C799    1.384   .     S
C604   O660    1.390   .     S
C604   N649    1.373   .     A
C604   C671    1.431   .     S
C605   N648    1.362   .     A
C605   H643    1.080   .     S
C605   C736    1.431   1_455 S
C606   C617    1.415   .     A
C606   C21     1.419   1_556 S
C606   C25     1.423   1_556 S
C607   H644    1.080   .     S
C607   N648    1.363   .     A
C607   C740    1.431   1_455 S
C608   N649    1.372   .     A
C608   O652    1.390   .     S
C608   C673    1.431   .     S
C609   O657    1.291   .     A
C609   O656    1.291   .     A
C610   O659    1.295   .     A
C610   C612    1.463   .     S
C610   O658    1.293   .     A
C611   C624    1.392   .     A
C612   C623    1.394   .     A
C612   C624    1.397   .     A
C613   C614    1.386   .     A
C613   H647    1.084   .     S
C614   C21     1.390   1_556 S
C614   H35     1.083   1_556 S
C615   H628    1.077   .     S
C616   H634    1.109   .     S
C616   H633    1.113   .     S
C616   H632    1.110   .     S
C616   O660    1.412   .     S
C617   C622    1.411   .     A
C618   H636    1.115   .     S
C618   H635    1.109   .     S
C618   O652    1.412   .     S
C618   H703    1.111   .     S
C619   C623    1.402   .     A
C620   C621    1.405   .     A
C620   C17     1.410   1_556 S
C620   C25     1.424   1_556 S
C621   C622    1.397   .     A
C621   N650    1.440   .     S
C622   H630    1.080   .     S
C623   H646    1.077   .     S
C624   H627    1.083   .     S
Cu625  O654    1.952   .     S
Cu625  O656    1.964   .     S
Cu625  N648    2.012   .     S
Cu625  O658    1.939   .     S
Cu625  O651    1.964   .     S
Cu625  Cu626   2.677   .     S
Cu626  N649    2.012   .     S
Cu626  O655    1.939   .     S
Cu626  O653    1.964   .     S
Cu626  O657    1.964   .     S
Cu626  O659    1.952   .     S
H637   C750    1.111   1_455 S
H639   N650    1.046   .     S
H640   N650    1.046   .     S
H645   C17     1.083   1_556 S
C661   O717    1.291   .     A
C661   O719    1.291   .     A
C661   C669    1.450   .     S
C662   C664    1.474   .     S
C662   C683    1.422   .     A
C662   C679    1.403   .     A
C663   C669    1.401   .     A
C663   H697    1.083   .     S
C663   C863    1.383   .     S
C664   O721    1.295   .     A
C664   O720    1.298   .     A
C665   H704    1.083   .     S
C665   C666    1.401   .     A
C665   C1059   1.383   1_545 S
C666   C667    1.401   .     A
C666   C675    1.449   .     S
C667   H707    1.083   .     S
C667   C1064   1.384   1_545 S
C668   C669    1.401   .     A
C668   H708    1.083   .     S
C668   C865    1.384   .     S
C670   O726    1.390   .     S
C670   N715    1.373   .     A
C670   C737    1.431   .     S
C671   N714    1.362   .     A
C671   H709    1.080   .     S
C672   C683    1.415   .     A
C672   C87     1.419   1_556 S
C672   C91     1.423   1_556 S
C673   H710    1.080   .     S
C673   N714    1.363   .     A
C674   N715    1.372   .     A
C674   O718    1.390   .     S
C674   C739    1.431   .     S
C675   O723    1.291   .     A
C675   O722    1.291   .     A
C676   O725    1.295   .     A
C676   C678    1.463   .     S
C676   O724    1.293   .     A
C677   C690    1.392   .     A
C678   C689    1.394   .     A
C678   C690    1.397   .     A
C679   C680    1.386   .     A
C679   H713    1.084   .     S
C680   C87     1.390   1_556 S
C680   H101    1.083   1_556 S
C681   H694    1.077   .     S
C682   H700    1.109   .     S
C682   H699    1.113   .     S
C682   H698    1.110   .     S
C682   O726    1.412   .     S
C683   C688    1.411   .     A
C684   H702    1.115   .     S
C684   H701    1.109   .     S
C684   O718    1.412   .     S
C684   H769    1.111   .     S
C685   C689    1.402   .     A
C686   C687    1.405   .     A
C686   C83     1.410   1_556 S
C686   C91     1.424   1_556 S
C687   C688    1.397   .     A
C687   N716    1.440   .     S
C688   H696    1.080   .     S
C689   H712    1.077   .     S
C690   H693    1.083   .     S
Cu691  O720    1.952   .     S
Cu691  O722    1.964   .     S
Cu691  N714    2.012   .     S
Cu691  O724    1.939   .     S
Cu691  O717    1.964   .     S
Cu691  Cu692   2.677   .     S
Cu692  N715    2.012   .     S
Cu692  O721    1.939   .     S
Cu692  O719    1.964   .     S
Cu692  O723    1.964   .     S
Cu692  O725    1.952   .     S
H705   N716    1.046   .     S
H706   N716    1.046   .     S
H711   C83     1.083   1_556 S
C727   O783    1.291   .     A
C727   O785    1.291   .     A
C727   C735    1.450   .     S
C728   C730    1.474   .     S
C728   C749    1.422   .     A
C728   C745    1.403   .     A
C729   C735    1.401   .     A
C729   H763    1.083   .     S
C729   C929    1.383   .     S
C730   O787    1.295   .     A
C730   O786    1.298   .     A
C731   H770    1.083   .     S
C731   C732    1.401   .     A
C731   C1125   1.383   1_545 S
C732   C733    1.401   .     A
C732   C741    1.449   .     S
C733   H773    1.083   .     S
C733   C1130   1.384   1_545 S
C734   C735    1.401   .     A
C734   H774    1.083   .     S
C734   C931    1.384   .     S
C736   O792    1.390   .     S
C736   N781    1.373   .     A
C736   C605    1.431   1_655 S
C737   N780    1.362   .     A
C737   H775    1.080   .     S
C738   C749    1.415   .     A
C738   C153    1.419   1_556 S
C738   C157    1.423   1_556 S
C739   H776    1.080   .     S
C739   N780    1.363   .     A
C740   N781    1.372   .     A
C740   O784    1.390   .     S
C740   C607    1.431   1_655 S
C741   O789    1.291   .     A
C741   O788    1.291   .     A
C742   O791    1.295   .     A
C742   C744    1.463   .     S
C742   O790    1.293   .     A
C743   C756    1.392   .     A
C744   C755    1.394   .     A
C744   C756    1.397   .     A
C745   C746    1.386   .     A
C745   H779    1.084   .     S
C746   C153    1.390   1_556 S
C746   H167    1.083   1_556 S
C747   H760    1.077   .     S
C748   H766    1.109   .     S
C748   H765    1.113   .     S
C748   H764    1.110   .     S
C748   O792    1.412   .     S
C749   C754    1.411   .     A
C750   H768    1.115   .     S
C750   H767    1.109   .     S
C750   O784    1.412   .     S
C750   H637    1.111   1_655 S
C751   C755    1.402   .     A
C752   C753    1.405   .     A
C752   C149    1.410   1_556 S
C752   C157    1.424   1_556 S
C753   C754    1.397   .     A
C753   N782    1.440   .     S
C754   H762    1.080   .     S
C755   H778    1.077   .     S
C756   H759    1.083   .     S
Cu757  O786    1.952   .     S
Cu757  O788    1.964   .     S
Cu757  N780    2.012   .     S
Cu757  O790    1.939   .     S
Cu757  O783    1.964   .     S
Cu757  Cu758   2.677   .     S
Cu758  N781    2.012   .     S
Cu758  O787    1.939   .     S
Cu758  O785    1.964   .     S
Cu758  O789    1.964   .     S
Cu758  O791    1.952   .     S
H771   N782    1.046   .     S
H772   N782    1.046   .     S
H777   C149    1.083   1_556 S
C793   O849    1.291   .     A
C793   O851    1.291   .     A
C793   C801    1.450   .     S
C794   C796    1.474   .     S
C794   C815    1.422   .     A
C794   C811    1.403   .     A
C795   C801    1.401   .     A
C795   H829    1.083   .     S
C795   C995    1.383   .     S
C796   O853    1.295   .     A
C796   O852    1.298   .     A
C797   H836    1.083   .     S
C797   C798    1.401   .     A
C798   C799    1.401   .     A
C798   C807    1.449   .     S
C799   H839    1.083   .     S
C800   C801    1.401   .     A
C800   H840    1.083   .     S
C800   C997    1.384   .     S
C802   O858    1.390   .     S
C802   N847    1.373   .     A
C802   C869    1.431   .     S
C803   N846    1.362   .     A
C803   H841    1.080   .     S
C803   C934    1.431   1_455 S
C804   C815    1.415   .     A
C804   C219    1.419   1_556 S
C804   C223    1.423   1_556 S
C805   H842    1.080   .     S
C805   N846    1.363   .     A
C805   C938    1.431   1_455 S
C806   N847    1.372   .     A
C806   O850    1.390   .     S
C806   C871    1.431   .     S
C807   O855    1.291   .     A
C807   O854    1.291   .     A
C808   O857    1.295   .     A
C808   C810    1.463   .     S
C808   O856    1.293   .     A
C809   C822    1.392   .     A
C810   C821    1.394   .     A
C810   C822    1.397   .     A
C811   C812    1.386   .     A
C811   H845    1.084   .     S
C812   C219    1.390   1_556 S
C812   H233    1.083   1_556 S
C813   H826    1.077   .     S
C814   H832    1.109   .     S
C814   H831    1.113   .     S
C814   H830    1.110   .     S
C814   O858    1.412   .     S
C815   C820    1.411   .     A
C816   H834    1.115   .     S
C816   H833    1.109   .     S
C816   O850    1.412   .     S
C816   H901    1.111   .     S
C817   C821    1.402   .     A
C818   C819    1.405   .     A
C818   C215    1.410   1_556 S
C818   C223    1.424   1_556 S
C819   C820    1.397   .     A
C819   N848    1.440   .     S
C820   H828    1.080   .     S
C821   H844    1.077   .     S
C822   H825    1.083   .     S
Cu823  O852    1.952   .     S
Cu823  O854    1.964   .     S
Cu823  N846    2.012   .     S
Cu823  O856    1.939   .     S
Cu823  O849    1.964   .     S
Cu823  Cu824   2.677   .     S
Cu824  N847    2.012   .     S
Cu824  O853    1.939   .     S
Cu824  O851    1.964   .     S
Cu824  O855    1.964   .     S
Cu824  O857    1.952   .     S
H835   C948    1.111   1_455 S
H837   N848    1.046   .     S
H838   N848    1.046   .     S
H843   C215    1.083   1_556 S
C859   O915    1.291   .     A
C859   O917    1.291   .     A
C859   C867    1.450   .     S
C860   C862    1.474   .     S
C860   C881    1.422   .     A
C860   C877    1.403   .     A
C861   C867    1.401   .     A
C861   H895    1.083   .     S
C861   C1061   1.383   .     S
C862   O919    1.295   .     A
C862   O918    1.298   .     A
C863   H902    1.083   .     S
C863   C864    1.401   .     A
C864   C865    1.401   .     A
C864   C873    1.449   .     S
C865   H905    1.083   .     S
C866   C867    1.401   .     A
C866   H906    1.083   .     S
C866   C1063   1.384   .     S
C868   O924    1.390   .     S
C868   N913    1.373   .     A
C868   C935    1.431   .     S
C869   N912    1.362   .     A
C869   H907    1.080   .     S
C870   C881    1.415   .     A
C870   C285    1.419   1_556 S
C870   C289    1.423   1_556 S
C871   H908    1.080   .     S
C871   N912    1.363   .     A
C872   N913    1.372   .     A
C872   O916    1.390   .     S
C872   C937    1.431   .     S
C873   O921    1.291   .     A
C873   O920    1.291   .     A
C874   O923    1.295   .     A
C874   C876    1.463   .     S
C874   O922    1.293   .     A
C875   C888    1.392   .     A
C876   C887    1.394   .     A
C876   C888    1.397   .     A
C877   C878    1.386   .     A
C877   H911    1.084   .     S
C878   C285    1.390   1_556 S
C878   H299    1.083   1_556 S
C879   H892    1.077   .     S
C880   H898    1.109   .     S
C880   H897    1.113   .     S
C880   H896    1.110   .     S
C880   O924    1.412   .     S
C881   C886    1.411   .     A
C882   H900    1.115   .     S
C882   H899    1.109   .     S
C882   O916    1.412   .     S
C882   H967    1.111   .     S
C883   C887    1.402   .     A
C884   C885    1.405   .     A
C884   C281    1.410   1_556 S
C884   C289    1.424   1_556 S
C885   C886    1.397   .     A
C885   N914    1.440   .     S
C886   H894    1.080   .     S
C887   H910    1.077   .     S
C888   H891    1.083   .     S
Cu889  O918    1.952   .     S
Cu889  O920    1.964   .     S
Cu889  N912    2.012   .     S
Cu889  O922    1.939   .     S
Cu889  O915    1.964   .     S
Cu889  Cu890   2.677   .     S
Cu890  N913    2.012   .     S
Cu890  O919    1.939   .     S
Cu890  O917    1.964   .     S
Cu890  O921    1.964   .     S
Cu890  O923    1.952   .     S
H903   N914    1.046   .     S
H904   N914    1.046   .     S
H909   C281    1.083   1_556 S
C925   O981    1.291   .     A
C925   O983    1.291   .     A
C925   C933    1.450   .     S
C926   C928    1.474   .     S
C926   C947    1.422   .     A
C926   C943    1.403   .     A
C927   C933    1.401   .     A
C927   H961    1.083   .     S
C927   C1127   1.383   .     S
C928   O985    1.295   .     A
C928   O984    1.298   .     A
C929   H968    1.083   .     S
C929   C930    1.401   .     A
C930   C931    1.401   .     A
C930   C939    1.449   .     S
C931   H971    1.083   .     S
C932   C933    1.401   .     A
C932   H972    1.083   .     S
C932   C1129   1.384   .     S
C934   O990    1.390   .     S
C934   N979    1.373   .     A
C934   C803    1.431   1_655 S
C935   N978    1.362   .     A
C935   H973    1.080   .     S
C936   C947    1.415   .     A
C936   C351    1.419   1_556 S
C936   C355    1.423   1_556 S
C937   H974    1.080   .     S
C937   N978    1.363   .     A
C938   N979    1.372   .     A
C938   O982    1.390   .     S
C938   C805    1.431   1_655 S
C939   O987    1.291   .     A
C939   O986    1.291   .     A
C940   O989    1.295   .     A
C940   C942    1.463   .     S
C940   O988    1.293   .     A
C941   C954    1.392   .     A
C942   C953    1.394   .     A
C942   C954    1.397   .     A
C943   C944    1.386   .     A
C943   H977    1.084   .     S
C944   C351    1.390   1_556 S
C944   H365    1.083   1_556 S
C945   H958    1.077   .     S
C946   H964    1.109   .     S
C946   H963    1.113   .     S
C946   H962    1.110   .     S
C946   O990    1.412   .     S
C947   C952    1.411   .     A
C948   H966    1.115   .     S
C948   H965    1.109   .     S
C948   O982    1.412   .     S
C948   H835    1.111   1_655 S
C949   C953    1.402   .     A
C950   C951    1.405   .     A
C950   C347    1.410   1_556 S
C950   C355    1.424   1_556 S
C951   C952    1.397   .     A
C951   N980    1.440   .     S
C952   H960    1.080   .     S
C953   H976    1.077   .     S
C954   H957    1.083   .     S
Cu955  O984    1.952   .     S
Cu955  O986    1.964   .     S
Cu955  N978    2.012   .     S
Cu955  O988    1.939   .     S
Cu955  O981    1.964   .     S
Cu955  Cu956   2.677   .     S
Cu956  N979    2.012   .     S
Cu956  O985    1.939   .     S
Cu956  O983    1.964   .     S
Cu956  O987    1.964   .     S
Cu956  O989    1.952   .     S
H969   N980    1.046   .     S
H970   N980    1.046   .     S
H975   C347    1.083   1_556 S
C991   O1047   1.291   .     A
C991   O1049   1.291   .     A
C991   C999    1.450   .     S
C992   C994    1.474   .     S
C992   C1013   1.422   .     A
C992   C1009   1.403   .     A
C993   C999    1.401   .     A
C993   H1027   1.083   .     S
C993   C599    1.383   1_565 S
C994   O1051   1.295   .     A
C994   O1050   1.298   .     A
C995   H1034   1.083   .     S
C995   C996    1.401   .     A
C996   C997    1.401   .     A
C996   C1005   1.449   .     S
C997   H1037   1.083   .     S
C998   C999    1.401   .     A
C998   H1038   1.083   .     S
C998   C601    1.384   1_565 S
C1000  O1056   1.390   .     S
C1000  N1045   1.373   .     A
C1000  C1067   1.431   .     S
C1001  N1044   1.362   .     A
C1001  H1039   1.080   .     S
C1001  C1132   1.431   1_455 S
C1002  C1013   1.415   .     A
C1002  C417    1.419   1_556 S
C1002  C421    1.423   1_556 S
C1003  H1040   1.080   .     S
C1003  N1044   1.363   .     A
C1003  C1136   1.431   1_455 S
C1004  N1045   1.372   .     A
C1004  O1048   1.390   .     S
C1004  C1069   1.431   .     S
C1005  O1053   1.291   .     A
C1005  O1052   1.291   .     A
C1006  O1055   1.295   .     A
C1006  C1008   1.463   .     S
C1006  O1054   1.293   .     A
C1007  C1020   1.392   .     A
C1008  C1019   1.394   .     A
C1008  C1020   1.397   .     A
C1009  C1010   1.386   .     A
C1009  H1043   1.084   .     S
C1010  C417    1.390   1_556 S
C1010  H431    1.083   1_556 S
C1011  H1024   1.077   .     S
C1012  H1030   1.109   .     S
C1012  H1029   1.113   .     S
C1012  H1028   1.110   .     S
C1012  O1056   1.412   .     S
C1013  C1018   1.411   .     A
C1014  H1032   1.115   .     S
C1014  H1031   1.109   .     S
C1014  O1048   1.412   .     S
C1014  H1099   1.111   .     S
C1015  C1019   1.402   .     A
C1016  C1017   1.405   .     A
C1016  C413    1.410   1_556 S
C1016  C421    1.424   1_556 S
C1017  C1018   1.397   .     A
C1017  N1046   1.440   .     S
C1018  H1026   1.080   .     S
C1019  H1042   1.077   .     S
C1020  H1023   1.083   .     S
Cu1021 O1050   1.952   .     S
Cu1021 O1052   1.964   .     S
Cu1021 N1044   2.012   .     S
Cu1021 O1054   1.939   .     S
Cu1021 O1047   1.964   .     S
Cu1021 Cu1022  2.677   .     S
Cu1022 N1045   2.012   .     S
Cu1022 O1051   1.939   .     S
Cu1022 O1049   1.964   .     S
Cu1022 O1053   1.964   .     S
Cu1022 O1055   1.952   .     S
H1033  C1146   1.111   1_455 S
H1035  N1046   1.046   .     S
H1036  N1046   1.046   .     S
H1041  C413    1.083   1_556 S
C1057  O1113   1.291   .     A
C1057  O1115   1.291   .     A
C1057  C1065   1.450   .     S
C1058  C1060   1.474   .     S
C1058  C1079   1.422   .     A
C1058  C1075   1.403   .     A
C1059  C1065   1.401   .     A
C1059  H1093   1.083   .     S
C1059  C665    1.383   1_565 S
C1060  O1117   1.295   .     A
C1060  O1116   1.298   .     A
C1061  H1100   1.083   .     S
C1061  C1062   1.401   .     A
C1062  C1063   1.401   .     A
C1062  C1071   1.449   .     S
C1063  H1103   1.083   .     S
C1064  C1065   1.401   .     A
C1064  H1104   1.083   .     S
C1064  C667    1.384   1_565 S
C1066  O1122   1.390   .     S
C1066  N1111   1.373   .     A
C1066  C1133   1.431   .     S
C1067  N1110   1.362   .     A
C1067  H1105   1.080   .     S
C1068  C1079   1.415   .     A
C1068  C483    1.419   1_556 S
C1068  C487    1.423   1_556 S
C1069  H1106   1.080   .     S
C1069  N1110   1.363   .     A
C1070  N1111   1.372   .     A
C1070  O1114   1.390   .     S
C1070  C1135   1.431   .     S
C1071  O1119   1.291   .     A
C1071  O1118   1.291   .     A
C1072  O1121   1.295   .     A
C1072  C1074   1.463   .     S
C1072  O1120   1.293   .     A
C1073  C1086   1.392   .     A
C1074  C1085   1.394   .     A
C1074  C1086   1.397   .     A
C1075  C1076   1.386   .     A
C1075  H1109   1.084   .     S
C1076  C483    1.390   1_556 S
C1076  H497    1.083   1_556 S
C1077  H1090   1.077   .     S
C1078  H1096   1.109   .     S
C1078  H1095   1.113   .     S
C1078  H1094   1.110   .     S
C1078  O1122   1.412   .     S
C1079  C1084   1.411   .     A
C1080  H1098   1.115   .     S
C1080  H1097   1.109   .     S
C1080  O1114   1.412   .     S
C1080  H1165   1.111   .     S
C1081  C1085   1.402   .     A
C1082  C1083   1.405   .     A
C1082  C479    1.410   1_556 S
C1082  C487    1.424   1_556 S
C1083  C1084   1.397   .     A
C1083  N1112   1.440   .     S
C1084  H1092   1.080   .     S
C1085  H1108   1.077   .     S
C1086  H1089   1.083   .     S
Cu1087 O1116   1.952   .     S
Cu1087 O1118   1.964   .     S
Cu1087 N1110   2.012   .     S
Cu1087 O1120   1.939   .     S
Cu1087 O1113   1.964   .     S
Cu1087 Cu1088  2.677   .     S
Cu1088 N1111   2.012   .     S
Cu1088 O1117   1.939   .     S
Cu1088 O1115   1.964   .     S
Cu1088 O1119   1.964   .     S
Cu1088 O1121   1.952   .     S
H1101  N1112   1.046   .     S
H1102  N1112   1.046   .     S
H1107  C479    1.083   1_556 S
C1123  O1179   1.291   .     A
C1123  O1181   1.291   .     A
C1123  C1131   1.450   .     S
C1124  C1126   1.474   .     S
C1124  C1145   1.422   .     A
C1124  C1141   1.403   .     A
C1125  C1131   1.401   .     A
C1125  H1159   1.083   .     S
C1125  C731    1.383   1_565 S
C1126  O1183   1.295   .     A
C1126  O1182   1.298   .     A
C1127  H1166   1.083   .     S
C1127  C1128   1.401   .     A
C1128  C1129   1.401   .     A
C1128  C1137   1.449   .     S
C1129  H1169   1.083   .     S
C1130  C1131   1.401   .     A
C1130  H1170   1.083   .     S
C1130  C733    1.384   1_565 S
C1132  O1188   1.390   .     S
C1132  N1177   1.373   .     A
C1132  C1001   1.431   1_655 S
C1133  N1176   1.362   .     A
C1133  H1171   1.080   .     S
C1134  C1145   1.415   .     A
C1134  C549    1.419   1_556 S
C1134  C553    1.423   1_556 S
C1135  H1172   1.080   .     S
C1135  N1176   1.363   .     A
C1136  N1177   1.372   .     A
C1136  O1180   1.390   .     S
C1136  C1003   1.431   1_655 S
C1137  O1185   1.291   .     A
C1137  O1184   1.291   .     A
C1138  O1187   1.295   .     A
C1138  C1140   1.463   .     S
C1138  O1186   1.293   .     A
C1139  C1152   1.392   .     A
C1140  C1151   1.394   .     A
C1140  C1152   1.397   .     A
C1141  C1142   1.386   .     A
C1141  H1175   1.084   .     S
C1142  C549    1.390   1_556 S
C1142  H563    1.083   1_556 S
C1143  H1156   1.077   .     S
C1144  H1162   1.109   .     S
C1144  H1161   1.113   .     S
C1144  H1160   1.110   .     S
C1144  O1188   1.412   .     S
C1145  C1150   1.411   .     A
C1146  H1164   1.115   .     S
C1146  H1163   1.109   .     S
C1146  O1180   1.412   .     S
C1146  H1033   1.111   1_655 S
C1147  C1151   1.402   .     A
C1148  C1149   1.405   .     A
C1148  C545    1.410   1_556 S
C1148  C553    1.424   1_556 S
C1149  C1150   1.397   .     A
C1149  N1178   1.440   .     S
C1150  H1158   1.080   .     S
C1151  H1174   1.077   .     S
C1152  H1155   1.083   .     S
Cu1153 O1182   1.952   .     S
Cu1153 O1184   1.964   .     S
Cu1153 N1176   2.012   .     S
Cu1153 O1186   1.939   .     S
Cu1153 O1179   1.964   .     S
Cu1153 Cu1154  2.677   .     S
Cu1154 N1177   2.012   .     S
Cu1154 O1183   1.939   .     S
Cu1154 O1181   1.964   .     S
Cu1154 O1185   1.964   .     S
Cu1154 O1187   1.952   .     S
H1167  N1178   1.046   .     S
H1168  N1178   1.046   .     S
H1173  C545    1.083   1_556 S
