data_str_m2_o1_o10_pcu_sym.203
_audit_creation_date              2020-01-03
_audit_creation_method            'Materials Studio'
_symmetry_space_group_name_H-M    'P1'
_symmetry_Int_Tables_number       1
_symmetry_cell_setting            triclinic
loop_
_symmetry_equiv_pos_as_xyz
  x,y,z
_cell_length_a                    26.3728
_cell_length_b                    32.3973
_cell_length_c                    28.5522
_cell_angle_alpha                 90.0576
_cell_angle_beta                  97.2725
_cell_angle_gamma                 90.1369
loop_
_atom_site_label
_atom_site_type_symbol
_atom_site_fract_x
_atom_site_fract_y
_atom_site_fract_z
_atom_site_U_iso_or_equiv
_atom_site_adp_type
_atom_site_occupancy
O1     O     0.16666   0.10655   0.20625   0.00000  Uiso   1.00
O2     O     0.16667   0.22678   0.12709   0.00000  Uiso   1.00
O3     O     0.16666   0.10654   0.12706   0.00000  Uiso   1.00
O4     O     0.16667   0.22679   0.20628   0.00000  Uiso   1.00
C5     C     0.16812   0.08744   0.16680   0.00000  Uiso   1.00
C6     C     0.16521   0.24590   0.16654   0.00000  Uiso   1.00
O7     O     0.09161   0.16667   0.19712   0.00000  Uiso   1.00
O8     O     0.24172   0.16666   0.13621   0.00000  Uiso   1.00
O9     O     0.09161   0.16666   0.11793   0.00000  Uiso   1.00
O10    O     0.24172   0.16667   0.21540   0.00000  Uiso   1.00
C11    C     0.06821   0.16558   0.15503   0.00000  Uiso   1.00
C12    C     0.26512   0.16775   0.17830   0.00000  Uiso   1.00
Cu13   Cu    0.16667   0.16667   0.21355   0.00000  Uiso   1.00
Cu14   Cu    0.16667   0.16666   0.11978   0.00000  Uiso   1.00
N15    N     0.16668   0.16668   0.28403   0.00000  Uiso   1.00
N16    N     0.16665   0.16666   0.04931   0.00000  Uiso   1.00
C17    C     0.01389   0.15879   0.15018   0.00000  Uiso   1.00
C18    C     0.31944   0.17454   0.18315   0.00000  Uiso   1.00
C19    C     0.13978   0.02220   0.12969   0.00000  Uiso   1.00
C20    C     0.19355   0.31113   0.20364   0.00000  Uiso   1.00
H21    H     0.11761   0.03964   0.10189   0.00000  Uiso   1.00
H22    H     0.21571   0.29369   0.23144   0.00000  Uiso   1.00
C23    C     0.13613   0.31273   0.12949   0.00000  Uiso   1.00
C24    C     0.19719   0.02060   0.20385   0.00000  Uiso   1.00
C25    C     0.16398   0.29052   0.16663   0.00000  Uiso   1.00
C26    C     0.16934   0.04281   0.16671   0.00000  Uiso   1.00
C27    C     0.13294   0.14265   0.02082   0.00000  Uiso   1.00
C28    C     0.20039   0.19068   0.31251   0.00000  Uiso   1.00
H29    H     0.10599   0.12336   0.03633   0.00000  Uiso   1.00
H30    H     0.22734   0.20998   0.29700   0.00000  Uiso   1.00
C31    C     0.13295   0.14267   0.30454   0.00000  Uiso   1.00
C32    C     0.20038   0.19066   0.02879   0.00000  Uiso   1.00
H33    H     0.10599   0.12341   0.28265   0.00000  Uiso   1.00
H34    H     0.22734   0.20992   0.05068   0.00000  Uiso   1.00
C35    C     0.32562   0.12959   0.11082   0.00000  Uiso   1.00
H36    H     0.02307   0.11335   0.09499   0.00000  Uiso   1.00
H37    H     0.30182   0.10527   0.12475   0.00000  Uiso   1.00
H38    H     0.30284   0.14701   0.08205   0.00000  Uiso   1.00
C39    C     0.00771   0.20374   0.22251   0.00000  Uiso   1.00
H40    H     0.31026   0.21998   0.23834   0.00000  Uiso   1.00
H41    H     0.03049   0.18632   0.25129   0.00000  Uiso   1.00
H42    H     0.03152   0.22806   0.20858   0.00000  Uiso   1.00
N43    N     0.10232   0.29266   0.09289   0.00000  Uiso   1.00
O44    O     0.07190   0.26334   0.10341   0.00000  Uiso   1.00
O45    O     0.09629   0.30771   0.05030   0.00000  Uiso   1.00
N46    N     0.23099   0.04067   0.24045   0.00000  Uiso   1.00
O47    O     0.26143   0.06998   0.22994   0.00000  Uiso   1.00
O48    O     0.23699   0.02564   0.28305   0.00000  Uiso   1.00
O49    O     0.50000   0.10655   0.20625   0.00000  Uiso   1.00
O50    O     0.50000   0.22678   0.12709   0.00000  Uiso   1.00
O51    O     0.50000   0.10654   0.12706   0.00000  Uiso   1.00
O52    O     0.50000   0.22679   0.20628   0.00000  Uiso   1.00
C53    C     0.50146   0.08744   0.16680   0.00000  Uiso   1.00
C54    C     0.49854   0.24590   0.16654   0.00000  Uiso   1.00
O55    O     0.42495   0.16667   0.19712   0.00000  Uiso   1.00
O56    O     0.57505   0.16666   0.13621   0.00000  Uiso   1.00
O57    O     0.42494   0.16666   0.11793   0.00000  Uiso   1.00
O58    O     0.57506   0.16667   0.21540   0.00000  Uiso   1.00
C59    C     0.40154   0.16558   0.15503   0.00000  Uiso   1.00
C60    C     0.59846   0.16775   0.17830   0.00000  Uiso   1.00
Cu61   Cu    0.50000   0.16667   0.21355   0.00000  Uiso   1.00
Cu62   Cu    0.50000   0.16666   0.11978   0.00000  Uiso   1.00
N63    N     0.50001   0.16668   0.28403   0.00000  Uiso   1.00
N64    N     0.49999   0.16666   0.04931   0.00000  Uiso   1.00
C65    C     0.34723   0.15879   0.15018   0.00000  Uiso   1.00
C66    C     0.65277   0.17454   0.18315   0.00000  Uiso   1.00
C67    C     0.47311   0.02220   0.12969   0.00000  Uiso   1.00
C68    C     0.52688   0.31113   0.20364   0.00000  Uiso   1.00
H69    H     0.45095   0.03964   0.10189   0.00000  Uiso   1.00
H70    H     0.54905   0.29369   0.23144   0.00000  Uiso   1.00
C71    C     0.46947   0.31273   0.12949   0.00000  Uiso   1.00
C72    C     0.53052   0.02060   0.20385   0.00000  Uiso   1.00
C73    C     0.49732   0.29052   0.16663   0.00000  Uiso   1.00
C74    C     0.50268   0.04281   0.16671   0.00000  Uiso   1.00
C75    C     0.46628   0.14265   0.02082   0.00000  Uiso   1.00
C76    C     0.53372   0.19068   0.31251   0.00000  Uiso   1.00
H77    H     0.43933   0.12336   0.03633   0.00000  Uiso   1.00
H78    H     0.56067   0.20998   0.29700   0.00000  Uiso   1.00
C79    C     0.46629   0.14267   0.30454   0.00000  Uiso   1.00
C80    C     0.53371   0.19066   0.02879   0.00000  Uiso   1.00
H81    H     0.43932   0.12341   0.28265   0.00000  Uiso   1.00
H82    H     0.56068   0.20992   0.05068   0.00000  Uiso   1.00
C83    C     0.65895   0.12959   0.11082   0.00000  Uiso   1.00
H84    H     0.35640   0.11335   0.09499   0.00000  Uiso   1.00
H85    H     0.63515   0.10527   0.12475   0.00000  Uiso   1.00
H86    H     0.63618   0.14701   0.08205   0.00000  Uiso   1.00
C87    C     0.34105   0.20374   0.22251   0.00000  Uiso   1.00
H88    H     0.64360   0.21998   0.23834   0.00000  Uiso   1.00
H89    H     0.36382   0.18632   0.25129   0.00000  Uiso   1.00
H90    H     0.36485   0.22806   0.20858   0.00000  Uiso   1.00
N91    N     0.43566   0.29266   0.09289   0.00000  Uiso   1.00
O92    O     0.40524   0.26334   0.10341   0.00000  Uiso   1.00
O93    O     0.42962   0.30771   0.05030   0.00000  Uiso   1.00
N94    N     0.56432   0.04067   0.24045   0.00000  Uiso   1.00
O95    O     0.59477   0.06998   0.22994   0.00000  Uiso   1.00
O96    O     0.57032   0.02564   0.28305   0.00000  Uiso   1.00
O97    O     0.83333   0.10655   0.20625   0.00000  Uiso   1.00
O98    O     0.83334   0.22678   0.12709   0.00000  Uiso   1.00
O99    O     0.83333   0.10654   0.12706   0.00000  Uiso   1.00
O100   O     0.83334   0.22679   0.20628   0.00000  Uiso   1.00
C101   C     0.83479   0.08744   0.16680   0.00000  Uiso   1.00
C102   C     0.83188   0.24590   0.16654   0.00000  Uiso   1.00
O103   O     0.75828   0.16667   0.19712   0.00000  Uiso   1.00
O104   O     0.90839   0.16666   0.13621   0.00000  Uiso   1.00
O105   O     0.75828   0.16666   0.11793   0.00000  Uiso   1.00
O106   O     0.90839   0.16667   0.21540   0.00000  Uiso   1.00
C107   C     0.73488   0.16558   0.15503   0.00000  Uiso   1.00
C108   C     0.93179   0.16775   0.17830   0.00000  Uiso   1.00
Cu109  Cu    0.83333   0.16667   0.21355   0.00000  Uiso   1.00
Cu110  Cu    0.83333   0.16666   0.11978   0.00000  Uiso   1.00
N111   N     0.83335   0.16668   0.28403   0.00000  Uiso   1.00
N112   N     0.83332   0.16666   0.04931   0.00000  Uiso   1.00
C113   C     0.68056   0.15879   0.15018   0.00000  Uiso   1.00
C114   C     0.98611   0.17454   0.18315   0.00000  Uiso   1.00
C115   C     0.80645   0.02220   0.12969   0.00000  Uiso   1.00
C116   C     0.86022   0.31113   0.20364   0.00000  Uiso   1.00
H117   H     0.78428   0.03964   0.10189   0.00000  Uiso   1.00
H118   H     0.88238   0.29369   0.23144   0.00000  Uiso   1.00
C119   C     0.80280   0.31273   0.12949   0.00000  Uiso   1.00
C120   C     0.86386   0.02060   0.20385   0.00000  Uiso   1.00
C121   C     0.83065   0.29052   0.16663   0.00000  Uiso   1.00
C122   C     0.83601   0.04281   0.16671   0.00000  Uiso   1.00
C123   C     0.79961   0.14265   0.02082   0.00000  Uiso   1.00
C124   C     0.86706   0.19068   0.31251   0.00000  Uiso   1.00
H125   H     0.77266   0.12336   0.03633   0.00000  Uiso   1.00
H126   H     0.89401   0.20998   0.29700   0.00000  Uiso   1.00
C127   C     0.79962   0.14267   0.30454   0.00000  Uiso   1.00
C128   C     0.86705   0.19066   0.02879   0.00000  Uiso   1.00
H129   H     0.77265   0.12341   0.28265   0.00000  Uiso   1.00
H130   H     0.89401   0.20992   0.05068   0.00000  Uiso   1.00
C131   C     0.99229   0.12959   0.11082   0.00000  Uiso   1.00
H132   H     0.68974   0.11335   0.09499   0.00000  Uiso   1.00
H133   H     0.96848   0.10527   0.12475   0.00000  Uiso   1.00
H134   H     0.96951   0.14701   0.08205   0.00000  Uiso   1.00
C135   C     0.67438   0.20374   0.22251   0.00000  Uiso   1.00
H136   H     0.97693   0.21998   0.23834   0.00000  Uiso   1.00
H137   H     0.69716   0.18632   0.25129   0.00000  Uiso   1.00
H138   H     0.69818   0.22806   0.20858   0.00000  Uiso   1.00
N139   N     0.76899   0.29266   0.09289   0.00000  Uiso   1.00
O140   O     0.73857   0.26334   0.10341   0.00000  Uiso   1.00
O141   O     0.76296   0.30771   0.05030   0.00000  Uiso   1.00
N142   N     0.89766   0.04067   0.24045   0.00000  Uiso   1.00
O143   O     0.92810   0.06998   0.22994   0.00000  Uiso   1.00
O144   O     0.90365   0.02564   0.28305   0.00000  Uiso   1.00
O145   O     0.16666   0.43989   0.20625   0.00000  Uiso   1.00
O146   O     0.16667   0.56011   0.12709   0.00000  Uiso   1.00
O147   O     0.16666   0.43988   0.12706   0.00000  Uiso   1.00
O148   O     0.16667   0.56012   0.20628   0.00000  Uiso   1.00
C149   C     0.16812   0.42077   0.16680   0.00000  Uiso   1.00
C150   C     0.16521   0.57923   0.16654   0.00000  Uiso   1.00
O151   O     0.09161   0.50000   0.19712   0.00000  Uiso   1.00
O152   O     0.24172   0.50000   0.13621   0.00000  Uiso   1.00
O153   O     0.09161   0.49999   0.11793   0.00000  Uiso   1.00
O154   O     0.24172   0.50001   0.21540   0.00000  Uiso   1.00
C155   C     0.06821   0.49892   0.15503   0.00000  Uiso   1.00
C156   C     0.26512   0.50108   0.17830   0.00000  Uiso   1.00
Cu157  Cu    0.16667   0.50001   0.21355   0.00000  Uiso   1.00
Cu158  Cu    0.16667   0.49999   0.11978   0.00000  Uiso   1.00
N159   N     0.16668   0.50001   0.28403   0.00000  Uiso   1.00
N160   N     0.16665   0.49999   0.04931   0.00000  Uiso   1.00
C161   C     0.01389   0.49212   0.15018   0.00000  Uiso   1.00
C162   C     0.31944   0.50788   0.18315   0.00000  Uiso   1.00
C163   C     0.13978   0.35553   0.12969   0.00000  Uiso   1.00
C164   C     0.19355   0.64447   0.20364   0.00000  Uiso   1.00
H165   H     0.11761   0.37298   0.10189   0.00000  Uiso   1.00
H166   H     0.21571   0.62703   0.23144   0.00000  Uiso   1.00
C167   C     0.13613   0.64606   0.12949   0.00000  Uiso   1.00
C168   C     0.19719   0.35394   0.20385   0.00000  Uiso   1.00
C169   C     0.16398   0.62386   0.16663   0.00000  Uiso   1.00
C170   C     0.16934   0.37614   0.16671   0.00000  Uiso   1.00
C171   C     0.13294   0.47599   0.02082   0.00000  Uiso   1.00
C172   C     0.20039   0.52401   0.31251   0.00000  Uiso   1.00
H173   H     0.10599   0.45669   0.03633   0.00000  Uiso   1.00
H174   H     0.22734   0.54331   0.29700   0.00000  Uiso   1.00
C175   C     0.13295   0.47600   0.30454   0.00000  Uiso   1.00
C176   C     0.20038   0.52400   0.02879   0.00000  Uiso   1.00
H177   H     0.10599   0.45675   0.28265   0.00000  Uiso   1.00
H178   H     0.22734   0.54325   0.05068   0.00000  Uiso   1.00
C179   C     0.32562   0.46292   0.11082   0.00000  Uiso   1.00
H180   H     0.02307   0.44668   0.09499   0.00000  Uiso   1.00
H181   H     0.30182   0.43860   0.12475   0.00000  Uiso   1.00
H182   H     0.30284   0.48035   0.08205   0.00000  Uiso   1.00
C183   C     0.00771   0.53708   0.22251   0.00000  Uiso   1.00
H184   H     0.31026   0.55332   0.23834   0.00000  Uiso   1.00
H185   H     0.03049   0.51965   0.25129   0.00000  Uiso   1.00
H186   H     0.03152   0.56140   0.20858   0.00000  Uiso   1.00
N187   N     0.10232   0.62600   0.09289   0.00000  Uiso   1.00
O188   O     0.07190   0.59668   0.10341   0.00000  Uiso   1.00
O189   O     0.09629   0.64105   0.05030   0.00000  Uiso   1.00
N190   N     0.23099   0.37400   0.24045   0.00000  Uiso   1.00
O191   O     0.26143   0.40331   0.22994   0.00000  Uiso   1.00
O192   O     0.23699   0.35897   0.28305   0.00000  Uiso   1.00
O193   O     0.50000   0.43989   0.20625   0.00000  Uiso   1.00
O194   O     0.50000   0.56011   0.12709   0.00000  Uiso   1.00
O195   O     0.50000   0.43988   0.12706   0.00000  Uiso   1.00
O196   O     0.50000   0.56012   0.20628   0.00000  Uiso   1.00
C197   C     0.50146   0.42077   0.16680   0.00000  Uiso   1.00
C198   C     0.49854   0.57923   0.16654   0.00000  Uiso   1.00
O199   O     0.42495   0.50000   0.19712   0.00000  Uiso   1.00
O200   O     0.57505   0.50000   0.13621   0.00000  Uiso   1.00
O201   O     0.42494   0.49999   0.11793   0.00000  Uiso   1.00
O202   O     0.57506   0.50001   0.21540   0.00000  Uiso   1.00
C203   C     0.40154   0.49892   0.15503   0.00000  Uiso   1.00
C204   C     0.59846   0.50108   0.17830   0.00000  Uiso   1.00
Cu205  Cu    0.50000   0.50001   0.21355   0.00000  Uiso   1.00
Cu206  Cu    0.50000   0.49999   0.11978   0.00000  Uiso   1.00
N207   N     0.50001   0.50001   0.28403   0.00000  Uiso   1.00
N208   N     0.49999   0.49999   0.04931   0.00000  Uiso   1.00
C209   C     0.34723   0.49212   0.15018   0.00000  Uiso   1.00
C210   C     0.65277   0.50788   0.18315   0.00000  Uiso   1.00
C211   C     0.47311   0.35553   0.12969   0.00000  Uiso   1.00
C212   C     0.52688   0.64447   0.20364   0.00000  Uiso   1.00
H213   H     0.45095   0.37298   0.10189   0.00000  Uiso   1.00
H214   H     0.54905   0.62703   0.23144   0.00000  Uiso   1.00
C215   C     0.46947   0.64606   0.12949   0.00000  Uiso   1.00
C216   C     0.53052   0.35394   0.20385   0.00000  Uiso   1.00
C217   C     0.49732   0.62386   0.16663   0.00000  Uiso   1.00
C218   C     0.50268   0.37614   0.16671   0.00000  Uiso   1.00
C219   C     0.46628   0.47599   0.02082   0.00000  Uiso   1.00
C220   C     0.53372   0.52401   0.31251   0.00000  Uiso   1.00
H221   H     0.43933   0.45669   0.03633   0.00000  Uiso   1.00
H222   H     0.56067   0.54331   0.29700   0.00000  Uiso   1.00
C223   C     0.46629   0.47600   0.30454   0.00000  Uiso   1.00
C224   C     0.53371   0.52400   0.02879   0.00000  Uiso   1.00
H225   H     0.43932   0.45675   0.28265   0.00000  Uiso   1.00
H226   H     0.56068   0.54325   0.05068   0.00000  Uiso   1.00
C227   C     0.65895   0.46292   0.11082   0.00000  Uiso   1.00
H228   H     0.35640   0.44668   0.09499   0.00000  Uiso   1.00
H229   H     0.63515   0.43860   0.12475   0.00000  Uiso   1.00
H230   H     0.63618   0.48035   0.08205   0.00000  Uiso   1.00
C231   C     0.34105   0.53708   0.22251   0.00000  Uiso   1.00
H232   H     0.64360   0.55332   0.23834   0.00000  Uiso   1.00
H233   H     0.36382   0.51965   0.25129   0.00000  Uiso   1.00
H234   H     0.36485   0.56140   0.20858   0.00000  Uiso   1.00
N235   N     0.43566   0.62600   0.09289   0.00000  Uiso   1.00
O236   O     0.40524   0.59668   0.10341   0.00000  Uiso   1.00
O237   O     0.42962   0.64105   0.05030   0.00000  Uiso   1.00
N238   N     0.56432   0.37400   0.24045   0.00000  Uiso   1.00
O239   O     0.59477   0.40331   0.22994   0.00000  Uiso   1.00
O240   O     0.57032   0.35897   0.28305   0.00000  Uiso   1.00
O241   O     0.83333   0.43989   0.20625   0.00000  Uiso   1.00
O242   O     0.83334   0.56011   0.12709   0.00000  Uiso   1.00
O243   O     0.83333   0.43988   0.12706   0.00000  Uiso   1.00
O244   O     0.83334   0.56012   0.20628   0.00000  Uiso   1.00
C245   C     0.83479   0.42077   0.16680   0.00000  Uiso   1.00
C246   C     0.83188   0.57923   0.16654   0.00000  Uiso   1.00
O247   O     0.75828   0.50000   0.19712   0.00000  Uiso   1.00
O248   O     0.90839   0.50000   0.13621   0.00000  Uiso   1.00
O249   O     0.75828   0.49999   0.11793   0.00000  Uiso   1.00
O250   O     0.90839   0.50001   0.21540   0.00000  Uiso   1.00
C251   C     0.73488   0.49892   0.15503   0.00000  Uiso   1.00
C252   C     0.93179   0.50108   0.17830   0.00000  Uiso   1.00
Cu253  Cu    0.83333   0.50001   0.21355   0.00000  Uiso   1.00
Cu254  Cu    0.83333   0.49999   0.11978   0.00000  Uiso   1.00
N255   N     0.83335   0.50001   0.28403   0.00000  Uiso   1.00
N256   N     0.83332   0.49999   0.04931   0.00000  Uiso   1.00
C257   C     0.68056   0.49212   0.15018   0.00000  Uiso   1.00
C258   C     0.98611   0.50788   0.18315   0.00000  Uiso   1.00
C259   C     0.80645   0.35553   0.12969   0.00000  Uiso   1.00
C260   C     0.86022   0.64447   0.20364   0.00000  Uiso   1.00
H261   H     0.78428   0.37298   0.10189   0.00000  Uiso   1.00
H262   H     0.88238   0.62703   0.23144   0.00000  Uiso   1.00
C263   C     0.80280   0.64606   0.12949   0.00000  Uiso   1.00
C264   C     0.86386   0.35394   0.20385   0.00000  Uiso   1.00
C265   C     0.83065   0.62386   0.16663   0.00000  Uiso   1.00
C266   C     0.83601   0.37614   0.16671   0.00000  Uiso   1.00
C267   C     0.79961   0.47599   0.02082   0.00000  Uiso   1.00
C268   C     0.86706   0.52401   0.31251   0.00000  Uiso   1.00
H269   H     0.77266   0.45669   0.03633   0.00000  Uiso   1.00
H270   H     0.89401   0.54331   0.29700   0.00000  Uiso   1.00
C271   C     0.79962   0.47600   0.30454   0.00000  Uiso   1.00
C272   C     0.86705   0.52400   0.02879   0.00000  Uiso   1.00
H273   H     0.77265   0.45675   0.28265   0.00000  Uiso   1.00
H274   H     0.89401   0.54325   0.05068   0.00000  Uiso   1.00
C275   C     0.99229   0.46292   0.11082   0.00000  Uiso   1.00
H276   H     0.68974   0.44668   0.09499   0.00000  Uiso   1.00
H277   H     0.96848   0.43860   0.12475   0.00000  Uiso   1.00
H278   H     0.96951   0.48035   0.08205   0.00000  Uiso   1.00
C279   C     0.67438   0.53708   0.22251   0.00000  Uiso   1.00
H280   H     0.97693   0.55332   0.23834   0.00000  Uiso   1.00
H281   H     0.69716   0.51965   0.25129   0.00000  Uiso   1.00
H282   H     0.69818   0.56140   0.20858   0.00000  Uiso   1.00
N283   N     0.76899   0.62600   0.09289   0.00000  Uiso   1.00
O284   O     0.73857   0.59668   0.10341   0.00000  Uiso   1.00
O285   O     0.76296   0.64105   0.05030   0.00000  Uiso   1.00
N286   N     0.89766   0.37400   0.24045   0.00000  Uiso   1.00
O287   O     0.92810   0.40331   0.22994   0.00000  Uiso   1.00
O288   O     0.90365   0.35897   0.28305   0.00000  Uiso   1.00
O289   O     0.16666   0.77322   0.20625   0.00000  Uiso   1.00
O290   O     0.16667   0.89345   0.12709   0.00000  Uiso   1.00
O291   O     0.16666   0.77321   0.12706   0.00000  Uiso   1.00
O292   O     0.16667   0.89346   0.20628   0.00000  Uiso   1.00
C293   C     0.16812   0.75410   0.16680   0.00000  Uiso   1.00
C294   C     0.16521   0.91256   0.16654   0.00000  Uiso   1.00
O295   O     0.09161   0.83334   0.19712   0.00000  Uiso   1.00
O296   O     0.24172   0.83333   0.13621   0.00000  Uiso   1.00
O297   O     0.09161   0.83333   0.11793   0.00000  Uiso   1.00
O298   O     0.24172   0.83334   0.21540   0.00000  Uiso   1.00
C299   C     0.06821   0.83225   0.15503   0.00000  Uiso   1.00
C300   C     0.26512   0.83442   0.17830   0.00000  Uiso   1.00
Cu301  Cu    0.16667   0.83334   0.21355   0.00000  Uiso   1.00
Cu302  Cu    0.16667   0.83333   0.11978   0.00000  Uiso   1.00
N303   N     0.16668   0.83334   0.28403   0.00000  Uiso   1.00
N304   N     0.16665   0.83332   0.04931   0.00000  Uiso   1.00
C305   C     0.01389   0.82546   0.15018   0.00000  Uiso   1.00
C306   C     0.31944   0.84121   0.18315   0.00000  Uiso   1.00
C307   C     0.13978   0.68887   0.12969   0.00000  Uiso   1.00
C308   C     0.19355   0.97780   0.20364   0.00000  Uiso   1.00
H309   H     0.11761   0.70631   0.10189   0.00000  Uiso   1.00
H310   H     0.21571   0.96036   0.23144   0.00000  Uiso   1.00
C311   C     0.13613   0.97940   0.12949   0.00000  Uiso   1.00
C312   C     0.19719   0.68727   0.20385   0.00000  Uiso   1.00
C313   C     0.16398   0.95719   0.16663   0.00000  Uiso   1.00
C314   C     0.16934   0.70948   0.16671   0.00000  Uiso   1.00
C315   C     0.13294   0.80932   0.02082   0.00000  Uiso   1.00
C316   C     0.20039   0.85735   0.31251   0.00000  Uiso   1.00
H317   H     0.10599   0.79002   0.03633   0.00000  Uiso   1.00
H318   H     0.22734   0.87664   0.29700   0.00000  Uiso   1.00
C319   C     0.13295   0.80934   0.30454   0.00000  Uiso   1.00
C320   C     0.20038   0.85733   0.02879   0.00000  Uiso   1.00
H321   H     0.10599   0.79008   0.28265   0.00000  Uiso   1.00
H322   H     0.22734   0.87659   0.05068   0.00000  Uiso   1.00
C323   C     0.32562   0.79626   0.11082   0.00000  Uiso   1.00
H324   H     0.02307   0.78002   0.09499   0.00000  Uiso   1.00
H325   H     0.30182   0.77194   0.12475   0.00000  Uiso   1.00
H326   H     0.30284   0.81368   0.08205   0.00000  Uiso   1.00
C327   C     0.00771   0.87041   0.22251   0.00000  Uiso   1.00
H328   H     0.31026   0.88665   0.23834   0.00000  Uiso   1.00
H329   H     0.03049   0.85299   0.25129   0.00000  Uiso   1.00
H330   H     0.03152   0.89473   0.20858   0.00000  Uiso   1.00
N331   N     0.10232   0.95933   0.09289   0.00000  Uiso   1.00
O332   O     0.07190   0.93001   0.10341   0.00000  Uiso   1.00
O333   O     0.09629   0.97438   0.05030   0.00000  Uiso   1.00
N334   N     0.23099   0.70734   0.24045   0.00000  Uiso   1.00
O335   O     0.26143   0.73664   0.22994   0.00000  Uiso   1.00
O336   O     0.23699   0.69231   0.28305   0.00000  Uiso   1.00
O337   O     0.50000   0.77322   0.20625   0.00000  Uiso   1.00
O338   O     0.50000   0.89345   0.12709   0.00000  Uiso   1.00
O339   O     0.50000   0.77321   0.12706   0.00000  Uiso   1.00
O340   O     0.50000   0.89346   0.20628   0.00000  Uiso   1.00
C341   C     0.50146   0.75410   0.16680   0.00000  Uiso   1.00
C342   C     0.49854   0.91256   0.16654   0.00000  Uiso   1.00
O343   O     0.42495   0.83334   0.19712   0.00000  Uiso   1.00
O344   O     0.57505   0.83333   0.13621   0.00000  Uiso   1.00
O345   O     0.42494   0.83333   0.11793   0.00000  Uiso   1.00
O346   O     0.57506   0.83334   0.21540   0.00000  Uiso   1.00
C347   C     0.40154   0.83225   0.15503   0.00000  Uiso   1.00
C348   C     0.59846   0.83442   0.17830   0.00000  Uiso   1.00
Cu349  Cu    0.50000   0.83334   0.21355   0.00000  Uiso   1.00
Cu350  Cu    0.50000   0.83333   0.11978   0.00000  Uiso   1.00
N351   N     0.50001   0.83334   0.28403   0.00000  Uiso   1.00
N352   N     0.49999   0.83332   0.04931   0.00000  Uiso   1.00
C353   C     0.34723   0.82546   0.15018   0.00000  Uiso   1.00
C354   C     0.65277   0.84121   0.18315   0.00000  Uiso   1.00
C355   C     0.47311   0.68887   0.12969   0.00000  Uiso   1.00
C356   C     0.52688   0.97780   0.20364   0.00000  Uiso   1.00
H357   H     0.45095   0.70631   0.10189   0.00000  Uiso   1.00
H358   H     0.54905   0.96036   0.23144   0.00000  Uiso   1.00
C359   C     0.46947   0.97940   0.12949   0.00000  Uiso   1.00
C360   C     0.53052   0.68727   0.20385   0.00000  Uiso   1.00
C361   C     0.49732   0.95719   0.16663   0.00000  Uiso   1.00
C362   C     0.50268   0.70948   0.16671   0.00000  Uiso   1.00
C363   C     0.46628   0.80932   0.02082   0.00000  Uiso   1.00
C364   C     0.53372   0.85735   0.31251   0.00000  Uiso   1.00
H365   H     0.43933   0.79002   0.03633   0.00000  Uiso   1.00
H366   H     0.56067   0.87664   0.29700   0.00000  Uiso   1.00
C367   C     0.46629   0.80934   0.30454   0.00000  Uiso   1.00
C368   C     0.53371   0.85733   0.02879   0.00000  Uiso   1.00
H369   H     0.43932   0.79008   0.28265   0.00000  Uiso   1.00
H370   H     0.56068   0.87659   0.05068   0.00000  Uiso   1.00
C371   C     0.65895   0.79626   0.11082   0.00000  Uiso   1.00
H372   H     0.35640   0.78002   0.09499   0.00000  Uiso   1.00
H373   H     0.63515   0.77194   0.12475   0.00000  Uiso   1.00
H374   H     0.63618   0.81368   0.08205   0.00000  Uiso   1.00
C375   C     0.34105   0.87041   0.22251   0.00000  Uiso   1.00
H376   H     0.64360   0.88665   0.23834   0.00000  Uiso   1.00
H377   H     0.36382   0.85299   0.25129   0.00000  Uiso   1.00
H378   H     0.36485   0.89473   0.20858   0.00000  Uiso   1.00
N379   N     0.43566   0.95933   0.09289   0.00000  Uiso   1.00
O380   O     0.40524   0.93001   0.10341   0.00000  Uiso   1.00
O381   O     0.42962   0.97438   0.05030   0.00000  Uiso   1.00
N382   N     0.56432   0.70734   0.24045   0.00000  Uiso   1.00
O383   O     0.59477   0.73664   0.22994   0.00000  Uiso   1.00
O384   O     0.57032   0.69231   0.28305   0.00000  Uiso   1.00
O385   O     0.83333   0.77322   0.20625   0.00000  Uiso   1.00
O386   O     0.83334   0.89345   0.12709   0.00000  Uiso   1.00
O387   O     0.83333   0.77321   0.12706   0.00000  Uiso   1.00
O388   O     0.83334   0.89346   0.20628   0.00000  Uiso   1.00
C389   C     0.83479   0.75410   0.16680   0.00000  Uiso   1.00
C390   C     0.83188   0.91256   0.16654   0.00000  Uiso   1.00
O391   O     0.75828   0.83334   0.19712   0.00000  Uiso   1.00
O392   O     0.90839   0.83333   0.13621   0.00000  Uiso   1.00
O393   O     0.75828   0.83333   0.11793   0.00000  Uiso   1.00
O394   O     0.90839   0.83334   0.21540   0.00000  Uiso   1.00
C395   C     0.73488   0.83225   0.15503   0.00000  Uiso   1.00
C396   C     0.93179   0.83442   0.17830   0.00000  Uiso   1.00
Cu397  Cu    0.83333   0.83334   0.21355   0.00000  Uiso   1.00
Cu398  Cu    0.83333   0.83333   0.11978   0.00000  Uiso   1.00
N399   N     0.83335   0.83334   0.28403   0.00000  Uiso   1.00
N400   N     0.83332   0.83332   0.04931   0.00000  Uiso   1.00
C401   C     0.68056   0.82546   0.15018   0.00000  Uiso   1.00
C402   C     0.98611   0.84121   0.18315   0.00000  Uiso   1.00
C403   C     0.80645   0.68887   0.12969   0.00000  Uiso   1.00
C404   C     0.86022   0.97780   0.20364   0.00000  Uiso   1.00
H405   H     0.78428   0.70631   0.10189   0.00000  Uiso   1.00
H406   H     0.88238   0.96036   0.23144   0.00000  Uiso   1.00
C407   C     0.80280   0.97940   0.12949   0.00000  Uiso   1.00
C408   C     0.86386   0.68727   0.20385   0.00000  Uiso   1.00
C409   C     0.83065   0.95719   0.16663   0.00000  Uiso   1.00
C410   C     0.83601   0.70948   0.16671   0.00000  Uiso   1.00
C411   C     0.79961   0.80932   0.02082   0.00000  Uiso   1.00
C412   C     0.86706   0.85735   0.31251   0.00000  Uiso   1.00
H413   H     0.77266   0.79002   0.03633   0.00000  Uiso   1.00
H414   H     0.89401   0.87664   0.29700   0.00000  Uiso   1.00
C415   C     0.79962   0.80934   0.30454   0.00000  Uiso   1.00
C416   C     0.86705   0.85733   0.02879   0.00000  Uiso   1.00
H417   H     0.77265   0.79008   0.28265   0.00000  Uiso   1.00
H418   H     0.89401   0.87659   0.05068   0.00000  Uiso   1.00
C419   C     0.99229   0.79626   0.11082   0.00000  Uiso   1.00
H420   H     0.68974   0.78002   0.09499   0.00000  Uiso   1.00
H421   H     0.96848   0.77194   0.12475   0.00000  Uiso   1.00
H422   H     0.96951   0.81368   0.08205   0.00000  Uiso   1.00
C423   C     0.67438   0.87041   0.22251   0.00000  Uiso   1.00
H424   H     0.97693   0.88665   0.23834   0.00000  Uiso   1.00
H425   H     0.69716   0.85299   0.25129   0.00000  Uiso   1.00
H426   H     0.69818   0.89473   0.20858   0.00000  Uiso   1.00
N427   N     0.76899   0.95933   0.09289   0.00000  Uiso   1.00
O428   O     0.73857   0.93001   0.10341   0.00000  Uiso   1.00
O429   O     0.76296   0.97438   0.05030   0.00000  Uiso   1.00
N430   N     0.89766   0.70734   0.24045   0.00000  Uiso   1.00
O431   O     0.92810   0.73664   0.22994   0.00000  Uiso   1.00
O432   O     0.90365   0.69231   0.28305   0.00000  Uiso   1.00
O433   O     0.16666   0.10655   0.53958   0.00000  Uiso   1.00
O434   O     0.16667   0.22678   0.46042   0.00000  Uiso   1.00
O435   O     0.16666   0.10654   0.46039   0.00000  Uiso   1.00
O436   O     0.16667   0.22679   0.53961   0.00000  Uiso   1.00
C437   C     0.16812   0.08744   0.50013   0.00000  Uiso   1.00
C438   C     0.16521   0.24590   0.49987   0.00000  Uiso   1.00
O439   O     0.09161   0.16667   0.53046   0.00000  Uiso   1.00
O440   O     0.24172   0.16666   0.46954   0.00000  Uiso   1.00
O441   O     0.09161   0.16666   0.45127   0.00000  Uiso   1.00
O442   O     0.24172   0.16667   0.54873   0.00000  Uiso   1.00
C443   C     0.06821   0.16558   0.48836   0.00000  Uiso   1.00
C444   C     0.26512   0.16775   0.51164   0.00000  Uiso   1.00
Cu445  Cu    0.16667   0.16667   0.54689   0.00000  Uiso   1.00
Cu446  Cu    0.16667   0.16666   0.45311   0.00000  Uiso   1.00
N447   N     0.16668   0.16668   0.61736   0.00000  Uiso   1.00
N448   N     0.16665   0.16666   0.38264   0.00000  Uiso   1.00
C449   C     0.01389   0.15879   0.48351   0.00000  Uiso   1.00
C450   C     0.31944   0.17454   0.51649   0.00000  Uiso   1.00
C451   C     0.13978   0.02220   0.46303   0.00000  Uiso   1.00
C452   C     0.19355   0.31113   0.53697   0.00000  Uiso   1.00
H453   H     0.11761   0.03964   0.43522   0.00000  Uiso   1.00
H454   H     0.21571   0.29369   0.56478   0.00000  Uiso   1.00
C455   C     0.13613   0.31273   0.46282   0.00000  Uiso   1.00
C456   C     0.19719   0.02060   0.53718   0.00000  Uiso   1.00
C457   C     0.16398   0.29052   0.49996   0.00000  Uiso   1.00
C458   C     0.16934   0.04281   0.50004   0.00000  Uiso   1.00
C459   C     0.13294   0.14265   0.35416   0.00000  Uiso   1.00
C460   C     0.20039   0.19068   0.64584   0.00000  Uiso   1.00
H461   H     0.10599   0.12336   0.36967   0.00000  Uiso   1.00
H462   H     0.22734   0.20998   0.63033   0.00000  Uiso   1.00
C463   C     0.13295   0.14267   0.63788   0.00000  Uiso   1.00
C464   C     0.20038   0.19066   0.36212   0.00000  Uiso   1.00
H465   H     0.10599   0.12341   0.61599   0.00000  Uiso   1.00
H466   H     0.22734   0.20992   0.38401   0.00000  Uiso   1.00
C467   C     0.32562   0.12959   0.44416   0.00000  Uiso   1.00
H468   H     0.02307   0.11335   0.42833   0.00000  Uiso   1.00
H469   H     0.30182   0.10527   0.45809   0.00000  Uiso   1.00
H470   H     0.30284   0.14701   0.41538   0.00000  Uiso   1.00
C471   C     0.00771   0.20374   0.55584   0.00000  Uiso   1.00
H472   H     0.31026   0.21998   0.57167   0.00000  Uiso   1.00
H473   H     0.03049   0.18632   0.58462   0.00000  Uiso   1.00
H474   H     0.03152   0.22806   0.54191   0.00000  Uiso   1.00
N475   N     0.10232   0.29266   0.42623   0.00000  Uiso   1.00
O476   O     0.07190   0.26334   0.43674   0.00000  Uiso   1.00
O477   O     0.09629   0.30771   0.38364   0.00000  Uiso   1.00
N478   N     0.23099   0.04067   0.57378   0.00000  Uiso   1.00
O479   O     0.26143   0.06998   0.56327   0.00000  Uiso   1.00
O480   O     0.23699   0.02564   0.61638   0.00000  Uiso   1.00
O481   O     0.50000   0.10655   0.53958   0.00000  Uiso   1.00
O482   O     0.50000   0.22678   0.46042   0.00000  Uiso   1.00
O483   O     0.50000   0.10654   0.46039   0.00000  Uiso   1.00
O484   O     0.50000   0.22679   0.53961   0.00000  Uiso   1.00
C485   C     0.50146   0.08744   0.50013   0.00000  Uiso   1.00
C486   C     0.49854   0.24590   0.49987   0.00000  Uiso   1.00
O487   O     0.42495   0.16667   0.53046   0.00000  Uiso   1.00
O488   O     0.57505   0.16666   0.46954   0.00000  Uiso   1.00
O489   O     0.42494   0.16666   0.45127   0.00000  Uiso   1.00
O490   O     0.57506   0.16667   0.54873   0.00000  Uiso   1.00
C491   C     0.40154   0.16558   0.48836   0.00000  Uiso   1.00
C492   C     0.59846   0.16775   0.51164   0.00000  Uiso   1.00
Cu493  Cu    0.50000   0.16667   0.54689   0.00000  Uiso   1.00
Cu494  Cu    0.50000   0.16666   0.45311   0.00000  Uiso   1.00
N495   N     0.50001   0.16668   0.61736   0.00000  Uiso   1.00
N496   N     0.49999   0.16666   0.38264   0.00000  Uiso   1.00
C497   C     0.34723   0.15879   0.48351   0.00000  Uiso   1.00
C498   C     0.65277   0.17454   0.51649   0.00000  Uiso   1.00
C499   C     0.47311   0.02220   0.46303   0.00000  Uiso   1.00
C500   C     0.52688   0.31113   0.53697   0.00000  Uiso   1.00
H501   H     0.45095   0.03964   0.43522   0.00000  Uiso   1.00
H502   H     0.54905   0.29369   0.56478   0.00000  Uiso   1.00
C503   C     0.46947   0.31273   0.46282   0.00000  Uiso   1.00
C504   C     0.53052   0.02060   0.53718   0.00000  Uiso   1.00
C505   C     0.49732   0.29052   0.49996   0.00000  Uiso   1.00
C506   C     0.50268   0.04281   0.50004   0.00000  Uiso   1.00
C507   C     0.46628   0.14265   0.35416   0.00000  Uiso   1.00
C508   C     0.53372   0.19068   0.64584   0.00000  Uiso   1.00
H509   H     0.43933   0.12336   0.36967   0.00000  Uiso   1.00
H510   H     0.56067   0.20998   0.63033   0.00000  Uiso   1.00
C511   C     0.46629   0.14267   0.63788   0.00000  Uiso   1.00
C512   C     0.53371   0.19066   0.36212   0.00000  Uiso   1.00
H513   H     0.43932   0.12341   0.61599   0.00000  Uiso   1.00
H514   H     0.56068   0.20992   0.38401   0.00000  Uiso   1.00
C515   C     0.65895   0.12959   0.44416   0.00000  Uiso   1.00
H516   H     0.35640   0.11335   0.42833   0.00000  Uiso   1.00
H517   H     0.63515   0.10527   0.45809   0.00000  Uiso   1.00
H518   H     0.63618   0.14701   0.41538   0.00000  Uiso   1.00
C519   C     0.34105   0.20374   0.55584   0.00000  Uiso   1.00
H520   H     0.64360   0.21998   0.57167   0.00000  Uiso   1.00
H521   H     0.36382   0.18632   0.58462   0.00000  Uiso   1.00
H522   H     0.36485   0.22806   0.54191   0.00000  Uiso   1.00
N523   N     0.43566   0.29266   0.42623   0.00000  Uiso   1.00
O524   O     0.40524   0.26334   0.43674   0.00000  Uiso   1.00
O525   O     0.42962   0.30771   0.38364   0.00000  Uiso   1.00
N526   N     0.56432   0.04067   0.57378   0.00000  Uiso   1.00
O527   O     0.59477   0.06998   0.56327   0.00000  Uiso   1.00
O528   O     0.57032   0.02564   0.61638   0.00000  Uiso   1.00
O529   O     0.83333   0.10655   0.53958   0.00000  Uiso   1.00
O530   O     0.83334   0.22678   0.46042   0.00000  Uiso   1.00
O531   O     0.83333   0.10654   0.46039   0.00000  Uiso   1.00
O532   O     0.83334   0.22679   0.53961   0.00000  Uiso   1.00
C533   C     0.83479   0.08744   0.50013   0.00000  Uiso   1.00
C534   C     0.83188   0.24590   0.49987   0.00000  Uiso   1.00
O535   O     0.75828   0.16667   0.53046   0.00000  Uiso   1.00
O536   O     0.90839   0.16666   0.46954   0.00000  Uiso   1.00
O537   O     0.75828   0.16666   0.45127   0.00000  Uiso   1.00
O538   O     0.90839   0.16667   0.54873   0.00000  Uiso   1.00
C539   C     0.73488   0.16558   0.48836   0.00000  Uiso   1.00
C540   C     0.93179   0.16775   0.51164   0.00000  Uiso   1.00
Cu541  Cu    0.83333   0.16667   0.54689   0.00000  Uiso   1.00
Cu542  Cu    0.83333   0.16666   0.45311   0.00000  Uiso   1.00
N543   N     0.83335   0.16668   0.61736   0.00000  Uiso   1.00
N544   N     0.83332   0.16666   0.38264   0.00000  Uiso   1.00
C545   C     0.68056   0.15879   0.48351   0.00000  Uiso   1.00
C546   C     0.98611   0.17454   0.51649   0.00000  Uiso   1.00
C547   C     0.80645   0.02220   0.46303   0.00000  Uiso   1.00
C548   C     0.86022   0.31113   0.53697   0.00000  Uiso   1.00
H549   H     0.78428   0.03964   0.43522   0.00000  Uiso   1.00
H550   H     0.88238   0.29369   0.56478   0.00000  Uiso   1.00
C551   C     0.80280   0.31273   0.46282   0.00000  Uiso   1.00
C552   C     0.86386   0.02060   0.53718   0.00000  Uiso   1.00
C553   C     0.83065   0.29052   0.49996   0.00000  Uiso   1.00
C554   C     0.83601   0.04281   0.50004   0.00000  Uiso   1.00
C555   C     0.79961   0.14265   0.35416   0.00000  Uiso   1.00
C556   C     0.86706   0.19068   0.64584   0.00000  Uiso   1.00
H557   H     0.77266   0.12336   0.36967   0.00000  Uiso   1.00
H558   H     0.89401   0.20998   0.63033   0.00000  Uiso   1.00
C559   C     0.79962   0.14267   0.63788   0.00000  Uiso   1.00
C560   C     0.86705   0.19066   0.36212   0.00000  Uiso   1.00
H561   H     0.77265   0.12341   0.61599   0.00000  Uiso   1.00
H562   H     0.89401   0.20992   0.38401   0.00000  Uiso   1.00
C563   C     0.99229   0.12959   0.44416   0.00000  Uiso   1.00
H564   H     0.68974   0.11335   0.42833   0.00000  Uiso   1.00
H565   H     0.96848   0.10527   0.45809   0.00000  Uiso   1.00
H566   H     0.96951   0.14701   0.41538   0.00000  Uiso   1.00
C567   C     0.67438   0.20374   0.55584   0.00000  Uiso   1.00
H568   H     0.97693   0.21998   0.57167   0.00000  Uiso   1.00
H569   H     0.69716   0.18632   0.58462   0.00000  Uiso   1.00
H570   H     0.69818   0.22806   0.54191   0.00000  Uiso   1.00
N571   N     0.76899   0.29266   0.42623   0.00000  Uiso   1.00
O572   O     0.73857   0.26334   0.43674   0.00000  Uiso   1.00
O573   O     0.76296   0.30771   0.38364   0.00000  Uiso   1.00
N574   N     0.89766   0.04067   0.57378   0.00000  Uiso   1.00
O575   O     0.92810   0.06998   0.56327   0.00000  Uiso   1.00
O576   O     0.90365   0.02564   0.61638   0.00000  Uiso   1.00
O577   O     0.16666   0.43989   0.53958   0.00000  Uiso   1.00
O578   O     0.16667   0.56011   0.46042   0.00000  Uiso   1.00
O579   O     0.16666   0.43988   0.46039   0.00000  Uiso   1.00
O580   O     0.16667   0.56012   0.53961   0.00000  Uiso   1.00
C581   C     0.16812   0.42077   0.50013   0.00000  Uiso   1.00
C582   C     0.16521   0.57923   0.49987   0.00000  Uiso   1.00
O583   O     0.09161   0.50000   0.53046   0.00000  Uiso   1.00
O584   O     0.24172   0.50000   0.46954   0.00000  Uiso   1.00
O585   O     0.09161   0.49999   0.45127   0.00000  Uiso   1.00
O586   O     0.24172   0.50001   0.54873   0.00000  Uiso   1.00
C587   C     0.06821   0.49892   0.48836   0.00000  Uiso   1.00
C588   C     0.26512   0.50108   0.51164   0.00000  Uiso   1.00
Cu589  Cu    0.16667   0.50001   0.54689   0.00000  Uiso   1.00
Cu590  Cu    0.16667   0.49999   0.45311   0.00000  Uiso   1.00
N591   N     0.16668   0.50001   0.61736   0.00000  Uiso   1.00
N592   N     0.16665   0.49999   0.38264   0.00000  Uiso   1.00
C593   C     0.01389   0.49212   0.48351   0.00000  Uiso   1.00
C594   C     0.31944   0.50788   0.51649   0.00000  Uiso   1.00
C595   C     0.13978   0.35553   0.46303   0.00000  Uiso   1.00
C596   C     0.19355   0.64447   0.53697   0.00000  Uiso   1.00
H597   H     0.11761   0.37298   0.43522   0.00000  Uiso   1.00
H598   H     0.21571   0.62703   0.56478   0.00000  Uiso   1.00
C599   C     0.13613   0.64606   0.46282   0.00000  Uiso   1.00
C600   C     0.19719   0.35394   0.53718   0.00000  Uiso   1.00
C601   C     0.16398   0.62386   0.49996   0.00000  Uiso   1.00
C602   C     0.16934   0.37614   0.50004   0.00000  Uiso   1.00
C603   C     0.13294   0.47599   0.35416   0.00000  Uiso   1.00
C604   C     0.20039   0.52401   0.64584   0.00000  Uiso   1.00
H605   H     0.10599   0.45669   0.36967   0.00000  Uiso   1.00
H606   H     0.22734   0.54331   0.63033   0.00000  Uiso   1.00
C607   C     0.13295   0.47600   0.63788   0.00000  Uiso   1.00
C608   C     0.20038   0.52400   0.36212   0.00000  Uiso   1.00
H609   H     0.10599   0.45675   0.61599   0.00000  Uiso   1.00
H610   H     0.22734   0.54325   0.38401   0.00000  Uiso   1.00
C611   C     0.32562   0.46292   0.44416   0.00000  Uiso   1.00
H612   H     0.02307   0.44668   0.42833   0.00000  Uiso   1.00
H613   H     0.30182   0.43860   0.45809   0.00000  Uiso   1.00
H614   H     0.30284   0.48035   0.41538   0.00000  Uiso   1.00
C615   C     0.00771   0.53708   0.55584   0.00000  Uiso   1.00
H616   H     0.31026   0.55332   0.57167   0.00000  Uiso   1.00
H617   H     0.03049   0.51965   0.58462   0.00000  Uiso   1.00
H618   H     0.03152   0.56140   0.54191   0.00000  Uiso   1.00
N619   N     0.10232   0.62600   0.42623   0.00000  Uiso   1.00
O620   O     0.07190   0.59668   0.43674   0.00000  Uiso   1.00
O621   O     0.09629   0.64105   0.38364   0.00000  Uiso   1.00
N622   N     0.23099   0.37400   0.57378   0.00000  Uiso   1.00
O623   O     0.26143   0.40331   0.56327   0.00000  Uiso   1.00
O624   O     0.23699   0.35897   0.61638   0.00000  Uiso   1.00
O625   O     0.50000   0.43989   0.53958   0.00000  Uiso   1.00
O626   O     0.50000   0.56011   0.46042   0.00000  Uiso   1.00
O627   O     0.50000   0.43988   0.46039   0.00000  Uiso   1.00
O628   O     0.50000   0.56012   0.53961   0.00000  Uiso   1.00
C629   C     0.50146   0.42077   0.50013   0.00000  Uiso   1.00
C630   C     0.49854   0.57923   0.49987   0.00000  Uiso   1.00
O631   O     0.42495   0.50000   0.53046   0.00000  Uiso   1.00
O632   O     0.57505   0.50000   0.46954   0.00000  Uiso   1.00
O633   O     0.42494   0.49999   0.45127   0.00000  Uiso   1.00
O634   O     0.57506   0.50001   0.54873   0.00000  Uiso   1.00
C635   C     0.40154   0.49892   0.48836   0.00000  Uiso   1.00
C636   C     0.59846   0.50108   0.51164   0.00000  Uiso   1.00
Cu637  Cu    0.50000   0.50001   0.54689   0.00000  Uiso   1.00
Cu638  Cu    0.50000   0.49999   0.45311   0.00000  Uiso   1.00
N639   N     0.50001   0.50001   0.61736   0.00000  Uiso   1.00
N640   N     0.49999   0.49999   0.38264   0.00000  Uiso   1.00
C641   C     0.34723   0.49212   0.48351   0.00000  Uiso   1.00
C642   C     0.65277   0.50788   0.51649   0.00000  Uiso   1.00
C643   C     0.47311   0.35553   0.46303   0.00000  Uiso   1.00
C644   C     0.52688   0.64447   0.53697   0.00000  Uiso   1.00
H645   H     0.45095   0.37298   0.43522   0.00000  Uiso   1.00
H646   H     0.54905   0.62703   0.56478   0.00000  Uiso   1.00
C647   C     0.46947   0.64606   0.46282   0.00000  Uiso   1.00
C648   C     0.53052   0.35394   0.53718   0.00000  Uiso   1.00
C649   C     0.49732   0.62386   0.49996   0.00000  Uiso   1.00
C650   C     0.50268   0.37614   0.50004   0.00000  Uiso   1.00
C651   C     0.46628   0.47599   0.35416   0.00000  Uiso   1.00
C652   C     0.53372   0.52401   0.64584   0.00000  Uiso   1.00
H653   H     0.43933   0.45669   0.36967   0.00000  Uiso   1.00
H654   H     0.56067   0.54331   0.63033   0.00000  Uiso   1.00
C655   C     0.46629   0.47600   0.63788   0.00000  Uiso   1.00
C656   C     0.53371   0.52400   0.36212   0.00000  Uiso   1.00
H657   H     0.43932   0.45675   0.61599   0.00000  Uiso   1.00
H658   H     0.56068   0.54325   0.38401   0.00000  Uiso   1.00
C659   C     0.65895   0.46292   0.44416   0.00000  Uiso   1.00
H660   H     0.35640   0.44668   0.42833   0.00000  Uiso   1.00
H661   H     0.63515   0.43860   0.45809   0.00000  Uiso   1.00
H662   H     0.63618   0.48035   0.41538   0.00000  Uiso   1.00
C663   C     0.34105   0.53708   0.55584   0.00000  Uiso   1.00
H664   H     0.64360   0.55332   0.57167   0.00000  Uiso   1.00
H665   H     0.36382   0.51965   0.58462   0.00000  Uiso   1.00
H666   H     0.36485   0.56140   0.54191   0.00000  Uiso   1.00
N667   N     0.43566   0.62600   0.42623   0.00000  Uiso   1.00
O668   O     0.40524   0.59668   0.43674   0.00000  Uiso   1.00
O669   O     0.42962   0.64105   0.38364   0.00000  Uiso   1.00
N670   N     0.56432   0.37400   0.57378   0.00000  Uiso   1.00
O671   O     0.59477   0.40331   0.56327   0.00000  Uiso   1.00
O672   O     0.57032   0.35897   0.61638   0.00000  Uiso   1.00
O673   O     0.83333   0.43989   0.53958   0.00000  Uiso   1.00
O674   O     0.83334   0.56011   0.46042   0.00000  Uiso   1.00
O675   O     0.83333   0.43988   0.46039   0.00000  Uiso   1.00
O676   O     0.83334   0.56012   0.53961   0.00000  Uiso   1.00
C677   C     0.83479   0.42077   0.50013   0.00000  Uiso   1.00
C678   C     0.83188   0.57923   0.49987   0.00000  Uiso   1.00
O679   O     0.75828   0.50000   0.53046   0.00000  Uiso   1.00
O680   O     0.90839   0.50000   0.46954   0.00000  Uiso   1.00
O681   O     0.75828   0.49999   0.45127   0.00000  Uiso   1.00
O682   O     0.90839   0.50001   0.54873   0.00000  Uiso   1.00
C683   C     0.73488   0.49892   0.48836   0.00000  Uiso   1.00
C684   C     0.93179   0.50108   0.51164   0.00000  Uiso   1.00
Cu685  Cu    0.83333   0.50001   0.54689   0.00000  Uiso   1.00
Cu686  Cu    0.83333   0.49999   0.45311   0.00000  Uiso   1.00
N687   N     0.83335   0.50001   0.61736   0.00000  Uiso   1.00
N688   N     0.83332   0.49999   0.38264   0.00000  Uiso   1.00
C689   C     0.68056   0.49212   0.48351   0.00000  Uiso   1.00
C690   C     0.98611   0.50788   0.51649   0.00000  Uiso   1.00
C691   C     0.80645   0.35553   0.46303   0.00000  Uiso   1.00
C692   C     0.86022   0.64447   0.53697   0.00000  Uiso   1.00
H693   H     0.78428   0.37298   0.43522   0.00000  Uiso   1.00
H694   H     0.88238   0.62703   0.56478   0.00000  Uiso   1.00
C695   C     0.80280   0.64606   0.46282   0.00000  Uiso   1.00
C696   C     0.86386   0.35394   0.53718   0.00000  Uiso   1.00
C697   C     0.83065   0.62386   0.49996   0.00000  Uiso   1.00
C698   C     0.83601   0.37614   0.50004   0.00000  Uiso   1.00
C699   C     0.79961   0.47599   0.35416   0.00000  Uiso   1.00
C700   C     0.86706   0.52401   0.64584   0.00000  Uiso   1.00
H701   H     0.77266   0.45669   0.36967   0.00000  Uiso   1.00
H702   H     0.89401   0.54331   0.63033   0.00000  Uiso   1.00
C703   C     0.79962   0.47600   0.63788   0.00000  Uiso   1.00
C704   C     0.86705   0.52400   0.36212   0.00000  Uiso   1.00
H705   H     0.77265   0.45675   0.61599   0.00000  Uiso   1.00
H706   H     0.89401   0.54325   0.38401   0.00000  Uiso   1.00
C707   C     0.99229   0.46292   0.44416   0.00000  Uiso   1.00
H708   H     0.68974   0.44668   0.42833   0.00000  Uiso   1.00
H709   H     0.96848   0.43860   0.45809   0.00000  Uiso   1.00
H710   H     0.96951   0.48035   0.41538   0.00000  Uiso   1.00
C711   C     0.67438   0.53708   0.55584   0.00000  Uiso   1.00
H712   H     0.97693   0.55332   0.57167   0.00000  Uiso   1.00
H713   H     0.69716   0.51965   0.58462   0.00000  Uiso   1.00
H714   H     0.69818   0.56140   0.54191   0.00000  Uiso   1.00
N715   N     0.76899   0.62600   0.42623   0.00000  Uiso   1.00
O716   O     0.73857   0.59668   0.43674   0.00000  Uiso   1.00
O717   O     0.76296   0.64105   0.38364   0.00000  Uiso   1.00
N718   N     0.89766   0.37400   0.57378   0.00000  Uiso   1.00
O719   O     0.92810   0.40331   0.56327   0.00000  Uiso   1.00
O720   O     0.90365   0.35897   0.61638   0.00000  Uiso   1.00
O721   O     0.16666   0.77322   0.53958   0.00000  Uiso   1.00
O722   O     0.16667   0.89345   0.46042   0.00000  Uiso   1.00
O723   O     0.16666   0.77321   0.46039   0.00000  Uiso   1.00
O724   O     0.16667   0.89346   0.53961   0.00000  Uiso   1.00
C725   C     0.16812   0.75410   0.50013   0.00000  Uiso   1.00
C726   C     0.16521   0.91256   0.49987   0.00000  Uiso   1.00
O727   O     0.09161   0.83334   0.53046   0.00000  Uiso   1.00
O728   O     0.24172   0.83333   0.46954   0.00000  Uiso   1.00
O729   O     0.09161   0.83333   0.45127   0.00000  Uiso   1.00
O730   O     0.24172   0.83334   0.54873   0.00000  Uiso   1.00
C731   C     0.06821   0.83225   0.48836   0.00000  Uiso   1.00
C732   C     0.26512   0.83442   0.51164   0.00000  Uiso   1.00
Cu733  Cu    0.16667   0.83334   0.54689   0.00000  Uiso   1.00
Cu734  Cu    0.16667   0.83333   0.45311   0.00000  Uiso   1.00
N735   N     0.16668   0.83334   0.61736   0.00000  Uiso   1.00
N736   N     0.16665   0.83332   0.38264   0.00000  Uiso   1.00
C737   C     0.01389   0.82546   0.48351   0.00000  Uiso   1.00
C738   C     0.31944   0.84121   0.51649   0.00000  Uiso   1.00
C739   C     0.13978   0.68887   0.46303   0.00000  Uiso   1.00
C740   C     0.19355   0.97780   0.53697   0.00000  Uiso   1.00
H741   H     0.11761   0.70631   0.43522   0.00000  Uiso   1.00
H742   H     0.21571   0.96036   0.56478   0.00000  Uiso   1.00
C743   C     0.13613   0.97940   0.46282   0.00000  Uiso   1.00
C744   C     0.19719   0.68727   0.53718   0.00000  Uiso   1.00
C745   C     0.16398   0.95719   0.49996   0.00000  Uiso   1.00
C746   C     0.16934   0.70948   0.50004   0.00000  Uiso   1.00
C747   C     0.13294   0.80932   0.35416   0.00000  Uiso   1.00
C748   C     0.20039   0.85735   0.64584   0.00000  Uiso   1.00
H749   H     0.10599   0.79002   0.36967   0.00000  Uiso   1.00
H750   H     0.22734   0.87664   0.63033   0.00000  Uiso   1.00
C751   C     0.13295   0.80934   0.63788   0.00000  Uiso   1.00
C752   C     0.20038   0.85733   0.36212   0.00000  Uiso   1.00
H753   H     0.10599   0.79008   0.61599   0.00000  Uiso   1.00
H754   H     0.22734   0.87659   0.38401   0.00000  Uiso   1.00
C755   C     0.32562   0.79626   0.44416   0.00000  Uiso   1.00
H756   H     0.02307   0.78002   0.42833   0.00000  Uiso   1.00
H757   H     0.30182   0.77194   0.45809   0.00000  Uiso   1.00
H758   H     0.30284   0.81368   0.41538   0.00000  Uiso   1.00
C759   C     0.00771   0.87041   0.55584   0.00000  Uiso   1.00
H760   H     0.31026   0.88665   0.57167   0.00000  Uiso   1.00
H761   H     0.03049   0.85299   0.58462   0.00000  Uiso   1.00
H762   H     0.03152   0.89473   0.54191   0.00000  Uiso   1.00
N763   N     0.10232   0.95933   0.42623   0.00000  Uiso   1.00
O764   O     0.07190   0.93001   0.43674   0.00000  Uiso   1.00
O765   O     0.09629   0.97438   0.38364   0.00000  Uiso   1.00
N766   N     0.23099   0.70734   0.57378   0.00000  Uiso   1.00
O767   O     0.26143   0.73664   0.56327   0.00000  Uiso   1.00
O768   O     0.23699   0.69231   0.61638   0.00000  Uiso   1.00
O769   O     0.50000   0.77322   0.53958   0.00000  Uiso   1.00
O770   O     0.50000   0.89345   0.46042   0.00000  Uiso   1.00
O771   O     0.50000   0.77321   0.46039   0.00000  Uiso   1.00
O772   O     0.50000   0.89346   0.53961   0.00000  Uiso   1.00
C773   C     0.50146   0.75410   0.50013   0.00000  Uiso   1.00
C774   C     0.49854   0.91256   0.49987   0.00000  Uiso   1.00
O775   O     0.42495   0.83334   0.53046   0.00000  Uiso   1.00
O776   O     0.57505   0.83333   0.46954   0.00000  Uiso   1.00
O777   O     0.42494   0.83333   0.45127   0.00000  Uiso   1.00
O778   O     0.57506   0.83334   0.54873   0.00000  Uiso   1.00
C779   C     0.40154   0.83225   0.48836   0.00000  Uiso   1.00
C780   C     0.59846   0.83442   0.51164   0.00000  Uiso   1.00
Cu781  Cu    0.50000   0.83334   0.54689   0.00000  Uiso   1.00
Cu782  Cu    0.50000   0.83333   0.45311   0.00000  Uiso   1.00
N783   N     0.50001   0.83334   0.61736   0.00000  Uiso   1.00
N784   N     0.49999   0.83332   0.38264   0.00000  Uiso   1.00
C785   C     0.34723   0.82546   0.48351   0.00000  Uiso   1.00
C786   C     0.65277   0.84121   0.51649   0.00000  Uiso   1.00
C787   C     0.47311   0.68887   0.46303   0.00000  Uiso   1.00
C788   C     0.52688   0.97780   0.53697   0.00000  Uiso   1.00
H789   H     0.45095   0.70631   0.43522   0.00000  Uiso   1.00
H790   H     0.54905   0.96036   0.56478   0.00000  Uiso   1.00
C791   C     0.46947   0.97940   0.46282   0.00000  Uiso   1.00
C792   C     0.53052   0.68727   0.53718   0.00000  Uiso   1.00
C793   C     0.49732   0.95719   0.49996   0.00000  Uiso   1.00
C794   C     0.50268   0.70948   0.50004   0.00000  Uiso   1.00
C795   C     0.46628   0.80932   0.35416   0.00000  Uiso   1.00
C796   C     0.53372   0.85735   0.64584   0.00000  Uiso   1.00
H797   H     0.43933   0.79002   0.36967   0.00000  Uiso   1.00
H798   H     0.56067   0.87664   0.63033   0.00000  Uiso   1.00
C799   C     0.46629   0.80934   0.63788   0.00000  Uiso   1.00
C800   C     0.53371   0.85733   0.36212   0.00000  Uiso   1.00
H801   H     0.43932   0.79008   0.61599   0.00000  Uiso   1.00
H802   H     0.56068   0.87659   0.38401   0.00000  Uiso   1.00
C803   C     0.65895   0.79626   0.44416   0.00000  Uiso   1.00
H804   H     0.35640   0.78002   0.42833   0.00000  Uiso   1.00
H805   H     0.63515   0.77194   0.45809   0.00000  Uiso   1.00
H806   H     0.63618   0.81368   0.41538   0.00000  Uiso   1.00
C807   C     0.34105   0.87041   0.55584   0.00000  Uiso   1.00
H808   H     0.64360   0.88665   0.57167   0.00000  Uiso   1.00
H809   H     0.36382   0.85299   0.58462   0.00000  Uiso   1.00
H810   H     0.36485   0.89473   0.54191   0.00000  Uiso   1.00
N811   N     0.43566   0.95933   0.42623   0.00000  Uiso   1.00
O812   O     0.40524   0.93001   0.43674   0.00000  Uiso   1.00
O813   O     0.42962   0.97438   0.38364   0.00000  Uiso   1.00
N814   N     0.56432   0.70734   0.57378   0.00000  Uiso   1.00
O815   O     0.59477   0.73664   0.56327   0.00000  Uiso   1.00
O816   O     0.57032   0.69231   0.61638   0.00000  Uiso   1.00
O817   O     0.83333   0.77322   0.53958   0.00000  Uiso   1.00
O818   O     0.83334   0.89345   0.46042   0.00000  Uiso   1.00
O819   O     0.83333   0.77321   0.46039   0.00000  Uiso   1.00
O820   O     0.83334   0.89346   0.53961   0.00000  Uiso   1.00
C821   C     0.83479   0.75410   0.50013   0.00000  Uiso   1.00
C822   C     0.83188   0.91256   0.49987   0.00000  Uiso   1.00
O823   O     0.75828   0.83334   0.53046   0.00000  Uiso   1.00
O824   O     0.90839   0.83333   0.46954   0.00000  Uiso   1.00
O825   O     0.75828   0.83333   0.45127   0.00000  Uiso   1.00
O826   O     0.90839   0.83334   0.54873   0.00000  Uiso   1.00
C827   C     0.73488   0.83225   0.48836   0.00000  Uiso   1.00
C828   C     0.93179   0.83442   0.51164   0.00000  Uiso   1.00
Cu829  Cu    0.83333   0.83334   0.54689   0.00000  Uiso   1.00
Cu830  Cu    0.83333   0.83333   0.45311   0.00000  Uiso   1.00
N831   N     0.83335   0.83334   0.61736   0.00000  Uiso   1.00
N832   N     0.83332   0.83332   0.38264   0.00000  Uiso   1.00
C833   C     0.68056   0.82546   0.48351   0.00000  Uiso   1.00
C834   C     0.98611   0.84121   0.51649   0.00000  Uiso   1.00
C835   C     0.80645   0.68887   0.46303   0.00000  Uiso   1.00
C836   C     0.86022   0.97780   0.53697   0.00000  Uiso   1.00
H837   H     0.78428   0.70631   0.43522   0.00000  Uiso   1.00
H838   H     0.88238   0.96036   0.56478   0.00000  Uiso   1.00
C839   C     0.80280   0.97940   0.46282   0.00000  Uiso   1.00
C840   C     0.86386   0.68727   0.53718   0.00000  Uiso   1.00
C841   C     0.83065   0.95719   0.49996   0.00000  Uiso   1.00
C842   C     0.83601   0.70948   0.50004   0.00000  Uiso   1.00
C843   C     0.79961   0.80932   0.35416   0.00000  Uiso   1.00
C844   C     0.86706   0.85735   0.64584   0.00000  Uiso   1.00
H845   H     0.77266   0.79002   0.36967   0.00000  Uiso   1.00
H846   H     0.89401   0.87664   0.63033   0.00000  Uiso   1.00
C847   C     0.79962   0.80934   0.63788   0.00000  Uiso   1.00
C848   C     0.86705   0.85733   0.36212   0.00000  Uiso   1.00
H849   H     0.77265   0.79008   0.61599   0.00000  Uiso   1.00
H850   H     0.89401   0.87659   0.38401   0.00000  Uiso   1.00
C851   C     0.99229   0.79626   0.44416   0.00000  Uiso   1.00
H852   H     0.68974   0.78002   0.42833   0.00000  Uiso   1.00
H853   H     0.96848   0.77194   0.45809   0.00000  Uiso   1.00
H854   H     0.96951   0.81368   0.41538   0.00000  Uiso   1.00
C855   C     0.67438   0.87041   0.55584   0.00000  Uiso   1.00
H856   H     0.97693   0.88665   0.57167   0.00000  Uiso   1.00
H857   H     0.69716   0.85299   0.58462   0.00000  Uiso   1.00
H858   H     0.69818   0.89473   0.54191   0.00000  Uiso   1.00
N859   N     0.76899   0.95933   0.42623   0.00000  Uiso   1.00
O860   O     0.73857   0.93001   0.43674   0.00000  Uiso   1.00
O861   O     0.76296   0.97438   0.38364   0.00000  Uiso   1.00
N862   N     0.89766   0.70734   0.57378   0.00000  Uiso   1.00
O863   O     0.92810   0.73664   0.56327   0.00000  Uiso   1.00
O864   O     0.90365   0.69231   0.61638   0.00000  Uiso   1.00
O865   O     0.16666   0.10655   0.87291   0.00000  Uiso   1.00
O866   O     0.16667   0.22678   0.79375   0.00000  Uiso   1.00
O867   O     0.16666   0.10654   0.79372   0.00000  Uiso   1.00
O868   O     0.16667   0.22679   0.87294   0.00000  Uiso   1.00
C869   C     0.16812   0.08744   0.83346   0.00000  Uiso   1.00
C870   C     0.16521   0.24590   0.83320   0.00000  Uiso   1.00
O871   O     0.09161   0.16667   0.86379   0.00000  Uiso   1.00
O872   O     0.24172   0.16666   0.80288   0.00000  Uiso   1.00
O873   O     0.09161   0.16666   0.78460   0.00000  Uiso   1.00
O874   O     0.24172   0.16667   0.88207   0.00000  Uiso   1.00
C875   C     0.06821   0.16558   0.82170   0.00000  Uiso   1.00
C876   C     0.26512   0.16775   0.84497   0.00000  Uiso   1.00
Cu877  Cu    0.16667   0.16667   0.88022   0.00000  Uiso   1.00
Cu878  Cu    0.16667   0.16666   0.78645   0.00000  Uiso   1.00
N879   N     0.16668   0.16668   0.95069   0.00000  Uiso   1.00
N880   N     0.16665   0.16666   0.71597   0.00000  Uiso   1.00
C881   C     0.01389   0.15879   0.81685   0.00000  Uiso   1.00
C882   C     0.31944   0.17454   0.84982   0.00000  Uiso   1.00
C883   C     0.13978   0.02220   0.79636   0.00000  Uiso   1.00
C884   C     0.19355   0.31113   0.87031   0.00000  Uiso   1.00
H885   H     0.11761   0.03964   0.76856   0.00000  Uiso   1.00
H886   H     0.21571   0.29369   0.89811   0.00000  Uiso   1.00
C887   C     0.13613   0.31273   0.79616   0.00000  Uiso   1.00
C888   C     0.19719   0.02060   0.87051   0.00000  Uiso   1.00
C889   C     0.16398   0.29052   0.83329   0.00000  Uiso   1.00
C890   C     0.16934   0.04281   0.83337   0.00000  Uiso   1.00
C891   C     0.13294   0.14265   0.68749   0.00000  Uiso   1.00
C892   C     0.20039   0.19068   0.97918   0.00000  Uiso   1.00
H893   H     0.10599   0.12336   0.70300   0.00000  Uiso   1.00
H894   H     0.22734   0.20998   0.96367   0.00000  Uiso   1.00
C895   C     0.13295   0.14267   0.97121   0.00000  Uiso   1.00
C896   C     0.20038   0.19066   0.69546   0.00000  Uiso   1.00
H897   H     0.10599   0.12341   0.94932   0.00000  Uiso   1.00
H898   H     0.22734   0.20992   0.71735   0.00000  Uiso   1.00
C899   C     0.32562   0.12959   0.77749   0.00000  Uiso   1.00
H900   H     0.02307   0.11335   0.76166   0.00000  Uiso   1.00
H901   H     0.30182   0.10527   0.79142   0.00000  Uiso   1.00
H902   H     0.30284   0.14701   0.74871   0.00000  Uiso   1.00
C903   C     0.00771   0.20374   0.88918   0.00000  Uiso   1.00
H904   H     0.31026   0.21998   0.90501   0.00000  Uiso   1.00
H905   H     0.03049   0.18632   0.91795   0.00000  Uiso   1.00
H906   H     0.03152   0.22806   0.87525   0.00000  Uiso   1.00
N907   N     0.10232   0.29266   0.75956   0.00000  Uiso   1.00
O908   O     0.07190   0.26334   0.77007   0.00000  Uiso   1.00
O909   O     0.09629   0.30771   0.71697   0.00000  Uiso   1.00
N910   N     0.23099   0.04067   0.90712   0.00000  Uiso   1.00
O911   O     0.26143   0.06998   0.89660   0.00000  Uiso   1.00
O912   O     0.23699   0.02564   0.94971   0.00000  Uiso   1.00
O913   O     0.50000   0.10655   0.87291   0.00000  Uiso   1.00
O914   O     0.50000   0.22678   0.79375   0.00000  Uiso   1.00
O915   O     0.50000   0.10654   0.79372   0.00000  Uiso   1.00
O916   O     0.50000   0.22679   0.87294   0.00000  Uiso   1.00
C917   C     0.50146   0.08744   0.83346   0.00000  Uiso   1.00
C918   C     0.49854   0.24590   0.83320   0.00000  Uiso   1.00
O919   O     0.42495   0.16667   0.86379   0.00000  Uiso   1.00
O920   O     0.57505   0.16666   0.80288   0.00000  Uiso   1.00
O921   O     0.42494   0.16666   0.78460   0.00000  Uiso   1.00
O922   O     0.57506   0.16667   0.88207   0.00000  Uiso   1.00
C923   C     0.40154   0.16558   0.82170   0.00000  Uiso   1.00
C924   C     0.59846   0.16775   0.84497   0.00000  Uiso   1.00
Cu925  Cu    0.50000   0.16667   0.88022   0.00000  Uiso   1.00
Cu926  Cu    0.50000   0.16666   0.78645   0.00000  Uiso   1.00
N927   N     0.50001   0.16668   0.95069   0.00000  Uiso   1.00
N928   N     0.49999   0.16666   0.71597   0.00000  Uiso   1.00
C929   C     0.34723   0.15879   0.81685   0.00000  Uiso   1.00
C930   C     0.65277   0.17454   0.84982   0.00000  Uiso   1.00
C931   C     0.47311   0.02220   0.79636   0.00000  Uiso   1.00
C932   C     0.52688   0.31113   0.87031   0.00000  Uiso   1.00
H933   H     0.45095   0.03964   0.76856   0.00000  Uiso   1.00
H934   H     0.54905   0.29369   0.89811   0.00000  Uiso   1.00
C935   C     0.46947   0.31273   0.79616   0.00000  Uiso   1.00
C936   C     0.53052   0.02060   0.87051   0.00000  Uiso   1.00
C937   C     0.49732   0.29052   0.83329   0.00000  Uiso   1.00
C938   C     0.50268   0.04281   0.83337   0.00000  Uiso   1.00
C939   C     0.46628   0.14265   0.68749   0.00000  Uiso   1.00
C940   C     0.53372   0.19068   0.97918   0.00000  Uiso   1.00
H941   H     0.43933   0.12336   0.70300   0.00000  Uiso   1.00
H942   H     0.56067   0.20998   0.96367   0.00000  Uiso   1.00
C943   C     0.46629   0.14267   0.97121   0.00000  Uiso   1.00
C944   C     0.53371   0.19066   0.69546   0.00000  Uiso   1.00
H945   H     0.43932   0.12341   0.94932   0.00000  Uiso   1.00
H946   H     0.56068   0.20992   0.71735   0.00000  Uiso   1.00
C947   C     0.65895   0.12959   0.77749   0.00000  Uiso   1.00
H948   H     0.35640   0.11335   0.76166   0.00000  Uiso   1.00
H949   H     0.63515   0.10527   0.79142   0.00000  Uiso   1.00
H950   H     0.63618   0.14701   0.74871   0.00000  Uiso   1.00
C951   C     0.34105   0.20374   0.88918   0.00000  Uiso   1.00
H952   H     0.64360   0.21998   0.90501   0.00000  Uiso   1.00
H953   H     0.36382   0.18632   0.91795   0.00000  Uiso   1.00
H954   H     0.36485   0.22806   0.87525   0.00000  Uiso   1.00
N955   N     0.43566   0.29266   0.75956   0.00000  Uiso   1.00
O956   O     0.40524   0.26334   0.77007   0.00000  Uiso   1.00
O957   O     0.42962   0.30771   0.71697   0.00000  Uiso   1.00
N958   N     0.56432   0.04067   0.90712   0.00000  Uiso   1.00
O959   O     0.59477   0.06998   0.89660   0.00000  Uiso   1.00
O960   O     0.57032   0.02564   0.94971   0.00000  Uiso   1.00
O961   O     0.83333   0.10655   0.87291   0.00000  Uiso   1.00
O962   O     0.83334   0.22678   0.79375   0.00000  Uiso   1.00
O963   O     0.83333   0.10654   0.79372   0.00000  Uiso   1.00
O964   O     0.83334   0.22679   0.87294   0.00000  Uiso   1.00
C965   C     0.83479   0.08744   0.83346   0.00000  Uiso   1.00
C966   C     0.83188   0.24590   0.83320   0.00000  Uiso   1.00
O967   O     0.75828   0.16667   0.86379   0.00000  Uiso   1.00
O968   O     0.90839   0.16666   0.80288   0.00000  Uiso   1.00
O969   O     0.75828   0.16666   0.78460   0.00000  Uiso   1.00
O970   O     0.90839   0.16667   0.88207   0.00000  Uiso   1.00
C971   C     0.73488   0.16558   0.82170   0.00000  Uiso   1.00
C972   C     0.93179   0.16775   0.84497   0.00000  Uiso   1.00
Cu973  Cu    0.83333   0.16667   0.88022   0.00000  Uiso   1.00
Cu974  Cu    0.83333   0.16666   0.78645   0.00000  Uiso   1.00
N975   N     0.83335   0.16668   0.95069   0.00000  Uiso   1.00
N976   N     0.83332   0.16666   0.71597   0.00000  Uiso   1.00
C977   C     0.68056   0.15879   0.81685   0.00000  Uiso   1.00
C978   C     0.98611   0.17454   0.84982   0.00000  Uiso   1.00
C979   C     0.80645   0.02220   0.79636   0.00000  Uiso   1.00
C980   C     0.86022   0.31113   0.87031   0.00000  Uiso   1.00
H981   H     0.78428   0.03964   0.76856   0.00000  Uiso   1.00
H982   H     0.88238   0.29369   0.89811   0.00000  Uiso   1.00
C983   C     0.80280   0.31273   0.79616   0.00000  Uiso   1.00
C984   C     0.86386   0.02060   0.87051   0.00000  Uiso   1.00
C985   C     0.83065   0.29052   0.83329   0.00000  Uiso   1.00
C986   C     0.83601   0.04281   0.83337   0.00000  Uiso   1.00
C987   C     0.79961   0.14265   0.68749   0.00000  Uiso   1.00
C988   C     0.86706   0.19068   0.97918   0.00000  Uiso   1.00
H989   H     0.77266   0.12336   0.70300   0.00000  Uiso   1.00
H990   H     0.89401   0.20998   0.96367   0.00000  Uiso   1.00
C991   C     0.79962   0.14267   0.97121   0.00000  Uiso   1.00
C992   C     0.86705   0.19066   0.69546   0.00000  Uiso   1.00
H993   H     0.77265   0.12341   0.94932   0.00000  Uiso   1.00
H994   H     0.89401   0.20992   0.71735   0.00000  Uiso   1.00
C995   C     0.99229   0.12959   0.77749   0.00000  Uiso   1.00
H996   H     0.68974   0.11335   0.76166   0.00000  Uiso   1.00
H997   H     0.96848   0.10527   0.79142   0.00000  Uiso   1.00
H998   H     0.96951   0.14701   0.74871   0.00000  Uiso   1.00
C999   C     0.67438   0.20374   0.88918   0.00000  Uiso   1.00
H1000  H     0.97693   0.21998   0.90501   0.00000  Uiso   1.00
H1001  H     0.69716   0.18632   0.91795   0.00000  Uiso   1.00
H1002  H     0.69818   0.22806   0.87525   0.00000  Uiso   1.00
N1003  N     0.76899   0.29266   0.75956   0.00000  Uiso   1.00
O1004  O     0.73857   0.26334   0.77007   0.00000  Uiso   1.00
O1005  O     0.76296   0.30771   0.71697   0.00000  Uiso   1.00
N1006  N     0.89766   0.04067   0.90712   0.00000  Uiso   1.00
O1007  O     0.92810   0.06998   0.89660   0.00000  Uiso   1.00
O1008  O     0.90365   0.02564   0.94971   0.00000  Uiso   1.00
O1009  O     0.16666   0.43989   0.87291   0.00000  Uiso   1.00
O1010  O     0.16667   0.56011   0.79375   0.00000  Uiso   1.00
O1011  O     0.16666   0.43988   0.79372   0.00000  Uiso   1.00
O1012  O     0.16667   0.56012   0.87294   0.00000  Uiso   1.00
C1013  C     0.16812   0.42077   0.83346   0.00000  Uiso   1.00
C1014  C     0.16521   0.57923   0.83320   0.00000  Uiso   1.00
O1015  O     0.09161   0.50000   0.86379   0.00000  Uiso   1.00
O1016  O     0.24172   0.50000   0.80288   0.00000  Uiso   1.00
O1017  O     0.09161   0.49999   0.78460   0.00000  Uiso   1.00
O1018  O     0.24172   0.50001   0.88207   0.00000  Uiso   1.00
C1019  C     0.06821   0.49892   0.82170   0.00000  Uiso   1.00
C1020  C     0.26512   0.50108   0.84497   0.00000  Uiso   1.00
Cu1021 Cu    0.16667   0.50001   0.88022   0.00000  Uiso   1.00
Cu1022 Cu    0.16667   0.49999   0.78645   0.00000  Uiso   1.00
N1023  N     0.16668   0.50001   0.95069   0.00000  Uiso   1.00
N1024  N     0.16665   0.49999   0.71597   0.00000  Uiso   1.00
C1025  C     0.01389   0.49212   0.81685   0.00000  Uiso   1.00
C1026  C     0.31944   0.50788   0.84982   0.00000  Uiso   1.00
C1027  C     0.13978   0.35553   0.79636   0.00000  Uiso   1.00
C1028  C     0.19355   0.64447   0.87031   0.00000  Uiso   1.00
H1029  H     0.11761   0.37298   0.76856   0.00000  Uiso   1.00
H1030  H     0.21571   0.62703   0.89811   0.00000  Uiso   1.00
C1031  C     0.13613   0.64606   0.79616   0.00000  Uiso   1.00
C1032  C     0.19719   0.35394   0.87051   0.00000  Uiso   1.00
C1033  C     0.16398   0.62386   0.83329   0.00000  Uiso   1.00
C1034  C     0.16934   0.37614   0.83337   0.00000  Uiso   1.00
C1035  C     0.13294   0.47599   0.68749   0.00000  Uiso   1.00
C1036  C     0.20039   0.52401   0.97918   0.00000  Uiso   1.00
H1037  H     0.10599   0.45669   0.70300   0.00000  Uiso   1.00
H1038  H     0.22734   0.54331   0.96367   0.00000  Uiso   1.00
C1039  C     0.13295   0.47600   0.97121   0.00000  Uiso   1.00
C1040  C     0.20038   0.52400   0.69546   0.00000  Uiso   1.00
H1041  H     0.10599   0.45675   0.94932   0.00000  Uiso   1.00
H1042  H     0.22734   0.54325   0.71735   0.00000  Uiso   1.00
C1043  C     0.32562   0.46292   0.77749   0.00000  Uiso   1.00
H1044  H     0.02307   0.44668   0.76166   0.00000  Uiso   1.00
H1045  H     0.30182   0.43860   0.79142   0.00000  Uiso   1.00
H1046  H     0.30284   0.48035   0.74871   0.00000  Uiso   1.00
C1047  C     0.00771   0.53708   0.88918   0.00000  Uiso   1.00
H1048  H     0.31026   0.55332   0.90501   0.00000  Uiso   1.00
H1049  H     0.03049   0.51965   0.91795   0.00000  Uiso   1.00
H1050  H     0.03152   0.56140   0.87525   0.00000  Uiso   1.00
N1051  N     0.10232   0.62600   0.75956   0.00000  Uiso   1.00
O1052  O     0.07190   0.59668   0.77007   0.00000  Uiso   1.00
O1053  O     0.09629   0.64105   0.71697   0.00000  Uiso   1.00
N1054  N     0.23099   0.37400   0.90712   0.00000  Uiso   1.00
O1055  O     0.26143   0.40331   0.89660   0.00000  Uiso   1.00
O1056  O     0.23699   0.35897   0.94971   0.00000  Uiso   1.00
O1057  O     0.50000   0.43989   0.87291   0.00000  Uiso   1.00
O1058  O     0.50000   0.56011   0.79375   0.00000  Uiso   1.00
O1059  O     0.50000   0.43988   0.79372   0.00000  Uiso   1.00
O1060  O     0.50000   0.56012   0.87294   0.00000  Uiso   1.00
C1061  C     0.50146   0.42077   0.83346   0.00000  Uiso   1.00
C1062  C     0.49854   0.57923   0.83320   0.00000  Uiso   1.00
O1063  O     0.42495   0.50000   0.86379   0.00000  Uiso   1.00
O1064  O     0.57505   0.50000   0.80288   0.00000  Uiso   1.00
O1065  O     0.42494   0.49999   0.78460   0.00000  Uiso   1.00
O1066  O     0.57506   0.50001   0.88207   0.00000  Uiso   1.00
C1067  C     0.40154   0.49892   0.82170   0.00000  Uiso   1.00
C1068  C     0.59846   0.50108   0.84497   0.00000  Uiso   1.00
Cu1069 Cu    0.50000   0.50001   0.88022   0.00000  Uiso   1.00
Cu1070 Cu    0.50000   0.49999   0.78645   0.00000  Uiso   1.00
N1071  N     0.50001   0.50001   0.95069   0.00000  Uiso   1.00
N1072  N     0.49999   0.49999   0.71597   0.00000  Uiso   1.00
C1073  C     0.34723   0.49212   0.81685   0.00000  Uiso   1.00
C1074  C     0.65277   0.50788   0.84982   0.00000  Uiso   1.00
C1075  C     0.47311   0.35553   0.79636   0.00000  Uiso   1.00
C1076  C     0.52688   0.64447   0.87031   0.00000  Uiso   1.00
H1077  H     0.45095   0.37298   0.76856   0.00000  Uiso   1.00
H1078  H     0.54905   0.62703   0.89811   0.00000  Uiso   1.00
C1079  C     0.46947   0.64606   0.79616   0.00000  Uiso   1.00
C1080  C     0.53052   0.35394   0.87051   0.00000  Uiso   1.00
C1081  C     0.49732   0.62386   0.83329   0.00000  Uiso   1.00
C1082  C     0.50268   0.37614   0.83337   0.00000  Uiso   1.00
C1083  C     0.46628   0.47599   0.68749   0.00000  Uiso   1.00
C1084  C     0.53372   0.52401   0.97918   0.00000  Uiso   1.00
H1085  H     0.43933   0.45669   0.70300   0.00000  Uiso   1.00
H1086  H     0.56067   0.54331   0.96367   0.00000  Uiso   1.00
C1087  C     0.46629   0.47600   0.97121   0.00000  Uiso   1.00
C1088  C     0.53371   0.52400   0.69546   0.00000  Uiso   1.00
H1089  H     0.43932   0.45675   0.94932   0.00000  Uiso   1.00
H1090  H     0.56068   0.54325   0.71735   0.00000  Uiso   1.00
C1091  C     0.65895   0.46292   0.77749   0.00000  Uiso   1.00
H1092  H     0.35640   0.44668   0.76166   0.00000  Uiso   1.00
H1093  H     0.63515   0.43860   0.79142   0.00000  Uiso   1.00
H1094  H     0.63618   0.48035   0.74871   0.00000  Uiso   1.00
C1095  C     0.34105   0.53708   0.88918   0.00000  Uiso   1.00
H1096  H     0.64360   0.55332   0.90501   0.00000  Uiso   1.00
H1097  H     0.36382   0.51965   0.91795   0.00000  Uiso   1.00
H1098  H     0.36485   0.56140   0.87525   0.00000  Uiso   1.00
N1099  N     0.43566   0.62600   0.75956   0.00000  Uiso   1.00
O1100  O     0.40524   0.59668   0.77007   0.00000  Uiso   1.00
O1101  O     0.42962   0.64105   0.71697   0.00000  Uiso   1.00
N1102  N     0.56432   0.37400   0.90712   0.00000  Uiso   1.00
O1103  O     0.59477   0.40331   0.89660   0.00000  Uiso   1.00
O1104  O     0.57032   0.35897   0.94971   0.00000  Uiso   1.00
O1105  O     0.83333   0.43989   0.87291   0.00000  Uiso   1.00
O1106  O     0.83334   0.56011   0.79375   0.00000  Uiso   1.00
O1107  O     0.83333   0.43988   0.79372   0.00000  Uiso   1.00
O1108  O     0.83334   0.56012   0.87294   0.00000  Uiso   1.00
C1109  C     0.83479   0.42077   0.83346   0.00000  Uiso   1.00
C1110  C     0.83188   0.57923   0.83320   0.00000  Uiso   1.00
O1111  O     0.75828   0.50000   0.86379   0.00000  Uiso   1.00
O1112  O     0.90839   0.50000   0.80288   0.00000  Uiso   1.00
O1113  O     0.75828   0.49999   0.78460   0.00000  Uiso   1.00
O1114  O     0.90839   0.50001   0.88207   0.00000  Uiso   1.00
C1115  C     0.73488   0.49892   0.82170   0.00000  Uiso   1.00
C1116  C     0.93179   0.50108   0.84497   0.00000  Uiso   1.00
Cu1117 Cu    0.83333   0.50001   0.88022   0.00000  Uiso   1.00
Cu1118 Cu    0.83333   0.49999   0.78645   0.00000  Uiso   1.00
N1119  N     0.83335   0.50001   0.95069   0.00000  Uiso   1.00
N1120  N     0.83332   0.49999   0.71597   0.00000  Uiso   1.00
C1121  C     0.68056   0.49212   0.81685   0.00000  Uiso   1.00
C1122  C     0.98611   0.50788   0.84982   0.00000  Uiso   1.00
C1123  C     0.80645   0.35553   0.79636   0.00000  Uiso   1.00
C1124  C     0.86022   0.64447   0.87031   0.00000  Uiso   1.00
H1125  H     0.78428   0.37298   0.76856   0.00000  Uiso   1.00
H1126  H     0.88238   0.62703   0.89811   0.00000  Uiso   1.00
C1127  C     0.80280   0.64606   0.79616   0.00000  Uiso   1.00
C1128  C     0.86386   0.35394   0.87051   0.00000  Uiso   1.00
C1129  C     0.83065   0.62386   0.83329   0.00000  Uiso   1.00
C1130  C     0.83601   0.37614   0.83337   0.00000  Uiso   1.00
C1131  C     0.79961   0.47599   0.68749   0.00000  Uiso   1.00
C1132  C     0.86706   0.52401   0.97918   0.00000  Uiso   1.00
H1133  H     0.77266   0.45669   0.70300   0.00000  Uiso   1.00
H1134  H     0.89401   0.54331   0.96367   0.00000  Uiso   1.00
C1135  C     0.79962   0.47600   0.97121   0.00000  Uiso   1.00
C1136  C     0.86705   0.52400   0.69546   0.00000  Uiso   1.00
H1137  H     0.77265   0.45675   0.94932   0.00000  Uiso   1.00
H1138  H     0.89401   0.54325   0.71735   0.00000  Uiso   1.00
C1139  C     0.99229   0.46292   0.77749   0.00000  Uiso   1.00
H1140  H     0.68974   0.44668   0.76166   0.00000  Uiso   1.00
H1141  H     0.96848   0.43860   0.79142   0.00000  Uiso   1.00
H1142  H     0.96951   0.48035   0.74871   0.00000  Uiso   1.00
C1143  C     0.67438   0.53708   0.88918   0.00000  Uiso   1.00
H1144  H     0.97693   0.55332   0.90501   0.00000  Uiso   1.00
H1145  H     0.69716   0.51965   0.91795   0.00000  Uiso   1.00
H1146  H     0.69818   0.56140   0.87525   0.00000  Uiso   1.00
N1147  N     0.76899   0.62600   0.75956   0.00000  Uiso   1.00
O1148  O     0.73857   0.59668   0.77007   0.00000  Uiso   1.00
O1149  O     0.76296   0.64105   0.71697   0.00000  Uiso   1.00
N1150  N     0.89766   0.37400   0.90712   0.00000  Uiso   1.00
O1151  O     0.92810   0.40331   0.89660   0.00000  Uiso   1.00
O1152  O     0.90365   0.35897   0.94971   0.00000  Uiso   1.00
O1153  O     0.16666   0.77322   0.87291   0.00000  Uiso   1.00
O1154  O     0.16667   0.89345   0.79375   0.00000  Uiso   1.00
O1155  O     0.16666   0.77321   0.79372   0.00000  Uiso   1.00
O1156  O     0.16667   0.89346   0.87294   0.00000  Uiso   1.00
C1157  C     0.16812   0.75410   0.83346   0.00000  Uiso   1.00
C1158  C     0.16521   0.91256   0.83320   0.00000  Uiso   1.00
O1159  O     0.09161   0.83334   0.86379   0.00000  Uiso   1.00
O1160  O     0.24172   0.83333   0.80288   0.00000  Uiso   1.00
O1161  O     0.09161   0.83333   0.78460   0.00000  Uiso   1.00
O1162  O     0.24172   0.83334   0.88207   0.00000  Uiso   1.00
C1163  C     0.06821   0.83225   0.82170   0.00000  Uiso   1.00
C1164  C     0.26512   0.83442   0.84497   0.00000  Uiso   1.00
Cu1165 Cu    0.16667   0.83334   0.88022   0.00000  Uiso   1.00
Cu1166 Cu    0.16667   0.83333   0.78645   0.00000  Uiso   1.00
N1167  N     0.16668   0.83334   0.95069   0.00000  Uiso   1.00
N1168  N     0.16665   0.83332   0.71597   0.00000  Uiso   1.00
C1169  C     0.01389   0.82546   0.81685   0.00000  Uiso   1.00
C1170  C     0.31944   0.84121   0.84982   0.00000  Uiso   1.00
C1171  C     0.13978   0.68887   0.79636   0.00000  Uiso   1.00
C1172  C     0.19355   0.97780   0.87031   0.00000  Uiso   1.00
H1173  H     0.11761   0.70631   0.76856   0.00000  Uiso   1.00
H1174  H     0.21571   0.96036   0.89811   0.00000  Uiso   1.00
C1175  C     0.13613   0.97940   0.79616   0.00000  Uiso   1.00
C1176  C     0.19719   0.68727   0.87051   0.00000  Uiso   1.00
C1177  C     0.16398   0.95719   0.83329   0.00000  Uiso   1.00
C1178  C     0.16934   0.70948   0.83337   0.00000  Uiso   1.00
C1179  C     0.13294   0.80932   0.68749   0.00000  Uiso   1.00
C1180  C     0.20039   0.85735   0.97918   0.00000  Uiso   1.00
H1181  H     0.10599   0.79002   0.70300   0.00000  Uiso   1.00
H1182  H     0.22734   0.87664   0.96367   0.00000  Uiso   1.00
C1183  C     0.13295   0.80934   0.97121   0.00000  Uiso   1.00
C1184  C     0.20038   0.85733   0.69546   0.00000  Uiso   1.00
H1185  H     0.10599   0.79008   0.94932   0.00000  Uiso   1.00
H1186  H     0.22734   0.87659   0.71735   0.00000  Uiso   1.00
C1187  C     0.32562   0.79626   0.77749   0.00000  Uiso   1.00
H1188  H     0.02307   0.78002   0.76166   0.00000  Uiso   1.00
H1189  H     0.30182   0.77194   0.79142   0.00000  Uiso   1.00
H1190  H     0.30284   0.81368   0.74871   0.00000  Uiso   1.00
C1191  C     0.00771   0.87041   0.88918   0.00000  Uiso   1.00
H1192  H     0.31026   0.88665   0.90501   0.00000  Uiso   1.00
H1193  H     0.03049   0.85299   0.91795   0.00000  Uiso   1.00
H1194  H     0.03152   0.89473   0.87525   0.00000  Uiso   1.00
N1195  N     0.10232   0.95933   0.75956   0.00000  Uiso   1.00
O1196  O     0.07190   0.93001   0.77007   0.00000  Uiso   1.00
O1197  O     0.09629   0.97438   0.71697   0.00000  Uiso   1.00
N1198  N     0.23099   0.70734   0.90712   0.00000  Uiso   1.00
O1199  O     0.26143   0.73664   0.89660   0.00000  Uiso   1.00
O1200  O     0.23699   0.69231   0.94971   0.00000  Uiso   1.00
O1201  O     0.50000   0.77322   0.87291   0.00000  Uiso   1.00
O1202  O     0.50000   0.89345   0.79375   0.00000  Uiso   1.00
O1203  O     0.50000   0.77321   0.79372   0.00000  Uiso   1.00
O1204  O     0.50000   0.89346   0.87294   0.00000  Uiso   1.00
C1205  C     0.50146   0.75410   0.83346   0.00000  Uiso   1.00
C1206  C     0.49854   0.91256   0.83320   0.00000  Uiso   1.00
O1207  O     0.42495   0.83334   0.86379   0.00000  Uiso   1.00
O1208  O     0.57505   0.83333   0.80288   0.00000  Uiso   1.00
O1209  O     0.42494   0.83333   0.78460   0.00000  Uiso   1.00
O1210  O     0.57506   0.83334   0.88207   0.00000  Uiso   1.00
C1211  C     0.40154   0.83225   0.82170   0.00000  Uiso   1.00
C1212  C     0.59846   0.83442   0.84497   0.00000  Uiso   1.00
Cu1213 Cu    0.50000   0.83334   0.88022   0.00000  Uiso   1.00
Cu1214 Cu    0.50000   0.83333   0.78645   0.00000  Uiso   1.00
N1215  N     0.50001   0.83334   0.95069   0.00000  Uiso   1.00
N1216  N     0.49999   0.83332   0.71597   0.00000  Uiso   1.00
C1217  C     0.34723   0.82546   0.81685   0.00000  Uiso   1.00
C1218  C     0.65277   0.84121   0.84982   0.00000  Uiso   1.00
C1219  C     0.47311   0.68887   0.79636   0.00000  Uiso   1.00
C1220  C     0.52688   0.97780   0.87031   0.00000  Uiso   1.00
H1221  H     0.45095   0.70631   0.76856   0.00000  Uiso   1.00
H1222  H     0.54905   0.96036   0.89811   0.00000  Uiso   1.00
C1223  C     0.46947   0.97940   0.79616   0.00000  Uiso   1.00
C1224  C     0.53052   0.68727   0.87051   0.00000  Uiso   1.00
C1225  C     0.49732   0.95719   0.83329   0.00000  Uiso   1.00
C1226  C     0.50268   0.70948   0.83337   0.00000  Uiso   1.00
C1227  C     0.46628   0.80932   0.68749   0.00000  Uiso   1.00
C1228  C     0.53372   0.85735   0.97918   0.00000  Uiso   1.00
H1229  H     0.43933   0.79002   0.70300   0.00000  Uiso   1.00
H1230  H     0.56067   0.87664   0.96367   0.00000  Uiso   1.00
C1231  C     0.46629   0.80934   0.97121   0.00000  Uiso   1.00
C1232  C     0.53371   0.85733   0.69546   0.00000  Uiso   1.00
H1233  H     0.43932   0.79008   0.94932   0.00000  Uiso   1.00
H1234  H     0.56068   0.87659   0.71735   0.00000  Uiso   1.00
C1235  C     0.65895   0.79626   0.77749   0.00000  Uiso   1.00
H1236  H     0.35640   0.78002   0.76166   0.00000  Uiso   1.00
H1237  H     0.63515   0.77194   0.79142   0.00000  Uiso   1.00
H1238  H     0.63618   0.81368   0.74871   0.00000  Uiso   1.00
C1239  C     0.34105   0.87041   0.88918   0.00000  Uiso   1.00
H1240  H     0.64360   0.88665   0.90501   0.00000  Uiso   1.00
H1241  H     0.36382   0.85299   0.91795   0.00000  Uiso   1.00
H1242  H     0.36485   0.89473   0.87525   0.00000  Uiso   1.00
N1243  N     0.43566   0.95933   0.75956   0.00000  Uiso   1.00
O1244  O     0.40524   0.93001   0.77007   0.00000  Uiso   1.00
O1245  O     0.42962   0.97438   0.71697   0.00000  Uiso   1.00
N1246  N     0.56432   0.70734   0.90712   0.00000  Uiso   1.00
O1247  O     0.59477   0.73664   0.89660   0.00000  Uiso   1.00
O1248  O     0.57032   0.69231   0.94971   0.00000  Uiso   1.00
O1249  O     0.83333   0.77322   0.87291   0.00000  Uiso   1.00
O1250  O     0.83334   0.89345   0.79375   0.00000  Uiso   1.00
O1251  O     0.83333   0.77321   0.79372   0.00000  Uiso   1.00
O1252  O     0.83334   0.89346   0.87294   0.00000  Uiso   1.00
C1253  C     0.83479   0.75410   0.83346   0.00000  Uiso   1.00
C1254  C     0.83188   0.91256   0.83320   0.00000  Uiso   1.00
O1255  O     0.75828   0.83334   0.86379   0.00000  Uiso   1.00
O1256  O     0.90839   0.83333   0.80288   0.00000  Uiso   1.00
O1257  O     0.75828   0.83333   0.78460   0.00000  Uiso   1.00
O1258  O     0.90839   0.83334   0.88207   0.00000  Uiso   1.00
C1259  C     0.73488   0.83225   0.82170   0.00000  Uiso   1.00
C1260  C     0.93179   0.83442   0.84497   0.00000  Uiso   1.00
Cu1261 Cu    0.83333   0.83334   0.88022   0.00000  Uiso   1.00
Cu1262 Cu    0.83333   0.83333   0.78645   0.00000  Uiso   1.00
N1263  N     0.83335   0.83334   0.95069   0.00000  Uiso   1.00
N1264  N     0.83332   0.83332   0.71597   0.00000  Uiso   1.00
C1265  C     0.68056   0.82546   0.81685   0.00000  Uiso   1.00
C1266  C     0.98611   0.84121   0.84982   0.00000  Uiso   1.00
C1267  C     0.80645   0.68887   0.79636   0.00000  Uiso   1.00
C1268  C     0.86022   0.97780   0.87031   0.00000  Uiso   1.00
H1269  H     0.78428   0.70631   0.76856   0.00000  Uiso   1.00
H1270  H     0.88238   0.96036   0.89811   0.00000  Uiso   1.00
C1271  C     0.80280   0.97940   0.79616   0.00000  Uiso   1.00
C1272  C     0.86386   0.68727   0.87051   0.00000  Uiso   1.00
C1273  C     0.83065   0.95719   0.83329   0.00000  Uiso   1.00
C1274  C     0.83601   0.70948   0.83337   0.00000  Uiso   1.00
C1275  C     0.79961   0.80932   0.68749   0.00000  Uiso   1.00
C1276  C     0.86706   0.85735   0.97918   0.00000  Uiso   1.00
H1277  H     0.77266   0.79002   0.70300   0.00000  Uiso   1.00
H1278  H     0.89401   0.87664   0.96367   0.00000  Uiso   1.00
C1279  C     0.79962   0.80934   0.97121   0.00000  Uiso   1.00
C1280  C     0.86705   0.85733   0.69546   0.00000  Uiso   1.00
H1281  H     0.77265   0.79008   0.94932   0.00000  Uiso   1.00
H1282  H     0.89401   0.87659   0.71735   0.00000  Uiso   1.00
C1283  C     0.99229   0.79626   0.77749   0.00000  Uiso   1.00
H1284  H     0.68974   0.78002   0.76166   0.00000  Uiso   1.00
H1285  H     0.96848   0.77194   0.79142   0.00000  Uiso   1.00
H1286  H     0.96951   0.81368   0.74871   0.00000  Uiso   1.00
C1287  C     0.67438   0.87041   0.88918   0.00000  Uiso   1.00
H1288  H     0.97693   0.88665   0.90501   0.00000  Uiso   1.00
H1289  H     0.69716   0.85299   0.91795   0.00000  Uiso   1.00
H1290  H     0.69818   0.89473   0.87525   0.00000  Uiso   1.00
N1291  N     0.76899   0.95933   0.75956   0.00000  Uiso   1.00
O1292  O     0.73857   0.93001   0.77007   0.00000  Uiso   1.00
O1293  O     0.76296   0.97438   0.71697   0.00000  Uiso   1.00
N1294  N     0.89766   0.70734   0.90712   0.00000  Uiso   1.00
O1295  O     0.92810   0.73664   0.89660   0.00000  Uiso   1.00
O1296  O     0.90365   0.69231   0.94971   0.00000  Uiso   1.00
loop_
_geom_bond_atom_site_label_1
_geom_bond_atom_site_label_2
_geom_bond_distance
_geom_bond_site_symmetry_2
_ccdc_geom_bond_type
O1     C5      1.290   .     A
O1     Cu13    1.959   .     S
O2     C6      1.290   .     A
O2     Cu14    1.959   .     S
O3     Cu14    1.959   .     S
O3     C5      1.289   .     A
O4     C6      1.289   .     A
O4     Cu13    1.959   .     S
C5     C26     1.446   .     S
C6     C25     1.446   .     S
O7     Cu13    1.976   .     S
O7     C11     1.280   .     A
O8     C12     1.280   .     A
O8     Cu14    1.976   .     S
O9     Cu14    1.973   .     S
O9     C11     1.292   .     A
O10    C12     1.292   .     A
O10    Cu13    1.973   .     S
C11    C17     1.438   .     S
C12    C18     1.438   .     S
Cu13   Cu14    2.677   .     S
Cu13   N15     2.012   .     S
Cu14   N16     2.012   .     S
N15    C31     1.367   .     A
N15    C28     1.367   .     A
N16    C27     1.367   .     A
N16    C32     1.367   .     A
C17    C114    1.364   1_455 S
C17    C131    1.522   1_455 S
C18    C65     1.364   .     S
C18    C87     1.522   .     S
C19    C26     1.399   .     A
C19    H21     1.085   .     S
C19    C311    1.390   1_545 S
C20    C25     1.399   .     A
C20    H22     1.085   .     S
C20    C168    1.390   .     S
C23    N43     1.439   .     S
C23    C25     1.410   .     A
C23    C163    1.390   .     S
C24    N46     1.439   .     S
C24    C26     1.410   .     A
C24    C308    1.390   1_545 S
C27    H29     1.082   .     S
C27    C895    1.417   1_554 S
C28    H30     1.082   .     S
C28    C464    1.417   .     S
C31    H33     1.082   .     S
C31    C459    1.417   .     S
C32    H34     1.082   .     S
C32    C892    1.417   1_554 S
C35    H37     1.111   .     S
C35    H38     1.110   .     S
C35    C65     1.522   .     S
C35    H84     1.111   .     S
H36    C131    1.111   1_455 S
C39    H41     1.110   .     S
C39    H42     1.111   .     S
C39    C114    1.522   1_455 S
C39    H136    1.111   1_455 S
H40    C87     1.111   .     S
N43    O44     1.302   .     A
N43    O45     1.302   .     A
N46    O48     1.302   .     A
N46    O47     1.302   .     A
O49    C53     1.290   .     A
O49    Cu61    1.959   .     S
O50    C54     1.290   .     A
O50    Cu62    1.959   .     S
O51    Cu62    1.959   .     S
O51    C53     1.289   .     A
O52    C54     1.289   .     A
O52    Cu61    1.959   .     S
C53    C74     1.446   .     S
C54    C73     1.446   .     S
O55    Cu61    1.976   .     S
O55    C59     1.280   .     A
O56    C60     1.280   .     A
O56    Cu62    1.976   .     S
O57    Cu62    1.973   .     S
O57    C59     1.292   .     A
O58    C60     1.292   .     A
O58    Cu61    1.973   .     S
C59    C65     1.438   .     S
C60    C66     1.438   .     S
Cu61   Cu62    2.677   .     S
Cu61   N63     2.012   .     S
Cu62   N64     2.012   .     S
N63    C79     1.367   .     A
N63    C76     1.367   .     A
N64    C75     1.367   .     A
N64    C80     1.367   .     A
C66    C113    1.364   .     S
C66    C135    1.522   .     S
C67    C74     1.399   .     A
C67    H69     1.085   .     S
C67    C359    1.390   1_545 S
C68    C73     1.399   .     A
C68    H70     1.085   .     S
C68    C216    1.390   .     S
C71    N91     1.439   .     S
C71    C73     1.410   .     A
C71    C211    1.390   .     S
C72    N94     1.439   .     S
C72    C74     1.410   .     A
C72    C356    1.390   1_545 S
C75    H77     1.082   .     S
C75    C943    1.417   1_554 S
C76    H78     1.082   .     S
C76    C512    1.417   .     S
C79    H81     1.082   .     S
C79    C507    1.417   .     S
C80    H82     1.082   .     S
C80    C940    1.417   1_554 S
C83    H85     1.111   .     S
C83    H86     1.110   .     S
C83    C113    1.522   .     S
C83    H132    1.111   .     S
C87    H89     1.110   .     S
C87    H90     1.111   .     S
H88    C135    1.111   .     S
N91    O92     1.302   .     A
N91    O93     1.302   .     A
N94    O96     1.302   .     A
N94    O95     1.302   .     A
O97    C101    1.290   .     A
O97    Cu109   1.959   .     S
O98    C102    1.290   .     A
O98    Cu110   1.959   .     S
O99    Cu110   1.959   .     S
O99    C101    1.289   .     A
O100   C102    1.289   .     A
O100   Cu109   1.959   .     S
C101   C122    1.446   .     S
C102   C121    1.446   .     S
O103   Cu109   1.976   .     S
O103   C107    1.280   .     A
O104   C108    1.280   .     A
O104   Cu110   1.976   .     S
O105   Cu110   1.973   .     S
O105   C107    1.292   .     A
O106   C108    1.292   .     A
O106   Cu109   1.973   .     S
C107   C113    1.438   .     S
C108   C114    1.438   .     S
Cu109  Cu110   2.677   .     S
Cu109  N111    2.012   .     S
Cu110  N112    2.012   .     S
N111   C127    1.367   .     A
N111   C124    1.367   .     A
N112   C123    1.367   .     A
N112   C128    1.367   .     A
C114   C17     1.364   1_655 S
C114   C39     1.522   1_655 S
C115   C122    1.399   .     A
C115   H117    1.085   .     S
C115   C407    1.390   1_545 S
C116   C121    1.399   .     A
C116   H118    1.085   .     S
C116   C264    1.390   .     S
C119   N139    1.439   .     S
C119   C121    1.410   .     A
C119   C259    1.390   .     S
C120   N142    1.439   .     S
C120   C122    1.410   .     A
C120   C404    1.390   1_545 S
C123   H125    1.082   .     S
C123   C991    1.417   1_554 S
C124   H126    1.082   .     S
C124   C560    1.417   .     S
C127   H129    1.082   .     S
C127   C555    1.417   .     S
C128   H130    1.082   .     S
C128   C988    1.417   1_554 S
C131   H133    1.111   .     S
C131   H134    1.110   .     S
C131   C17     1.522   1_655 S
C131   H36     1.111   1_655 S
C135   H137    1.110   .     S
C135   H138    1.111   .     S
H136   C39     1.111   1_655 S
N139   O140    1.302   .     A
N139   O141    1.302   .     A
N142   O144    1.302   .     A
N142   O143    1.302   .     A
O145   C149    1.290   .     A
O145   Cu157   1.959   .     S
O146   C150    1.290   .     A
O146   Cu158   1.959   .     S
O147   Cu158   1.959   .     S
O147   C149    1.289   .     A
O148   C150    1.289   .     A
O148   Cu157   1.959   .     S
C149   C170    1.446   .     S
C150   C169    1.446   .     S
O151   Cu157   1.976   .     S
O151   C155    1.280   .     A
O152   C156    1.280   .     A
O152   Cu158   1.976   .     S
O153   Cu158   1.973   .     S
O153   C155    1.292   .     A
O154   C156    1.292   .     A
O154   Cu157   1.973   .     S
C155   C161    1.438   .     S
C156   C162    1.438   .     S
Cu157  Cu158   2.677   .     S
Cu157  N159    2.012   .     S
Cu158  N160    2.012   .     S
N159   C175    1.367   .     A
N159   C172    1.367   .     A
N160   C171    1.367   .     A
N160   C176    1.367   .     A
C161   C258    1.364   1_455 S
C161   C275    1.522   1_455 S
C162   C209    1.364   .     S
C162   C231    1.522   .     S
C163   C170    1.399   .     A
C163   H165    1.085   .     S
C164   C169    1.399   .     A
C164   H166    1.085   .     S
C164   C312    1.390   .     S
C167   N187    1.439   .     S
C167   C169    1.410   .     A
C167   C307    1.390   .     S
C168   N190    1.439   .     S
C168   C170    1.410   .     A
C171   H173    1.082   .     S
C171   C1039   1.417   1_554 S
C172   H174    1.082   .     S
C172   C608    1.417   .     S
C175   H177    1.082   .     S
C175   C603    1.417   .     S
C176   H178    1.082   .     S
C176   C1036   1.417   1_554 S
C179   H181    1.111   .     S
C179   H182    1.110   .     S
C179   C209    1.522   .     S
C179   H228    1.111   .     S
H180   C275    1.111   1_455 S
C183   H185    1.110   .     S
C183   H186    1.111   .     S
C183   C258    1.522   1_455 S
C183   H280    1.111   1_455 S
H184   C231    1.111   .     S
N187   O188    1.302   .     A
N187   O189    1.302   .     A
N190   O192    1.302   .     A
N190   O191    1.302   .     A
O193   C197    1.290   .     A
O193   Cu205   1.959   .     S
O194   C198    1.290   .     A
O194   Cu206   1.959   .     S
O195   Cu206   1.959   .     S
O195   C197    1.289   .     A
O196   C198    1.289   .     A
O196   Cu205   1.959   .     S
C197   C218    1.446   .     S
C198   C217    1.446   .     S
O199   Cu205   1.976   .     S
O199   C203    1.280   .     A
O200   C204    1.280   .     A
O200   Cu206   1.976   .     S
O201   Cu206   1.973   .     S
O201   C203    1.292   .     A
O202   C204    1.292   .     A
O202   Cu205   1.973   .     S
C203   C209    1.438   .     S
C204   C210    1.438   .     S
Cu205  Cu206   2.677   .     S
Cu205  N207    2.012   .     S
Cu206  N208    2.012   .     S
N207   C223    1.367   .     A
N207   C220    1.367   .     A
N208   C219    1.367   .     A
N208   C224    1.367   .     A
C210   C257    1.364   .     S
C210   C279    1.522   .     S
C211   C218    1.399   .     A
C211   H213    1.085   .     S
C212   C217    1.399   .     A
C212   H214    1.085   .     S
C212   C360    1.390   .     S
C215   N235    1.439   .     S
C215   C217    1.410   .     A
C215   C355    1.390   .     S
C216   N238    1.439   .     S
C216   C218    1.410   .     A
C219   H221    1.082   .     S
C219   C1087   1.417   1_554 S
C220   H222    1.082   .     S
C220   C656    1.417   .     S
C223   H225    1.082   .     S
C223   C651    1.417   .     S
C224   H226    1.082   .     S
C224   C1084   1.417   1_554 S
C227   H229    1.111   .     S
C227   H230    1.110   .     S
C227   C257    1.522   .     S
C227   H276    1.111   .     S
C231   H233    1.110   .     S
C231   H234    1.111   .     S
H232   C279    1.111   .     S
N235   O236    1.302   .     A
N235   O237    1.302   .     A
N238   O240    1.302   .     A
N238   O239    1.302   .     A
O241   C245    1.290   .     A
O241   Cu253   1.959   .     S
O242   C246    1.290   .     A
O242   Cu254   1.959   .     S
O243   Cu254   1.959   .     S
O243   C245    1.289   .     A
O244   C246    1.289   .     A
O244   Cu253   1.959   .     S
C245   C266    1.446   .     S
C246   C265    1.446   .     S
O247   Cu253   1.976   .     S
O247   C251    1.280   .     A
O248   C252    1.280   .     A
O248   Cu254   1.976   .     S
O249   Cu254   1.973   .     S
O249   C251    1.292   .     A
O250   C252    1.292   .     A
O250   Cu253   1.973   .     S
C251   C257    1.438   .     S
C252   C258    1.438   .     S
Cu253  Cu254   2.677   .     S
Cu253  N255    2.012   .     S
Cu254  N256    2.012   .     S
N255   C271    1.367   .     A
N255   C268    1.367   .     A
N256   C267    1.367   .     A
N256   C272    1.367   .     A
C258   C161    1.364   1_655 S
C258   C183    1.522   1_655 S
C259   C266    1.399   .     A
C259   H261    1.085   .     S
C260   C265    1.399   .     A
C260   H262    1.085   .     S
C260   C408    1.390   .     S
C263   N283    1.439   .     S
C263   C265    1.410   .     A
C263   C403    1.390   .     S
C264   N286    1.439   .     S
C264   C266    1.410   .     A
C267   H269    1.082   .     S
C267   C1135   1.417   1_554 S
C268   H270    1.082   .     S
C268   C704    1.417   .     S
C271   H273    1.082   .     S
C271   C699    1.417   .     S
C272   H274    1.082   .     S
C272   C1132   1.417   1_554 S
C275   H277    1.111   .     S
C275   H278    1.110   .     S
C275   C161    1.522   1_655 S
C275   H180    1.111   1_655 S
C279   H281    1.110   .     S
C279   H282    1.111   .     S
H280   C183    1.111   1_655 S
N283   O284    1.302   .     A
N283   O285    1.302   .     A
N286   O288    1.302   .     A
N286   O287    1.302   .     A
O289   C293    1.290   .     A
O289   Cu301   1.959   .     S
O290   C294    1.290   .     A
O290   Cu302   1.959   .     S
O291   Cu302   1.959   .     S
O291   C293    1.289   .     A
O292   C294    1.289   .     A
O292   Cu301   1.959   .     S
C293   C314    1.446   .     S
C294   C313    1.446   .     S
O295   Cu301   1.976   .     S
O295   C299    1.280   .     A
O296   C300    1.280   .     A
O296   Cu302   1.976   .     S
O297   Cu302   1.973   .     S
O297   C299    1.292   .     A
O298   C300    1.292   .     A
O298   Cu301   1.973   .     S
C299   C305    1.438   .     S
C300   C306    1.438   .     S
Cu301  Cu302   2.677   .     S
Cu301  N303    2.012   .     S
Cu302  N304    2.012   .     S
N303   C319    1.367   .     A
N303   C316    1.367   .     A
N304   C315    1.367   .     A
N304   C320    1.367   .     A
C305   C402    1.364   1_455 S
C305   C419    1.522   1_455 S
C306   C353    1.364   .     S
C306   C375    1.522   .     S
C307   C314    1.399   .     A
C307   H309    1.085   .     S
C308   C313    1.399   .     A
C308   H310    1.085   .     S
C308   C24     1.390   1_565 S
C311   N331    1.439   .     S
C311   C313    1.410   .     A
C311   C19     1.390   1_565 S
C312   N334    1.439   .     S
C312   C314    1.410   .     A
C315   H317    1.082   .     S
C315   C1183   1.417   1_554 S
C316   H318    1.082   .     S
C316   C752    1.417   .     S
C319   H321    1.082   .     S
C319   C747    1.417   .     S
C320   H322    1.082   .     S
C320   C1180   1.417   1_554 S
C323   H325    1.111   .     S
C323   H326    1.110   .     S
C323   C353    1.522   .     S
C323   H372    1.111   .     S
H324   C419    1.111   1_455 S
C327   H329    1.110   .     S
C327   H330    1.111   .     S
C327   C402    1.522   1_455 S
C327   H424    1.111   1_455 S
H328   C375    1.111   .     S
N331   O332    1.302   .     A
N331   O333    1.302   .     A
N334   O336    1.302   .     A
N334   O335    1.302   .     A
O337   C341    1.290   .     A
O337   Cu349   1.959   .     S
O338   C342    1.290   .     A
O338   Cu350   1.959   .     S
O339   Cu350   1.959   .     S
O339   C341    1.289   .     A
O340   C342    1.289   .     A
O340   Cu349   1.959   .     S
C341   C362    1.446   .     S
C342   C361    1.446   .     S
O343   Cu349   1.976   .     S
O343   C347    1.280   .     A
O344   C348    1.280   .     A
O344   Cu350   1.976   .     S
O345   Cu350   1.973   .     S
O345   C347    1.292   .     A
O346   C348    1.292   .     A
O346   Cu349   1.973   .     S
C347   C353    1.438   .     S
C348   C354    1.438   .     S
Cu349  Cu350   2.677   .     S
Cu349  N351    2.012   .     S
Cu350  N352    2.012   .     S
N351   C367    1.367   .     A
N351   C364    1.367   .     A
N352   C363    1.367   .     A
N352   C368    1.367   .     A
C354   C401    1.364   .     S
C354   C423    1.522   .     S
C355   C362    1.399   .     A
C355   H357    1.085   .     S
C356   C361    1.399   .     A
C356   H358    1.085   .     S
C356   C72     1.390   1_565 S
C359   N379    1.439   .     S
C359   C361    1.410   .     A
C359   C67     1.390   1_565 S
C360   N382    1.439   .     S
C360   C362    1.410   .     A
C363   H365    1.082   .     S
C363   C1231   1.417   1_554 S
C364   H366    1.082   .     S
C364   C800    1.417   .     S
C367   H369    1.082   .     S
C367   C795    1.417   .     S
C368   H370    1.082   .     S
C368   C1228   1.417   1_554 S
C371   H373    1.111   .     S
C371   H374    1.110   .     S
C371   C401    1.522   .     S
C371   H420    1.111   .     S
C375   H377    1.110   .     S
C375   H378    1.111   .     S
H376   C423    1.111   .     S
N379   O380    1.302   .     A
N379   O381    1.302   .     A
N382   O384    1.302   .     A
N382   O383    1.302   .     A
O385   C389    1.290   .     A
O385   Cu397   1.959   .     S
O386   C390    1.290   .     A
O386   Cu398   1.959   .     S
O387   Cu398   1.959   .     S
O387   C389    1.289   .     A
O388   C390    1.289   .     A
O388   Cu397   1.959   .     S
C389   C410    1.446   .     S
C390   C409    1.446   .     S
O391   Cu397   1.976   .     S
O391   C395    1.280   .     A
O392   C396    1.280   .     A
O392   Cu398   1.976   .     S
O393   Cu398   1.973   .     S
O393   C395    1.292   .     A
O394   C396    1.292   .     A
O394   Cu397   1.973   .     S
C395   C401    1.438   .     S
C396   C402    1.438   .     S
Cu397  Cu398   2.677   .     S
Cu397  N399    2.012   .     S
Cu398  N400    2.012   .     S
N399   C415    1.367   .     A
N399   C412    1.367   .     A
N400   C411    1.367   .     A
N400   C416    1.367   .     A
C402   C305    1.364   1_655 S
C402   C327    1.522   1_655 S
C403   C410    1.399   .     A
C403   H405    1.085   .     S
C404   C409    1.399   .     A
C404   H406    1.085   .     S
C404   C120    1.390   1_565 S
C407   N427    1.439   .     S
C407   C409    1.410   .     A
C407   C115    1.390   1_565 S
C408   N430    1.439   .     S
C408   C410    1.410   .     A
C411   H413    1.082   .     S
C411   C1279   1.417   1_554 S
C412   H414    1.082   .     S
C412   C848    1.417   .     S
C415   H417    1.082   .     S
C415   C843    1.417   .     S
C416   H418    1.082   .     S
C416   C1276   1.417   1_554 S
C419   H421    1.111   .     S
C419   H422    1.110   .     S
C419   C305    1.522   1_655 S
C419   H324    1.111   1_655 S
C423   H425    1.110   .     S
C423   H426    1.111   .     S
H424   C327    1.111   1_655 S
N427   O428    1.302   .     A
N427   O429    1.302   .     A
N430   O432    1.302   .     A
N430   O431    1.302   .     A
O433   C437    1.290   .     A
O433   Cu445   1.959   .     S
O434   C438    1.290   .     A
O434   Cu446   1.959   .     S
O435   Cu446   1.959   .     S
O435   C437    1.289   .     A
O436   C438    1.289   .     A
O436   Cu445   1.959   .     S
C437   C458    1.446   .     S
C438   C457    1.446   .     S
O439   Cu445   1.976   .     S
O439   C443    1.280   .     A
O440   C444    1.280   .     A
O440   Cu446   1.976   .     S
O441   Cu446   1.973   .     S
O441   C443    1.292   .     A
O442   C444    1.292   .     A
O442   Cu445   1.973   .     S
C443   C449    1.438   .     S
C444   C450    1.438   .     S
Cu445  Cu446   2.677   .     S
Cu445  N447    2.012   .     S
Cu446  N448    2.012   .     S
N447   C463    1.367   .     A
N447   C460    1.367   .     A
N448   C459    1.367   .     A
N448   C464    1.367   .     A
C449   C546    1.364   1_455 S
C449   C563    1.522   1_455 S
C450   C497    1.364   .     S
C450   C519    1.522   .     S
C451   C458    1.399   .     A
C451   H453    1.085   .     S
C451   C743    1.390   1_545 S
C452   C457    1.399   .     A
C452   H454    1.085   .     S
C452   C600    1.390   .     S
C455   N475    1.439   .     S
C455   C457    1.410   .     A
C455   C595    1.390   .     S
C456   N478    1.439   .     S
C456   C458    1.410   .     A
C456   C740    1.390   1_545 S
C459   H461    1.082   .     S
C460   H462    1.082   .     S
C460   C896    1.417   .     S
C463   H465    1.082   .     S
C463   C891    1.417   .     S
C464   H466    1.082   .     S
C467   H469    1.111   .     S
C467   H470    1.110   .     S
C467   C497    1.522   .     S
C467   H516    1.111   .     S
H468   C563    1.111   1_455 S
C471   H473    1.110   .     S
C471   H474    1.111   .     S
C471   C546    1.522   1_455 S
C471   H568    1.111   1_455 S
H472   C519    1.111   .     S
N475   O476    1.302   .     A
N475   O477    1.302   .     A
N478   O480    1.302   .     A
N478   O479    1.302   .     A
O481   C485    1.290   .     A
O481   Cu493   1.959   .     S
O482   C486    1.290   .     A
O482   Cu494   1.959   .     S
O483   Cu494   1.959   .     S
O483   C485    1.289   .     A
O484   C486    1.289   .     A
O484   Cu493   1.959   .     S
C485   C506    1.446   .     S
C486   C505    1.446   .     S
O487   Cu493   1.976   .     S
O487   C491    1.280   .     A
O488   C492    1.280   .     A
O488   Cu494   1.976   .     S
O489   Cu494   1.973   .     S
O489   C491    1.292   .     A
O490   C492    1.292   .     A
O490   Cu493   1.973   .     S
C491   C497    1.438   .     S
C492   C498    1.438   .     S
Cu493  Cu494   2.677   .     S
Cu493  N495    2.012   .     S
Cu494  N496    2.012   .     S
N495   C511    1.367   .     A
N495   C508    1.367   .     A
N496   C507    1.367   .     A
N496   C512    1.367   .     A
C498   C545    1.364   .     S
C498   C567    1.522   .     S
C499   C506    1.399   .     A
C499   H501    1.085   .     S
C499   C791    1.390   1_545 S
C500   C505    1.399   .     A
C500   H502    1.085   .     S
C500   C648    1.390   .     S
C503   N523    1.439   .     S
C503   C505    1.410   .     A
C503   C643    1.390   .     S
C504   N526    1.439   .     S
C504   C506    1.410   .     A
C504   C788    1.390   1_545 S
C507   H509    1.082   .     S
C508   H510    1.082   .     S
C508   C944    1.417   .     S
C511   H513    1.082   .     S
C511   C939    1.417   .     S
C512   H514    1.082   .     S
C515   H517    1.111   .     S
C515   H518    1.110   .     S
C515   C545    1.522   .     S
C515   H564    1.111   .     S
C519   H521    1.110   .     S
C519   H522    1.111   .     S
H520   C567    1.111   .     S
N523   O524    1.302   .     A
N523   O525    1.302   .     A
N526   O528    1.302   .     A
N526   O527    1.302   .     A
O529   C533    1.290   .     A
O529   Cu541   1.959   .     S
O530   C534    1.290   .     A
O530   Cu542   1.959   .     S
O531   Cu542   1.959   .     S
O531   C533    1.289   .     A
O532   C534    1.289   .     A
O532   Cu541   1.959   .     S
C533   C554    1.446   .     S
C534   C553    1.446   .     S
O535   Cu541   1.976   .     S
O535   C539    1.280   .     A
O536   C540    1.280   .     A
O536   Cu542   1.976   .     S
O537   Cu542   1.973   .     S
O537   C539    1.292   .     A
O538   C540    1.292   .     A
O538   Cu541   1.973   .     S
C539   C545    1.438   .     S
C540   C546    1.438   .     S
Cu541  Cu542   2.677   .     S
Cu541  N543    2.012   .     S
Cu542  N544    2.012   .     S
N543   C559    1.367   .     A
N543   C556    1.367   .     A
N544   C555    1.367   .     A
N544   C560    1.367   .     A
C546   C449    1.364   1_655 S
C546   C471    1.522   1_655 S
C547   C554    1.399   .     A
C547   H549    1.085   .     S
C547   C839    1.390   1_545 S
C548   C553    1.399   .     A
C548   H550    1.085   .     S
C548   C696    1.390   .     S
C551   N571    1.439   .     S
C551   C553    1.410   .     A
C551   C691    1.390   .     S
C552   N574    1.439   .     S
C552   C554    1.410   .     A
C552   C836    1.390   1_545 S
C555   H557    1.082   .     S
C556   H558    1.082   .     S
C556   C992    1.417   .     S
C559   H561    1.082   .     S
C559   C987    1.417   .     S
C560   H562    1.082   .     S
C563   H565    1.111   .     S
C563   H566    1.110   .     S
C563   C449    1.522   1_655 S
C563   H468    1.111   1_655 S
C567   H569    1.110   .     S
C567   H570    1.111   .     S
H568   C471    1.111   1_655 S
N571   O572    1.302   .     A
N571   O573    1.302   .     A
N574   O576    1.302   .     A
N574   O575    1.302   .     A
O577   C581    1.290   .     A
O577   Cu589   1.959   .     S
O578   C582    1.290   .     A
O578   Cu590   1.959   .     S
O579   Cu590   1.959   .     S
O579   C581    1.289   .     A
O580   C582    1.289   .     A
O580   Cu589   1.959   .     S
C581   C602    1.446   .     S
C582   C601    1.446   .     S
O583   Cu589   1.976   .     S
O583   C587    1.280   .     A
O584   C588    1.280   .     A
O584   Cu590   1.976   .     S
O585   Cu590   1.973   .     S
O585   C587    1.292   .     A
O586   C588    1.292   .     A
O586   Cu589   1.973   .     S
C587   C593    1.438   .     S
C588   C594    1.438   .     S
Cu589  Cu590   2.677   .     S
Cu589  N591    2.012   .     S
Cu590  N592    2.012   .     S
N591   C607    1.367   .     A
N591   C604    1.367   .     A
N592   C603    1.367   .     A
N592   C608    1.367   .     A
C593   C690    1.364   1_455 S
C593   C707    1.522   1_455 S
C594   C641    1.364   .     S
C594   C663    1.522   .     S
C595   C602    1.399   .     A
C595   H597    1.085   .     S
C596   C601    1.399   .     A
C596   H598    1.085   .     S
C596   C744    1.390   .     S
C599   N619    1.439   .     S
C599   C601    1.410   .     A
C599   C739    1.390   .     S
C600   N622    1.439   .     S
C600   C602    1.410   .     A
C603   H605    1.082   .     S
C604   H606    1.082   .     S
C604   C1040   1.417   .     S
C607   H609    1.082   .     S
C607   C1035   1.417   .     S
C608   H610    1.082   .     S
C611   H613    1.111   .     S
C611   H614    1.110   .     S
C611   C641    1.522   .     S
C611   H660    1.111   .     S
H612   C707    1.111   1_455 S
C615   H617    1.110   .     S
C615   H618    1.111   .     S
C615   C690    1.522   1_455 S
C615   H712    1.111   1_455 S
H616   C663    1.111   .     S
N619   O620    1.302   .     A
N619   O621    1.302   .     A
N622   O624    1.302   .     A
N622   O623    1.302   .     A
O625   C629    1.290   .     A
O625   Cu637   1.959   .     S
O626   C630    1.290   .     A
O626   Cu638   1.959   .     S
O627   Cu638   1.959   .     S
O627   C629    1.289   .     A
O628   C630    1.289   .     A
O628   Cu637   1.959   .     S
C629   C650    1.446   .     S
C630   C649    1.446   .     S
O631   Cu637   1.976   .     S
O631   C635    1.280   .     A
O632   C636    1.280   .     A
O632   Cu638   1.976   .     S
O633   Cu638   1.973   .     S
O633   C635    1.292   .     A
O634   C636    1.292   .     A
O634   Cu637   1.973   .     S
C635   C641    1.438   .     S
C636   C642    1.438   .     S
Cu637  Cu638   2.677   .     S
Cu637  N639    2.012   .     S
Cu638  N640    2.012   .     S
N639   C655    1.367   .     A
N639   C652    1.367   .     A
N640   C651    1.367   .     A
N640   C656    1.367   .     A
C642   C689    1.364   .     S
C642   C711    1.522   .     S
C643   C650    1.399   .     A
C643   H645    1.085   .     S
C644   C649    1.399   .     A
C644   H646    1.085   .     S
C644   C792    1.390   .     S
C647   N667    1.439   .     S
C647   C649    1.410   .     A
C647   C787    1.390   .     S
C648   N670    1.439   .     S
C648   C650    1.410   .     A
C651   H653    1.082   .     S
C652   H654    1.082   .     S
C652   C1088   1.417   .     S
C655   H657    1.082   .     S
C655   C1083   1.417   .     S
C656   H658    1.082   .     S
C659   H661    1.111   .     S
C659   H662    1.110   .     S
C659   C689    1.522   .     S
C659   H708    1.111   .     S
C663   H665    1.110   .     S
C663   H666    1.111   .     S
H664   C711    1.111   .     S
N667   O668    1.302   .     A
N667   O669    1.302   .     A
N670   O672    1.302   .     A
N670   O671    1.302   .     A
O673   C677    1.290   .     A
O673   Cu685   1.959   .     S
O674   C678    1.290   .     A
O674   Cu686   1.959   .     S
O675   Cu686   1.959   .     S
O675   C677    1.289   .     A
O676   C678    1.289   .     A
O676   Cu685   1.959   .     S
C677   C698    1.446   .     S
C678   C697    1.446   .     S
O679   Cu685   1.976   .     S
O679   C683    1.280   .     A
O680   C684    1.280   .     A
O680   Cu686   1.976   .     S
O681   Cu686   1.973   .     S
O681   C683    1.292   .     A
O682   C684    1.292   .     A
O682   Cu685   1.973   .     S
C683   C689    1.438   .     S
C684   C690    1.438   .     S
Cu685  Cu686   2.677   .     S
Cu685  N687    2.012   .     S
Cu686  N688    2.012   .     S
N687   C703    1.367   .     A
N687   C700    1.367   .     A
N688   C699    1.367   .     A
N688   C704    1.367   .     A
C690   C593    1.364   1_655 S
C690   C615    1.522   1_655 S
C691   C698    1.399   .     A
C691   H693    1.085   .     S
C692   C697    1.399   .     A
C692   H694    1.085   .     S
C692   C840    1.390   .     S
C695   N715    1.439   .     S
C695   C697    1.410   .     A
C695   C835    1.390   .     S
C696   N718    1.439   .     S
C696   C698    1.410   .     A
C699   H701    1.082   .     S
C700   H702    1.082   .     S
C700   C1136   1.417   .     S
C703   H705    1.082   .     S
C703   C1131   1.417   .     S
C704   H706    1.082   .     S
C707   H709    1.111   .     S
C707   H710    1.110   .     S
C707   C593    1.522   1_655 S
C707   H612    1.111   1_655 S
C711   H713    1.110   .     S
C711   H714    1.111   .     S
H712   C615    1.111   1_655 S
N715   O716    1.302   .     A
N715   O717    1.302   .     A
N718   O720    1.302   .     A
N718   O719    1.302   .     A
O721   C725    1.290   .     A
O721   Cu733   1.959   .     S
O722   C726    1.290   .     A
O722   Cu734   1.959   .     S
O723   Cu734   1.959   .     S
O723   C725    1.289   .     A
O724   C726    1.289   .     A
O724   Cu733   1.959   .     S
C725   C746    1.446   .     S
C726   C745    1.446   .     S
O727   Cu733   1.976   .     S
O727   C731    1.280   .     A
O728   C732    1.280   .     A
O728   Cu734   1.976   .     S
O729   Cu734   1.973   .     S
O729   C731    1.292   .     A
O730   C732    1.292   .     A
O730   Cu733   1.973   .     S
C731   C737    1.438   .     S
C732   C738    1.438   .     S
Cu733  Cu734   2.677   .     S
Cu733  N735    2.012   .     S
Cu734  N736    2.012   .     S
N735   C751    1.367   .     A
N735   C748    1.367   .     A
N736   C747    1.367   .     A
N736   C752    1.367   .     A
C737   C834    1.364   1_455 S
C737   C851    1.522   1_455 S
C738   C785    1.364   .     S
C738   C807    1.522   .     S
C739   C746    1.399   .     A
C739   H741    1.085   .     S
C740   C745    1.399   .     A
C740   H742    1.085   .     S
C740   C456    1.390   1_565 S
C743   N763    1.439   .     S
C743   C745    1.410   .     A
C743   C451    1.390   1_565 S
C744   N766    1.439   .     S
C744   C746    1.410   .     A
C747   H749    1.082   .     S
C748   H750    1.082   .     S
C748   C1184   1.417   .     S
C751   H753    1.082   .     S
C751   C1179   1.417   .     S
C752   H754    1.082   .     S
C755   H757    1.111   .     S
C755   H758    1.110   .     S
C755   C785    1.522   .     S
C755   H804    1.111   .     S
H756   C851    1.111   1_455 S
C759   H761    1.110   .     S
C759   H762    1.111   .     S
C759   C834    1.522   1_455 S
C759   H856    1.111   1_455 S
H760   C807    1.111   .     S
N763   O764    1.302   .     A
N763   O765    1.302   .     A
N766   O768    1.302   .     A
N766   O767    1.302   .     A
O769   C773    1.290   .     A
O769   Cu781   1.959   .     S
O770   C774    1.290   .     A
O770   Cu782   1.959   .     S
O771   Cu782   1.959   .     S
O771   C773    1.289   .     A
O772   C774    1.289   .     A
O772   Cu781   1.959   .     S
C773   C794    1.446   .     S
C774   C793    1.446   .     S
O775   Cu781   1.976   .     S
O775   C779    1.280   .     A
O776   C780    1.280   .     A
O776   Cu782   1.976   .     S
O777   Cu782   1.973   .     S
O777   C779    1.292   .     A
O778   C780    1.292   .     A
O778   Cu781   1.973   .     S
C779   C785    1.438   .     S
C780   C786    1.438   .     S
Cu781  Cu782   2.677   .     S
Cu781  N783    2.012   .     S
Cu782  N784    2.012   .     S
N783   C799    1.367   .     A
N783   C796    1.367   .     A
N784   C795    1.367   .     A
N784   C800    1.367   .     A
C786   C833    1.364   .     S
C786   C855    1.522   .     S
C787   C794    1.399   .     A
C787   H789    1.085   .     S
C788   C793    1.399   .     A
C788   H790    1.085   .     S
C788   C504    1.390   1_565 S
C791   N811    1.439   .     S
C791   C793    1.410   .     A
C791   C499    1.390   1_565 S
C792   N814    1.439   .     S
C792   C794    1.410   .     A
C795   H797    1.082   .     S
C796   H798    1.082   .     S
C796   C1232   1.417   .     S
C799   H801    1.082   .     S
C799   C1227   1.417   .     S
C800   H802    1.082   .     S
C803   H805    1.111   .     S
C803   H806    1.110   .     S
C803   C833    1.522   .     S
C803   H852    1.111   .     S
C807   H809    1.110   .     S
C807   H810    1.111   .     S
H808   C855    1.111   .     S
N811   O812    1.302   .     A
N811   O813    1.302   .     A
N814   O816    1.302   .     A
N814   O815    1.302   .     A
O817   C821    1.290   .     A
O817   Cu829   1.959   .     S
O818   C822    1.290   .     A
O818   Cu830   1.959   .     S
O819   Cu830   1.959   .     S
O819   C821    1.289   .     A
O820   C822    1.289   .     A
O820   Cu829   1.959   .     S
C821   C842    1.446   .     S
C822   C841    1.446   .     S
O823   Cu829   1.976   .     S
O823   C827    1.280   .     A
O824   C828    1.280   .     A
O824   Cu830   1.976   .     S
O825   Cu830   1.973   .     S
O825   C827    1.292   .     A
O826   C828    1.292   .     A
O826   Cu829   1.973   .     S
C827   C833    1.438   .     S
C828   C834    1.438   .     S
Cu829  Cu830   2.677   .     S
Cu829  N831    2.012   .     S
Cu830  N832    2.012   .     S
N831   C847    1.367   .     A
N831   C844    1.367   .     A
N832   C843    1.367   .     A
N832   C848    1.367   .     A
C834   C737    1.364   1_655 S
C834   C759    1.522   1_655 S
C835   C842    1.399   .     A
C835   H837    1.085   .     S
C836   C841    1.399   .     A
C836   H838    1.085   .     S
C836   C552    1.390   1_565 S
C839   N859    1.439   .     S
C839   C841    1.410   .     A
C839   C547    1.390   1_565 S
C840   N862    1.439   .     S
C840   C842    1.410   .     A
C843   H845    1.082   .     S
C844   H846    1.082   .     S
C844   C1280   1.417   .     S
C847   H849    1.082   .     S
C847   C1275   1.417   .     S
C848   H850    1.082   .     S
C851   H853    1.111   .     S
C851   H854    1.110   .     S
C851   C737    1.522   1_655 S
C851   H756    1.111   1_655 S
C855   H857    1.110   .     S
C855   H858    1.111   .     S
H856   C759    1.111   1_655 S
N859   O860    1.302   .     A
N859   O861    1.302   .     A
N862   O864    1.302   .     A
N862   O863    1.302   .     A
O865   C869    1.290   .     A
O865   Cu877   1.959   .     S
O866   C870    1.290   .     A
O866   Cu878   1.959   .     S
O867   Cu878   1.959   .     S
O867   C869    1.289   .     A
O868   C870    1.289   .     A
O868   Cu877   1.959   .     S
C869   C890    1.446   .     S
C870   C889    1.446   .     S
O871   Cu877   1.976   .     S
O871   C875    1.280   .     A
O872   C876    1.280   .     A
O872   Cu878   1.976   .     S
O873   Cu878   1.973   .     S
O873   C875    1.292   .     A
O874   C876    1.292   .     A
O874   Cu877   1.973   .     S
C875   C881    1.438   .     S
C876   C882    1.438   .     S
Cu877  Cu878   2.677   .     S
Cu877  N879    2.012   .     S
Cu878  N880    2.012   .     S
N879   C895    1.367   .     A
N879   C892    1.367   .     A
N880   C891    1.367   .     A
N880   C896    1.367   .     A
C881   C978    1.364   1_455 S
C881   C995    1.522   1_455 S
C882   C929    1.364   .     S
C882   C951    1.522   .     S
C883   C890    1.399   .     A
C883   H885    1.085   .     S
C883   C1175   1.390   1_545 S
C884   C889    1.399   .     A
C884   H886    1.085   .     S
C884   C1032   1.390   .     S
C887   N907    1.439   .     S
C887   C889    1.410   .     A
C887   C1027   1.390   .     S
C888   N910    1.439   .     S
C888   C890    1.410   .     A
C888   C1172   1.390   1_545 S
C891   H893    1.082   .     S
C892   H894    1.082   .     S
C892   C32     1.417   1_556 S
C895   H897    1.082   .     S
C895   C27     1.417   1_556 S
C896   H898    1.082   .     S
C899   H901    1.111   .     S
C899   H902    1.110   .     S
C899   C929    1.522   .     S
C899   H948    1.111   .     S
H900   C995    1.111   1_455 S
C903   H905    1.110   .     S
C903   H906    1.111   .     S
C903   C978    1.522   1_455 S
C903   H1000   1.111   1_455 S
H904   C951    1.111   .     S
N907   O908    1.302   .     A
N907   O909    1.302   .     A
N910   O912    1.302   .     A
N910   O911    1.302   .     A
O913   C917    1.290   .     A
O913   Cu925   1.959   .     S
O914   C918    1.290   .     A
O914   Cu926   1.959   .     S
O915   Cu926   1.959   .     S
O915   C917    1.289   .     A
O916   C918    1.289   .     A
O916   Cu925   1.959   .     S
C917   C938    1.446   .     S
C918   C937    1.446   .     S
O919   Cu925   1.976   .     S
O919   C923    1.280   .     A
O920   C924    1.280   .     A
O920   Cu926   1.976   .     S
O921   Cu926   1.973   .     S
O921   C923    1.292   .     A
O922   C924    1.292   .     A
O922   Cu925   1.973   .     S
C923   C929    1.438   .     S
C924   C930    1.438   .     S
Cu925  Cu926   2.677   .     S
Cu925  N927    2.012   .     S
Cu926  N928    2.012   .     S
N927   C943    1.367   .     A
N927   C940    1.367   .     A
N928   C939    1.367   .     A
N928   C944    1.367   .     A
C930   C977    1.364   .     S
C930   C999    1.522   .     S
C931   C938    1.399   .     A
C931   H933    1.085   .     S
C931   C1223   1.390   1_545 S
C932   C937    1.399   .     A
C932   H934    1.085   .     S
C932   C1080   1.390   .     S
C935   N955    1.439   .     S
C935   C937    1.410   .     A
C935   C1075   1.390   .     S
C936   N958    1.439   .     S
C936   C938    1.410   .     A
C936   C1220   1.390   1_545 S
C939   H941    1.082   .     S
C940   H942    1.082   .     S
C940   C80     1.417   1_556 S
C943   H945    1.082   .     S
C943   C75     1.417   1_556 S
C944   H946    1.082   .     S
C947   H949    1.111   .     S
C947   H950    1.110   .     S
C947   C977    1.522   .     S
C947   H996    1.111   .     S
C951   H953    1.110   .     S
C951   H954    1.111   .     S
H952   C999    1.111   .     S
N955   O956    1.302   .     A
N955   O957    1.302   .     A
N958   O960    1.302   .     A
N958   O959    1.302   .     A
O961   C965    1.290   .     A
O961   Cu973   1.959   .     S
O962   C966    1.290   .     A
O962   Cu974   1.959   .     S
O963   Cu974   1.959   .     S
O963   C965    1.289   .     A
O964   C966    1.289   .     A
O964   Cu973   1.959   .     S
C965   C986    1.446   .     S
C966   C985    1.446   .     S
O967   Cu973   1.976   .     S
O967   C971    1.280   .     A
O968   C972    1.280   .     A
O968   Cu974   1.976   .     S
O969   Cu974   1.973   .     S
O969   C971    1.292   .     A
O970   C972    1.292   .     A
O970   Cu973   1.973   .     S
C971   C977    1.438   .     S
C972   C978    1.438   .     S
Cu973  Cu974   2.677   .     S
Cu973  N975    2.012   .     S
Cu974  N976    2.012   .     S
N975   C991    1.367   .     A
N975   C988    1.367   .     A
N976   C987    1.367   .     A
N976   C992    1.367   .     A
C978   C881    1.364   1_655 S
C978   C903    1.522   1_655 S
C979   C986    1.399   .     A
C979   H981    1.085   .     S
C979   C1271   1.390   1_545 S
C980   C985    1.399   .     A
C980   H982    1.085   .     S
C980   C1128   1.390   .     S
C983   N1003   1.439   .     S
C983   C985    1.410   .     A
C983   C1123   1.390   .     S
C984   N1006   1.439   .     S
C984   C986    1.410   .     A
C984   C1268   1.390   1_545 S
C987   H989    1.082   .     S
C988   H990    1.082   .     S
C988   C128    1.417   1_556 S
C991   H993    1.082   .     S
C991   C123    1.417   1_556 S
C992   H994    1.082   .     S
C995   H997    1.111   .     S
C995   H998    1.110   .     S
C995   C881    1.522   1_655 S
C995   H900    1.111   1_655 S
C999   H1001   1.110   .     S
C999   H1002   1.111   .     S
H1000  C903    1.111   1_655 S
N1003  O1004   1.302   .     A
N1003  O1005   1.302   .     A
N1006  O1008   1.302   .     A
N1006  O1007   1.302   .     A
O1009  C1013   1.290   .     A
O1009  Cu1021  1.959   .     S
O1010  C1014   1.290   .     A
O1010  Cu1022  1.959   .     S
O1011  Cu1022  1.959   .     S
O1011  C1013   1.289   .     A
O1012  C1014   1.289   .     A
O1012  Cu1021  1.959   .     S
C1013  C1034   1.446   .     S
C1014  C1033   1.446   .     S
O1015  Cu1021  1.976   .     S
O1015  C1019   1.280   .     A
O1016  C1020   1.280   .     A
O1016  Cu1022  1.976   .     S
O1017  Cu1022  1.973   .     S
O1017  C1019   1.292   .     A
O1018  C1020   1.292   .     A
O1018  Cu1021  1.973   .     S
C1019  C1025   1.438   .     S
C1020  C1026   1.438   .     S
Cu1021 Cu1022  2.677   .     S
Cu1021 N1023   2.012   .     S
Cu1022 N1024   2.012   .     S
N1023  C1039   1.367   .     A
N1023  C1036   1.367   .     A
N1024  C1035   1.367   .     A
N1024  C1040   1.367   .     A
C1025  C1122   1.364   1_455 S
C1025  C1139   1.522   1_455 S
C1026  C1073   1.364   .     S
C1026  C1095   1.522   .     S
C1027  C1034   1.399   .     A
C1027  H1029   1.085   .     S
C1028  C1033   1.399   .     A
C1028  H1030   1.085   .     S
C1028  C1176   1.390   .     S
C1031  N1051   1.439   .     S
C1031  C1033   1.410   .     A
C1031  C1171   1.390   .     S
C1032  N1054   1.439   .     S
C1032  C1034   1.410   .     A
C1035  H1037   1.082   .     S
C1036  H1038   1.082   .     S
C1036  C176    1.417   1_556 S
C1039  H1041   1.082   .     S
C1039  C171    1.417   1_556 S
C1040  H1042   1.082   .     S
C1043  H1045   1.111   .     S
C1043  H1046   1.110   .     S
C1043  C1073   1.522   .     S
C1043  H1092   1.111   .     S
H1044  C1139   1.111   1_455 S
C1047  H1049   1.110   .     S
C1047  H1050   1.111   .     S
C1047  C1122   1.522   1_455 S
C1047  H1144   1.111   1_455 S
H1048  C1095   1.111   .     S
N1051  O1052   1.302   .     A
N1051  O1053   1.302   .     A
N1054  O1056   1.302   .     A
N1054  O1055   1.302   .     A
O1057  C1061   1.290   .     A
O1057  Cu1069  1.959   .     S
O1058  C1062   1.290   .     A
O1058  Cu1070  1.959   .     S
O1059  Cu1070  1.959   .     S
O1059  C1061   1.289   .     A
O1060  C1062   1.289   .     A
O1060  Cu1069  1.959   .     S
C1061  C1082   1.446   .     S
C1062  C1081   1.446   .     S
O1063  Cu1069  1.976   .     S
O1063  C1067   1.280   .     A
O1064  C1068   1.280   .     A
O1064  Cu1070  1.976   .     S
O1065  Cu1070  1.973   .     S
O1065  C1067   1.292   .     A
O1066  C1068   1.292   .     A
O1066  Cu1069  1.973   .     S
C1067  C1073   1.438   .     S
C1068  C1074   1.438   .     S
Cu1069 Cu1070  2.677   .     S
Cu1069 N1071   2.012   .     S
Cu1070 N1072   2.012   .     S
N1071  C1087   1.367   .     A
N1071  C1084   1.367   .     A
N1072  C1083   1.367   .     A
N1072  C1088   1.367   .     A
C1074  C1121   1.364   .     S
C1074  C1143   1.522   .     S
C1075  C1082   1.399   .     A
C1075  H1077   1.085   .     S
C1076  C1081   1.399   .     A
C1076  H1078   1.085   .     S
C1076  C1224   1.390   .     S
C1079  N1099   1.439   .     S
C1079  C1081   1.410   .     A
C1079  C1219   1.390   .     S
C1080  N1102   1.439   .     S
C1080  C1082   1.410   .     A
C1083  H1085   1.082   .     S
C1084  H1086   1.082   .     S
C1084  C224    1.417   1_556 S
C1087  H1089   1.082   .     S
C1087  C219    1.417   1_556 S
C1088  H1090   1.082   .     S
C1091  H1093   1.111   .     S
C1091  H1094   1.110   .     S
C1091  C1121   1.522   .     S
C1091  H1140   1.111   .     S
C1095  H1097   1.110   .     S
C1095  H1098   1.111   .     S
H1096  C1143   1.111   .     S
N1099  O1100   1.302   .     A
N1099  O1101   1.302   .     A
N1102  O1104   1.302   .     A
N1102  O1103   1.302   .     A
O1105  C1109   1.290   .     A
O1105  Cu1117  1.959   .     S
O1106  C1110   1.290   .     A
O1106  Cu1118  1.959   .     S
O1107  Cu1118  1.959   .     S
O1107  C1109   1.289   .     A
O1108  C1110   1.289   .     A
O1108  Cu1117  1.959   .     S
C1109  C1130   1.446   .     S
C1110  C1129   1.446   .     S
O1111  Cu1117  1.976   .     S
O1111  C1115   1.280   .     A
O1112  C1116   1.280   .     A
O1112  Cu1118  1.976   .     S
O1113  Cu1118  1.973   .     S
O1113  C1115   1.292   .     A
O1114  C1116   1.292   .     A
O1114  Cu1117  1.973   .     S
C1115  C1121   1.438   .     S
C1116  C1122   1.438   .     S
Cu1117 Cu1118  2.677   .     S
Cu1117 N1119   2.012   .     S
Cu1118 N1120   2.012   .     S
N1119  C1135   1.367   .     A
N1119  C1132   1.367   .     A
N1120  C1131   1.367   .     A
N1120  C1136   1.367   .     A
C1122  C1025   1.364   1_655 S
C1122  C1047   1.522   1_655 S
C1123  C1130   1.399   .     A
C1123  H1125   1.085   .     S
C1124  C1129   1.399   .     A
C1124  H1126   1.085   .     S
C1124  C1272   1.390   .     S
C1127  N1147   1.439   .     S
C1127  C1129   1.410   .     A
C1127  C1267   1.390   .     S
C1128  N1150   1.439   .     S
C1128  C1130   1.410   .     A
C1131  H1133   1.082   .     S
C1132  H1134   1.082   .     S
C1132  C272    1.417   1_556 S
C1135  H1137   1.082   .     S
C1135  C267    1.417   1_556 S
C1136  H1138   1.082   .     S
C1139  H1141   1.111   .     S
C1139  H1142   1.110   .     S
C1139  C1025   1.522   1_655 S
C1139  H1044   1.111   1_655 S
C1143  H1145   1.110   .     S
C1143  H1146   1.111   .     S
H1144  C1047   1.111   1_655 S
N1147  O1148   1.302   .     A
N1147  O1149   1.302   .     A
N1150  O1152   1.302   .     A
N1150  O1151   1.302   .     A
O1153  C1157   1.290   .     A
O1153  Cu1165  1.959   .     S
O1154  C1158   1.290   .     A
O1154  Cu1166  1.959   .     S
O1155  Cu1166  1.959   .     S
O1155  C1157   1.289   .     A
O1156  C1158   1.289   .     A
O1156  Cu1165  1.959   .     S
C1157  C1178   1.446   .     S
C1158  C1177   1.446   .     S
O1159  Cu1165  1.976   .     S
O1159  C1163   1.280   .     A
O1160  C1164   1.280   .     A
O1160  Cu1166  1.976   .     S
O1161  Cu1166  1.973   .     S
O1161  C1163   1.292   .     A
O1162  C1164   1.292   .     A
O1162  Cu1165  1.973   .     S
C1163  C1169   1.438   .     S
C1164  C1170   1.438   .     S
Cu1165 Cu1166  2.677   .     S
Cu1165 N1167   2.012   .     S
Cu1166 N1168   2.012   .     S
N1167  C1183   1.367   .     A
N1167  C1180   1.367   .     A
N1168  C1179   1.367   .     A
N1168  C1184   1.367   .     A
C1169  C1266   1.364   1_455 S
C1169  C1283   1.522   1_455 S
C1170  C1217   1.364   .     S
C1170  C1239   1.522   .     S
C1171  C1178   1.399   .     A
C1171  H1173   1.085   .     S
C1172  C1177   1.399   .     A
C1172  H1174   1.085   .     S
C1172  C888    1.390   1_565 S
C1175  N1195   1.439   .     S
C1175  C1177   1.410   .     A
C1175  C883    1.390   1_565 S
C1176  N1198   1.439   .     S
C1176  C1178   1.410   .     A
C1179  H1181   1.082   .     S
C1180  H1182   1.082   .     S
C1180  C320    1.417   1_556 S
C1183  H1185   1.082   .     S
C1183  C315    1.417   1_556 S
C1184  H1186   1.082   .     S
C1187  H1189   1.111   .     S
C1187  H1190   1.110   .     S
C1187  C1217   1.522   .     S
C1187  H1236   1.111   .     S
H1188  C1283   1.111   1_455 S
C1191  H1193   1.110   .     S
C1191  H1194   1.111   .     S
C1191  C1266   1.522   1_455 S
C1191  H1288   1.111   1_455 S
H1192  C1239   1.111   .     S
N1195  O1196   1.302   .     A
N1195  O1197   1.302   .     A
N1198  O1200   1.302   .     A
N1198  O1199   1.302   .     A
O1201  C1205   1.290   .     A
O1201  Cu1213  1.959   .     S
O1202  C1206   1.290   .     A
O1202  Cu1214  1.959   .     S
O1203  Cu1214  1.959   .     S
O1203  C1205   1.289   .     A
O1204  C1206   1.289   .     A
O1204  Cu1213  1.959   .     S
C1205  C1226   1.446   .     S
C1206  C1225   1.446   .     S
O1207  Cu1213  1.976   .     S
O1207  C1211   1.280   .     A
O1208  C1212   1.280   .     A
O1208  Cu1214  1.976   .     S
O1209  Cu1214  1.973   .     S
O1209  C1211   1.292   .     A
O1210  C1212   1.292   .     A
O1210  Cu1213  1.973   .     S
C1211  C1217   1.438   .     S
C1212  C1218   1.438   .     S
Cu1213 Cu1214  2.677   .     S
Cu1213 N1215   2.012   .     S
Cu1214 N1216   2.012   .     S
N1215  C1231   1.367   .     A
N1215  C1228   1.367   .     A
N1216  C1227   1.367   .     A
N1216  C1232   1.367   .     A
C1218  C1265   1.364   .     S
C1218  C1287   1.522   .     S
C1219  C1226   1.399   .     A
C1219  H1221   1.085   .     S
C1220  C1225   1.399   .     A
C1220  H1222   1.085   .     S
C1220  C936    1.390   1_565 S
C1223  N1243   1.439   .     S
C1223  C1225   1.410   .     A
C1223  C931    1.390   1_565 S
C1224  N1246   1.439   .     S
C1224  C1226   1.410   .     A
C1227  H1229   1.082   .     S
C1228  H1230   1.082   .     S
C1228  C368    1.417   1_556 S
C1231  H1233   1.082   .     S
C1231  C363    1.417   1_556 S
C1232  H1234   1.082   .     S
C1235  H1237   1.111   .     S
C1235  H1238   1.110   .     S
C1235  C1265   1.522   .     S
C1235  H1284   1.111   .     S
C1239  H1241   1.110   .     S
C1239  H1242   1.111   .     S
H1240  C1287   1.111   .     S
N1243  O1244   1.302   .     A
N1243  O1245   1.302   .     A
N1246  O1248   1.302   .     A
N1246  O1247   1.302   .     A
O1249  C1253   1.290   .     A
O1249  Cu1261  1.959   .     S
O1250  C1254   1.290   .     A
O1250  Cu1262  1.959   .     S
O1251  Cu1262  1.959   .     S
O1251  C1253   1.289   .     A
O1252  C1254   1.289   .     A
O1252  Cu1261  1.959   .     S
C1253  C1274   1.446   .     S
C1254  C1273   1.446   .     S
O1255  Cu1261  1.976   .     S
O1255  C1259   1.280   .     A
O1256  C1260   1.280   .     A
O1256  Cu1262  1.976   .     S
O1257  Cu1262  1.973   .     S
O1257  C1259   1.292   .     A
O1258  C1260   1.292   .     A
O1258  Cu1261  1.973   .     S
C1259  C1265   1.438   .     S
C1260  C1266   1.438   .     S
Cu1261 Cu1262  2.677   .     S
Cu1261 N1263   2.012   .     S
Cu1262 N1264   2.012   .     S
N1263  C1279   1.367   .     A
N1263  C1276   1.367   .     A
N1264  C1275   1.367   .     A
N1264  C1280   1.367   .     A
C1266  C1169   1.364   1_655 S
C1266  C1191   1.522   1_655 S
C1267  C1274   1.399   .     A
C1267  H1269   1.085   .     S
C1268  C1273   1.399   .     A
C1268  H1270   1.085   .     S
C1268  C984    1.390   1_565 S
C1271  N1291   1.439   .     S
C1271  C1273   1.410   .     A
C1271  C979    1.390   1_565 S
C1272  N1294   1.439   .     S
C1272  C1274   1.410   .     A
C1275  H1277   1.082   .     S
C1276  H1278   1.082   .     S
C1276  C416    1.417   1_556 S
C1279  H1281   1.082   .     S
C1279  C411    1.417   1_556 S
C1280  H1282   1.082   .     S
C1283  H1285   1.111   .     S
C1283  H1286   1.110   .     S
C1283  C1169   1.522   1_655 S
C1283  H1188   1.111   1_655 S
C1287  H1289   1.110   .     S
C1287  H1290   1.111   .     S
H1288  C1191   1.111   1_655 S
N1291  O1292   1.302   .     A
N1291  O1293   1.302   .     A
N1294  O1296   1.302   .     A
N1294  O1295   1.302   .     A
