data_str_m2_o1_o16_pcu_sym.12
_audit_creation_date              2020-01-03
_audit_creation_method            'Materials Studio'
_symmetry_space_group_name_H-M    'P1'
_symmetry_Int_Tables_number       1
_symmetry_cell_setting            triclinic
loop_
_symmetry_equiv_pos_as_xyz
  x,y,z
_cell_length_a                    28.9003
_cell_length_b                    32.4942
_cell_length_c                    26.8706
_cell_angle_alpha                 91.3060
_cell_angle_beta                  74.3639
_cell_angle_gamma                 90.1845
loop_
_atom_site_label
_atom_site_type_symbol
_atom_site_fract_x
_atom_site_fract_y
_atom_site_fract_z
_atom_site_U_iso_or_equiv
_atom_site_adp_type
_atom_site_occupancy
C1     C     0.16706   0.24587   0.24916   0.00000  Uiso   1.00
C2     C     0.12484   0.18109   0.40667   0.00000  Uiso   1.00
C3     C     0.21187   0.31226   0.23456   0.00000  Uiso   1.00
C4     C     0.14092   0.17065   0.34985   0.00000  Uiso   1.00
C5     C     0.21083   0.02185   0.23547   0.00000  Uiso   1.00
C6     C     0.16695   0.04294   0.24872   0.00000  Uiso   1.00
C7     C     0.12362   0.02132   0.26075   0.00000  Uiso   1.00
C8     C     0.12410   0.31211   0.26044   0.00000  Uiso   1.00
C9     C     0.16789   0.29065   0.24787   0.00000  Uiso   1.00
C10    C     0.30260   0.19745   0.27364   0.00000  Uiso   1.00
C11    C     0.01764   0.19706   0.27561   0.00000  Uiso   1.00
C12    C     0.14375   0.18740   0.48983   0.00000  Uiso   1.00
C13    C     0.03106   0.13717   0.22284   0.00000  Uiso   1.00
C14    C     0.31477   0.13665   0.22424   0.00000  Uiso   1.00
C15    C     0.16667   0.08753   0.24970   0.00000  Uiso   1.00
C16    C     0.19198   0.16541   0.15023   0.00000  Uiso   1.00
C17    C     0.26262   0.16416   0.00949   0.00000  Uiso   1.00
C18    C     0.20491   0.16558   0.09338   0.00000  Uiso   1.00
C19    C     0.07527   0.18261   0.43376   0.00000  Uiso   1.00
C20    C     0.06149   0.19529   0.48627   0.00000  Uiso   1.00
C21    C     0.09486   0.19343   0.01491   0.00000  Uiso   1.00
C22    C     0.28979   0.14261   0.08293   0.00000  Uiso   1.00
C23    C     0.15832   0.18982   0.43540   0.00000  Uiso   1.00
C24    C     0.06206   0.10710   0.19026   0.00000  Uiso   1.00
C25    C     0.03905   0.16733   0.41010   0.00000  Uiso   1.00
C26    C     0.21229   0.23688   0.37758   0.00000  Uiso   1.00
C27    C     0.17935   0.18068   0.01610   0.00000  Uiso   1.00
C28    C     0.22792   0.17898   0.48708   0.00000  Uiso   1.00
C29    C     0.24086   0.19467   0.43717   0.00000  Uiso   1.00
C30    C     0.20529   0.20311   0.41276   0.00000  Uiso   1.00
C31    C     0.16853   0.17439   0.06942   0.00000  Uiso   1.00
C32    C     0.25189   0.15768   0.06238   0.00000  Uiso   1.00
Cu33   Cu    0.11978   0.16666   0.25000   0.00000  Uiso   1.00
Cu34   Cu    0.21355   0.16667   0.25000   0.00000  Uiso   1.00
H35    H     0.24436   0.03872   0.22529   0.00000  Uiso   1.00
H36    H     0.05713   0.21886   0.31704   0.00000  Uiso   1.00
H37    H     0.00216   0.22103   0.48389   0.00000  Uiso   1.00
H38    H     0.28202   0.31112   0.21237   0.00000  Uiso   1.00
H39    H     0.08935   0.03724   0.27108   0.00000  Uiso   1.00
H40    H     0.09006   0.29607   0.27066   0.00000  Uiso   1.00
H41    H     0.28002   0.22271   0.29141   0.00000  Uiso   1.00
H42    H     0.30112   0.11262   0.20351   0.00000  Uiso   1.00
H43    H     0.27746   0.20386   0.41954   0.00000  Uiso   1.00
H44    H     0.29807   0.15720   0.48585   0.00000  Uiso   1.00
H45    H     0.13197   0.17662   0.09296   0.00000  Uiso   1.00
H46    H     0.08208   0.19941   0.05601   0.00000  Uiso   1.00
N47    N     0.04931   0.16666   0.24999   0.00000  Uiso   1.00
N48    N     0.28402   0.16669   0.25000   0.00000  Uiso   1.00
N49    N     0.32044   0.13053   0.09894   0.00000  Uiso   1.00
N50    N     0.08674   0.08288   0.16374   0.00000  Uiso   1.00
N51    N     0.01128   0.15397   0.39012   0.00000  Uiso   1.00
N52    N     0.21687   0.26482   0.35075   0.00000  Uiso   1.00
O53    O     0.12708   0.22678   0.25001   0.00000  Uiso   1.00
O54    O     0.01632   0.21006   0.01066   0.00000  Uiso   1.00
O55    O     0.25511   0.29118   0.22015   0.00000  Uiso   1.00
O56    O     0.20627   0.22679   0.25001   0.00000  Uiso   1.00
O57    O     0.10775   0.16665   0.32549   0.00000  Uiso   1.00
O58    O     0.18694   0.16666   0.32549   0.00000  Uiso   1.00
O59    O     0.12706   0.10654   0.25000   0.00000  Uiso   1.00
O60    O     0.20625   0.10655   0.25000   0.00000  Uiso   1.00
O61    O     0.14640   0.16667   0.17451   0.00000  Uiso   1.00
O62    O     0.22559   0.16668   0.17451   0.00000  Uiso   1.00
O63    O     0.03120   0.22880   0.30321   0.00000  Uiso   1.00
C64    C     0.50039   0.24587   0.24916   0.00000  Uiso   1.00
C65    C     0.45817   0.18109   0.40667   0.00000  Uiso   1.00
C66    C     0.54520   0.31226   0.23456   0.00000  Uiso   1.00
C67    C     0.47426   0.17065   0.34985   0.00000  Uiso   1.00
C68    C     0.54416   0.02185   0.23547   0.00000  Uiso   1.00
C69    C     0.50028   0.04294   0.24872   0.00000  Uiso   1.00
C70    C     0.45695   0.02132   0.26075   0.00000  Uiso   1.00
C71    C     0.45743   0.31211   0.26044   0.00000  Uiso   1.00
C72    C     0.50122   0.29065   0.24787   0.00000  Uiso   1.00
C73    C     0.63593   0.19745   0.27364   0.00000  Uiso   1.00
C74    C     0.35097   0.19706   0.27561   0.00000  Uiso   1.00
C75    C     0.47708   0.18740   0.48983   0.00000  Uiso   1.00
C76    C     0.36440   0.13717   0.22284   0.00000  Uiso   1.00
C77    C     0.64810   0.13665   0.22424   0.00000  Uiso   1.00
C78    C     0.50000   0.08753   0.24970   0.00000  Uiso   1.00
C79    C     0.52531   0.16541   0.15023   0.00000  Uiso   1.00
C80    C     0.59595   0.16416   0.00949   0.00000  Uiso   1.00
C81    C     0.53824   0.16558   0.09338   0.00000  Uiso   1.00
C82    C     0.40860   0.18261   0.43376   0.00000  Uiso   1.00
C83    C     0.39482   0.19529   0.48627   0.00000  Uiso   1.00
C84    C     0.42819   0.19343   0.01491   0.00000  Uiso   1.00
C85    C     0.62313   0.14261   0.08293   0.00000  Uiso   1.00
C86    C     0.49165   0.18982   0.43540   0.00000  Uiso   1.00
C87    C     0.39540   0.10710   0.19026   0.00000  Uiso   1.00
C88    C     0.37238   0.16733   0.41010   0.00000  Uiso   1.00
C89    C     0.54562   0.23688   0.37758   0.00000  Uiso   1.00
C90    C     0.51269   0.18068   0.01610   0.00000  Uiso   1.00
C91    C     0.56125   0.17898   0.48708   0.00000  Uiso   1.00
C92    C     0.57420   0.19467   0.43717   0.00000  Uiso   1.00
C93    C     0.53863   0.20311   0.41276   0.00000  Uiso   1.00
C94    C     0.50187   0.17439   0.06942   0.00000  Uiso   1.00
C95    C     0.58523   0.15768   0.06238   0.00000  Uiso   1.00
Cu96   Cu    0.45311   0.16666   0.25000   0.00000  Uiso   1.00
Cu97   Cu    0.54689   0.16667   0.25000   0.00000  Uiso   1.00
H98    H     0.57769   0.03872   0.22529   0.00000  Uiso   1.00
H99    H     0.39047   0.21886   0.31704   0.00000  Uiso   1.00
H100   H     0.33549   0.22103   0.48389   0.00000  Uiso   1.00
H101   H     0.61535   0.31112   0.21237   0.00000  Uiso   1.00
H102   H     0.42268   0.03724   0.27108   0.00000  Uiso   1.00
H103   H     0.42339   0.29607   0.27066   0.00000  Uiso   1.00
H104   H     0.61335   0.22271   0.29141   0.00000  Uiso   1.00
H105   H     0.63445   0.11262   0.20351   0.00000  Uiso   1.00
H106   H     0.61080   0.20386   0.41954   0.00000  Uiso   1.00
H107   H     0.63140   0.15720   0.48585   0.00000  Uiso   1.00
H108   H     0.46531   0.17662   0.09296   0.00000  Uiso   1.00
H109   H     0.41542   0.19941   0.05601   0.00000  Uiso   1.00
N110   N     0.38265   0.16666   0.24999   0.00000  Uiso   1.00
N111   N     0.61735   0.16669   0.25000   0.00000  Uiso   1.00
N112   N     0.65377   0.13053   0.09894   0.00000  Uiso   1.00
N113   N     0.42007   0.08288   0.16374   0.00000  Uiso   1.00
N114   N     0.34461   0.15397   0.39012   0.00000  Uiso   1.00
N115   N     0.55020   0.26482   0.35075   0.00000  Uiso   1.00
O116   O     0.46042   0.22678   0.25001   0.00000  Uiso   1.00
O117   O     0.34966   0.21006   0.01066   0.00000  Uiso   1.00
O118   O     0.58844   0.29118   0.22015   0.00000  Uiso   1.00
O119   O     0.53961   0.22679   0.25001   0.00000  Uiso   1.00
O120   O     0.44108   0.16665   0.32549   0.00000  Uiso   1.00
O121   O     0.52027   0.16666   0.32549   0.00000  Uiso   1.00
O122   O     0.46039   0.10654   0.25000   0.00000  Uiso   1.00
O123   O     0.53958   0.10655   0.25000   0.00000  Uiso   1.00
O124   O     0.47973   0.16667   0.17451   0.00000  Uiso   1.00
O125   O     0.55892   0.16668   0.17451   0.00000  Uiso   1.00
O126   O     0.36453   0.22880   0.30321   0.00000  Uiso   1.00
C127   C     0.83372   0.24587   0.24916   0.00000  Uiso   1.00
C128   C     0.79150   0.18109   0.40667   0.00000  Uiso   1.00
C129   C     0.87853   0.31226   0.23456   0.00000  Uiso   1.00
C130   C     0.80759   0.17065   0.34985   0.00000  Uiso   1.00
C131   C     0.87749   0.02185   0.23547   0.00000  Uiso   1.00
C132   C     0.83361   0.04294   0.24872   0.00000  Uiso   1.00
C133   C     0.79028   0.02132   0.26075   0.00000  Uiso   1.00
C134   C     0.79076   0.31211   0.26044   0.00000  Uiso   1.00
C135   C     0.83456   0.29065   0.24787   0.00000  Uiso   1.00
C136   C     0.96926   0.19745   0.27364   0.00000  Uiso   1.00
C137   C     0.68431   0.19706   0.27561   0.00000  Uiso   1.00
C138   C     0.81041   0.18740   0.48983   0.00000  Uiso   1.00
C139   C     0.69773   0.13717   0.22284   0.00000  Uiso   1.00
C140   C     0.98143   0.13665   0.22424   0.00000  Uiso   1.00
C141   C     0.83334   0.08753   0.24970   0.00000  Uiso   1.00
C142   C     0.85864   0.16541   0.15023   0.00000  Uiso   1.00
C143   C     0.92929   0.16416   0.00949   0.00000  Uiso   1.00
C144   C     0.87158   0.16558   0.09338   0.00000  Uiso   1.00
C145   C     0.74194   0.18261   0.43376   0.00000  Uiso   1.00
C146   C     0.72815   0.19529   0.48627   0.00000  Uiso   1.00
C147   C     0.76152   0.19343   0.01491   0.00000  Uiso   1.00
C148   C     0.95646   0.14261   0.08293   0.00000  Uiso   1.00
C149   C     0.82499   0.18982   0.43540   0.00000  Uiso   1.00
C150   C     0.72873   0.10710   0.19026   0.00000  Uiso   1.00
C151   C     0.70571   0.16733   0.41010   0.00000  Uiso   1.00
C152   C     0.87896   0.23688   0.37758   0.00000  Uiso   1.00
C153   C     0.84602   0.18068   0.01610   0.00000  Uiso   1.00
C154   C     0.89459   0.17898   0.48708   0.00000  Uiso   1.00
C155   C     0.90753   0.19467   0.43717   0.00000  Uiso   1.00
C156   C     0.87196   0.20311   0.41276   0.00000  Uiso   1.00
C157   C     0.83520   0.17439   0.06942   0.00000  Uiso   1.00
C158   C     0.91856   0.15768   0.06238   0.00000  Uiso   1.00
Cu159  Cu    0.78645   0.16666   0.25000   0.00000  Uiso   1.00
Cu160  Cu    0.88022   0.16667   0.25000   0.00000  Uiso   1.00
H161   H     0.91102   0.03872   0.22529   0.00000  Uiso   1.00
H162   H     0.72380   0.21886   0.31704   0.00000  Uiso   1.00
H163   H     0.66883   0.22103   0.48389   0.00000  Uiso   1.00
H164   H     0.94869   0.31112   0.21237   0.00000  Uiso   1.00
H165   H     0.75601   0.03724   0.27108   0.00000  Uiso   1.00
H166   H     0.75673   0.29607   0.27066   0.00000  Uiso   1.00
H167   H     0.94668   0.22271   0.29141   0.00000  Uiso   1.00
H168   H     0.96779   0.11262   0.20351   0.00000  Uiso   1.00
H169   H     0.94413   0.20386   0.41954   0.00000  Uiso   1.00
H170   H     0.96474   0.15720   0.48585   0.00000  Uiso   1.00
H171   H     0.79864   0.17662   0.09296   0.00000  Uiso   1.00
H172   H     0.74875   0.19941   0.05601   0.00000  Uiso   1.00
N173   N     0.71598   0.16666   0.24999   0.00000  Uiso   1.00
N174   N     0.95069   0.16669   0.25000   0.00000  Uiso   1.00
N175   N     0.98710   0.13053   0.09894   0.00000  Uiso   1.00
N176   N     0.75341   0.08288   0.16374   0.00000  Uiso   1.00
N177   N     0.67795   0.15397   0.39012   0.00000  Uiso   1.00
N178   N     0.88354   0.26482   0.35075   0.00000  Uiso   1.00
O179   O     0.79375   0.22678   0.25001   0.00000  Uiso   1.00
O180   O     0.68299   0.21006   0.01066   0.00000  Uiso   1.00
O181   O     0.92177   0.29118   0.22015   0.00000  Uiso   1.00
O182   O     0.87294   0.22679   0.25001   0.00000  Uiso   1.00
O183   O     0.77441   0.16665   0.32549   0.00000  Uiso   1.00
O184   O     0.85360   0.16666   0.32549   0.00000  Uiso   1.00
O185   O     0.79373   0.10654   0.25000   0.00000  Uiso   1.00
O186   O     0.87292   0.10655   0.25000   0.00000  Uiso   1.00
O187   O     0.81306   0.16667   0.17451   0.00000  Uiso   1.00
O188   O     0.89225   0.16668   0.17451   0.00000  Uiso   1.00
O189   O     0.69786   0.22880   0.30321   0.00000  Uiso   1.00
C190   C     0.16706   0.57921   0.24916   0.00000  Uiso   1.00
C191   C     0.12484   0.51442   0.40667   0.00000  Uiso   1.00
C192   C     0.21187   0.64559   0.23456   0.00000  Uiso   1.00
C193   C     0.14092   0.50398   0.34985   0.00000  Uiso   1.00
C194   C     0.21083   0.35518   0.23547   0.00000  Uiso   1.00
C195   C     0.16695   0.37628   0.24872   0.00000  Uiso   1.00
C196   C     0.12362   0.35465   0.26075   0.00000  Uiso   1.00
C197   C     0.12410   0.64544   0.26044   0.00000  Uiso   1.00
C198   C     0.16789   0.62398   0.24787   0.00000  Uiso   1.00
C199   C     0.30260   0.53079   0.27364   0.00000  Uiso   1.00
C200   C     0.01764   0.53039   0.27561   0.00000  Uiso   1.00
C201   C     0.14375   0.52073   0.48983   0.00000  Uiso   1.00
C202   C     0.03106   0.47051   0.22284   0.00000  Uiso   1.00
C203   C     0.31477   0.46998   0.22424   0.00000  Uiso   1.00
C204   C     0.16667   0.42086   0.24970   0.00000  Uiso   1.00
C205   C     0.19198   0.49874   0.15023   0.00000  Uiso   1.00
C206   C     0.26262   0.49749   0.00949   0.00000  Uiso   1.00
C207   C     0.20491   0.49892   0.09338   0.00000  Uiso   1.00
C208   C     0.07527   0.51594   0.43376   0.00000  Uiso   1.00
C209   C     0.06149   0.52863   0.48627   0.00000  Uiso   1.00
C210   C     0.09486   0.52677   0.01491   0.00000  Uiso   1.00
C211   C     0.28979   0.47595   0.08293   0.00000  Uiso   1.00
C212   C     0.15832   0.52315   0.43540   0.00000  Uiso   1.00
C213   C     0.06206   0.44043   0.19026   0.00000  Uiso   1.00
C214   C     0.03905   0.50066   0.41010   0.00000  Uiso   1.00
C215   C     0.21229   0.57021   0.37758   0.00000  Uiso   1.00
C216   C     0.17935   0.51402   0.01610   0.00000  Uiso   1.00
C217   C     0.22792   0.51231   0.48708   0.00000  Uiso   1.00
C218   C     0.24086   0.52801   0.43717   0.00000  Uiso   1.00
C219   C     0.20529   0.53644   0.41276   0.00000  Uiso   1.00
C220   C     0.16853   0.50772   0.06942   0.00000  Uiso   1.00
C221   C     0.25189   0.49101   0.06238   0.00000  Uiso   1.00
Cu222  Cu    0.11978   0.49999   0.25000   0.00000  Uiso   1.00
Cu223  Cu    0.21355   0.50001   0.25000   0.00000  Uiso   1.00
H224   H     0.24436   0.37205   0.22529   0.00000  Uiso   1.00
H225   H     0.05713   0.55219   0.31704   0.00000  Uiso   1.00
H226   H     0.00216   0.55436   0.48389   0.00000  Uiso   1.00
H227   H     0.28202   0.64445   0.21237   0.00000  Uiso   1.00
H228   H     0.08935   0.37057   0.27108   0.00000  Uiso   1.00
H229   H     0.09006   0.62940   0.27066   0.00000  Uiso   1.00
H230   H     0.28002   0.55605   0.29141   0.00000  Uiso   1.00
H231   H     0.30112   0.44596   0.20351   0.00000  Uiso   1.00
H232   H     0.27746   0.53720   0.41954   0.00000  Uiso   1.00
H233   H     0.29807   0.49054   0.48585   0.00000  Uiso   1.00
H234   H     0.13197   0.50996   0.09296   0.00000  Uiso   1.00
H235   H     0.08208   0.53274   0.05601   0.00000  Uiso   1.00
N236   N     0.04931   0.49999   0.24999   0.00000  Uiso   1.00
N237   N     0.28402   0.50002   0.25000   0.00000  Uiso   1.00
N238   N     0.32044   0.46387   0.09894   0.00000  Uiso   1.00
N239   N     0.08674   0.41621   0.16374   0.00000  Uiso   1.00
N240   N     0.01128   0.48730   0.39012   0.00000  Uiso   1.00
N241   N     0.21687   0.59815   0.35075   0.00000  Uiso   1.00
O242   O     0.12708   0.56011   0.25001   0.00000  Uiso   1.00
O243   O     0.01632   0.54340   0.01066   0.00000  Uiso   1.00
O244   O     0.25511   0.62451   0.22015   0.00000  Uiso   1.00
O245   O     0.20627   0.56012   0.25001   0.00000  Uiso   1.00
O246   O     0.10775   0.49998   0.32549   0.00000  Uiso   1.00
O247   O     0.18694   0.49999   0.32549   0.00000  Uiso   1.00
O248   O     0.12706   0.43988   0.25000   0.00000  Uiso   1.00
O249   O     0.20625   0.43989   0.25000   0.00000  Uiso   1.00
O250   O     0.14640   0.50001   0.17451   0.00000  Uiso   1.00
O251   O     0.22559   0.50002   0.17451   0.00000  Uiso   1.00
O252   O     0.03120   0.56213   0.30321   0.00000  Uiso   1.00
C253   C     0.50039   0.57921   0.24916   0.00000  Uiso   1.00
C254   C     0.45817   0.51442   0.40667   0.00000  Uiso   1.00
C255   C     0.54520   0.64559   0.23456   0.00000  Uiso   1.00
C256   C     0.47426   0.50398   0.34985   0.00000  Uiso   1.00
C257   C     0.54416   0.35518   0.23547   0.00000  Uiso   1.00
C258   C     0.50028   0.37628   0.24872   0.00000  Uiso   1.00
C259   C     0.45695   0.35465   0.26075   0.00000  Uiso   1.00
C260   C     0.45743   0.64544   0.26044   0.00000  Uiso   1.00
C261   C     0.50122   0.62398   0.24787   0.00000  Uiso   1.00
C262   C     0.63593   0.53079   0.27364   0.00000  Uiso   1.00
C263   C     0.35097   0.53039   0.27561   0.00000  Uiso   1.00
C264   C     0.47708   0.52073   0.48983   0.00000  Uiso   1.00
C265   C     0.36440   0.47051   0.22284   0.00000  Uiso   1.00
C266   C     0.64810   0.46998   0.22424   0.00000  Uiso   1.00
C267   C     0.50000   0.42086   0.24970   0.00000  Uiso   1.00
C268   C     0.52531   0.49874   0.15023   0.00000  Uiso   1.00
C269   C     0.59595   0.49749   0.00949   0.00000  Uiso   1.00
C270   C     0.53824   0.49892   0.09338   0.00000  Uiso   1.00
C271   C     0.40860   0.51594   0.43376   0.00000  Uiso   1.00
C272   C     0.39482   0.52863   0.48627   0.00000  Uiso   1.00
C273   C     0.42819   0.52677   0.01491   0.00000  Uiso   1.00
C274   C     0.62313   0.47595   0.08293   0.00000  Uiso   1.00
C275   C     0.49165   0.52315   0.43540   0.00000  Uiso   1.00
C276   C     0.39540   0.44043   0.19026   0.00000  Uiso   1.00
C277   C     0.37238   0.50066   0.41010   0.00000  Uiso   1.00
C278   C     0.54562   0.57021   0.37758   0.00000  Uiso   1.00
C279   C     0.51269   0.51402   0.01610   0.00000  Uiso   1.00
C280   C     0.56125   0.51231   0.48708   0.00000  Uiso   1.00
C281   C     0.57420   0.52801   0.43717   0.00000  Uiso   1.00
C282   C     0.53863   0.53644   0.41276   0.00000  Uiso   1.00
C283   C     0.50187   0.50772   0.06942   0.00000  Uiso   1.00
C284   C     0.58523   0.49101   0.06238   0.00000  Uiso   1.00
Cu285  Cu    0.45311   0.49999   0.25000   0.00000  Uiso   1.00
Cu286  Cu    0.54689   0.50001   0.25000   0.00000  Uiso   1.00
H287   H     0.57769   0.37205   0.22529   0.00000  Uiso   1.00
H288   H     0.39047   0.55219   0.31704   0.00000  Uiso   1.00
H289   H     0.33549   0.55436   0.48389   0.00000  Uiso   1.00
H290   H     0.61535   0.64445   0.21237   0.00000  Uiso   1.00
H291   H     0.42268   0.37057   0.27108   0.00000  Uiso   1.00
H292   H     0.42339   0.62940   0.27066   0.00000  Uiso   1.00
H293   H     0.61335   0.55605   0.29141   0.00000  Uiso   1.00
H294   H     0.63445   0.44596   0.20351   0.00000  Uiso   1.00
H295   H     0.61080   0.53720   0.41954   0.00000  Uiso   1.00
H296   H     0.63140   0.49054   0.48585   0.00000  Uiso   1.00
H297   H     0.46531   0.50996   0.09296   0.00000  Uiso   1.00
H298   H     0.41542   0.53274   0.05601   0.00000  Uiso   1.00
N299   N     0.38265   0.49999   0.24999   0.00000  Uiso   1.00
N300   N     0.61735   0.50002   0.25000   0.00000  Uiso   1.00
N301   N     0.65377   0.46387   0.09894   0.00000  Uiso   1.00
N302   N     0.42007   0.41621   0.16374   0.00000  Uiso   1.00
N303   N     0.34461   0.48730   0.39012   0.00000  Uiso   1.00
N304   N     0.55020   0.59815   0.35075   0.00000  Uiso   1.00
O305   O     0.46042   0.56011   0.25001   0.00000  Uiso   1.00
O306   O     0.34966   0.54340   0.01066   0.00000  Uiso   1.00
O307   O     0.58844   0.62451   0.22015   0.00000  Uiso   1.00
O308   O     0.53961   0.56012   0.25001   0.00000  Uiso   1.00
O309   O     0.44108   0.49998   0.32549   0.00000  Uiso   1.00
O310   O     0.52027   0.49999   0.32549   0.00000  Uiso   1.00
O311   O     0.46039   0.43988   0.25000   0.00000  Uiso   1.00
O312   O     0.53958   0.43989   0.25000   0.00000  Uiso   1.00
O313   O     0.47973   0.50001   0.17451   0.00000  Uiso   1.00
O314   O     0.55892   0.50002   0.17451   0.00000  Uiso   1.00
O315   O     0.36453   0.56213   0.30321   0.00000  Uiso   1.00
C316   C     0.83372   0.57921   0.24916   0.00000  Uiso   1.00
C317   C     0.79150   0.51442   0.40667   0.00000  Uiso   1.00
C318   C     0.87853   0.64559   0.23456   0.00000  Uiso   1.00
C319   C     0.80759   0.50398   0.34985   0.00000  Uiso   1.00
C320   C     0.87749   0.35518   0.23547   0.00000  Uiso   1.00
C321   C     0.83361   0.37628   0.24872   0.00000  Uiso   1.00
C322   C     0.79028   0.35465   0.26075   0.00000  Uiso   1.00
C323   C     0.79076   0.64544   0.26044   0.00000  Uiso   1.00
C324   C     0.83456   0.62398   0.24787   0.00000  Uiso   1.00
C325   C     0.96926   0.53079   0.27364   0.00000  Uiso   1.00
C326   C     0.68431   0.53039   0.27561   0.00000  Uiso   1.00
C327   C     0.81041   0.52073   0.48983   0.00000  Uiso   1.00
C328   C     0.69773   0.47051   0.22284   0.00000  Uiso   1.00
C329   C     0.98143   0.46998   0.22424   0.00000  Uiso   1.00
C330   C     0.83334   0.42086   0.24970   0.00000  Uiso   1.00
C331   C     0.85864   0.49874   0.15023   0.00000  Uiso   1.00
C332   C     0.92929   0.49749   0.00949   0.00000  Uiso   1.00
C333   C     0.87158   0.49892   0.09338   0.00000  Uiso   1.00
C334   C     0.74194   0.51594   0.43376   0.00000  Uiso   1.00
C335   C     0.72815   0.52863   0.48627   0.00000  Uiso   1.00
C336   C     0.76152   0.52677   0.01491   0.00000  Uiso   1.00
C337   C     0.95646   0.47595   0.08293   0.00000  Uiso   1.00
C338   C     0.82499   0.52315   0.43540   0.00000  Uiso   1.00
C339   C     0.72873   0.44043   0.19026   0.00000  Uiso   1.00
C340   C     0.70571   0.50066   0.41010   0.00000  Uiso   1.00
C341   C     0.87896   0.57021   0.37758   0.00000  Uiso   1.00
C342   C     0.84602   0.51402   0.01610   0.00000  Uiso   1.00
C343   C     0.89459   0.51231   0.48708   0.00000  Uiso   1.00
C344   C     0.90753   0.52801   0.43717   0.00000  Uiso   1.00
C345   C     0.87196   0.53644   0.41276   0.00000  Uiso   1.00
C346   C     0.83520   0.50772   0.06942   0.00000  Uiso   1.00
C347   C     0.91856   0.49101   0.06238   0.00000  Uiso   1.00
Cu348  Cu    0.78645   0.49999   0.25000   0.00000  Uiso   1.00
Cu349  Cu    0.88022   0.50001   0.25000   0.00000  Uiso   1.00
H350   H     0.91102   0.37205   0.22529   0.00000  Uiso   1.00
H351   H     0.72380   0.55219   0.31704   0.00000  Uiso   1.00
H352   H     0.66883   0.55436   0.48389   0.00000  Uiso   1.00
H353   H     0.94869   0.64445   0.21237   0.00000  Uiso   1.00
H354   H     0.75601   0.37057   0.27108   0.00000  Uiso   1.00
H355   H     0.75673   0.62940   0.27066   0.00000  Uiso   1.00
H356   H     0.94668   0.55605   0.29141   0.00000  Uiso   1.00
H357   H     0.96779   0.44596   0.20351   0.00000  Uiso   1.00
H358   H     0.94413   0.53720   0.41954   0.00000  Uiso   1.00
H359   H     0.96474   0.49054   0.48585   0.00000  Uiso   1.00
H360   H     0.79864   0.50996   0.09296   0.00000  Uiso   1.00
H361   H     0.74875   0.53274   0.05601   0.00000  Uiso   1.00
N362   N     0.71598   0.49999   0.24999   0.00000  Uiso   1.00
N363   N     0.95069   0.50002   0.25000   0.00000  Uiso   1.00
N364   N     0.98710   0.46387   0.09894   0.00000  Uiso   1.00
N365   N     0.75341   0.41621   0.16374   0.00000  Uiso   1.00
N366   N     0.67795   0.48730   0.39012   0.00000  Uiso   1.00
N367   N     0.88354   0.59815   0.35075   0.00000  Uiso   1.00
O368   O     0.79375   0.56011   0.25001   0.00000  Uiso   1.00
O369   O     0.68299   0.54340   0.01066   0.00000  Uiso   1.00
O370   O     0.92177   0.62451   0.22015   0.00000  Uiso   1.00
O371   O     0.87294   0.56012   0.25001   0.00000  Uiso   1.00
O372   O     0.77441   0.49998   0.32549   0.00000  Uiso   1.00
O373   O     0.85360   0.49999   0.32549   0.00000  Uiso   1.00
O374   O     0.79373   0.43988   0.25000   0.00000  Uiso   1.00
O375   O     0.87292   0.43989   0.25000   0.00000  Uiso   1.00
O376   O     0.81306   0.50001   0.17451   0.00000  Uiso   1.00
O377   O     0.89225   0.50002   0.17451   0.00000  Uiso   1.00
O378   O     0.69786   0.56213   0.30321   0.00000  Uiso   1.00
C379   C     0.16706   0.91254   0.24916   0.00000  Uiso   1.00
C380   C     0.12484   0.84776   0.40667   0.00000  Uiso   1.00
C381   C     0.21187   0.97892   0.23456   0.00000  Uiso   1.00
C382   C     0.14092   0.83732   0.34985   0.00000  Uiso   1.00
C383   C     0.21083   0.68852   0.23547   0.00000  Uiso   1.00
C384   C     0.16695   0.70961   0.24872   0.00000  Uiso   1.00
C385   C     0.12362   0.68798   0.26075   0.00000  Uiso   1.00
C386   C     0.12410   0.97877   0.26044   0.00000  Uiso   1.00
C387   C     0.16789   0.95732   0.24787   0.00000  Uiso   1.00
C388   C     0.30260   0.86412   0.27364   0.00000  Uiso   1.00
C389   C     0.01764   0.86373   0.27561   0.00000  Uiso   1.00
C390   C     0.14375   0.85407   0.48983   0.00000  Uiso   1.00
C391   C     0.03106   0.80384   0.22284   0.00000  Uiso   1.00
C392   C     0.31477   0.80332   0.22424   0.00000  Uiso   1.00
C393   C     0.16667   0.75420   0.24970   0.00000  Uiso   1.00
C394   C     0.19198   0.83208   0.15023   0.00000  Uiso   1.00
C395   C     0.26262   0.83082   0.00949   0.00000  Uiso   1.00
C396   C     0.20491   0.83225   0.09338   0.00000  Uiso   1.00
C397   C     0.07527   0.84928   0.43376   0.00000  Uiso   1.00
C398   C     0.06149   0.86196   0.48627   0.00000  Uiso   1.00
C399   C     0.09486   0.86010   0.01491   0.00000  Uiso   1.00
C400   C     0.28979   0.80928   0.08293   0.00000  Uiso   1.00
C401   C     0.15832   0.85648   0.43540   0.00000  Uiso   1.00
C402   C     0.06206   0.77376   0.19026   0.00000  Uiso   1.00
C403   C     0.03905   0.83399   0.41010   0.00000  Uiso   1.00
C404   C     0.21229   0.90354   0.37758   0.00000  Uiso   1.00
C405   C     0.17935   0.84735   0.01610   0.00000  Uiso   1.00
C406   C     0.22792   0.84565   0.48708   0.00000  Uiso   1.00
C407   C     0.24086   0.86134   0.43717   0.00000  Uiso   1.00
C408   C     0.20529   0.86978   0.41276   0.00000  Uiso   1.00
C409   C     0.16853   0.84105   0.06942   0.00000  Uiso   1.00
C410   C     0.25189   0.82434   0.06238   0.00000  Uiso   1.00
Cu411  Cu    0.11978   0.83333   0.25000   0.00000  Uiso   1.00
Cu412  Cu    0.21355   0.83334   0.25000   0.00000  Uiso   1.00
H413   H     0.24436   0.70539   0.22529   0.00000  Uiso   1.00
H414   H     0.05713   0.88553   0.31704   0.00000  Uiso   1.00
H415   H     0.00216   0.88769   0.48389   0.00000  Uiso   1.00
H416   H     0.28202   0.97778   0.21237   0.00000  Uiso   1.00
H417   H     0.08935   0.70391   0.27108   0.00000  Uiso   1.00
H418   H     0.09006   0.96273   0.27066   0.00000  Uiso   1.00
H419   H     0.28002   0.88938   0.29141   0.00000  Uiso   1.00
H420   H     0.30112   0.77929   0.20351   0.00000  Uiso   1.00
H421   H     0.27746   0.87053   0.41954   0.00000  Uiso   1.00
H422   H     0.29807   0.82387   0.48585   0.00000  Uiso   1.00
H423   H     0.13197   0.84329   0.09296   0.00000  Uiso   1.00
H424   H     0.08208   0.86608   0.05601   0.00000  Uiso   1.00
N425   N     0.04931   0.83332   0.24999   0.00000  Uiso   1.00
N426   N     0.28402   0.83335   0.25000   0.00000  Uiso   1.00
N427   N     0.32044   0.79720   0.09894   0.00000  Uiso   1.00
N428   N     0.08674   0.74954   0.16374   0.00000  Uiso   1.00
N429   N     0.01128   0.82063   0.39012   0.00000  Uiso   1.00
N430   N     0.21687   0.93149   0.35075   0.00000  Uiso   1.00
O431   O     0.12708   0.89345   0.25001   0.00000  Uiso   1.00
O432   O     0.01632   0.87673   0.01066   0.00000  Uiso   1.00
O433   O     0.25511   0.95784   0.22015   0.00000  Uiso   1.00
O434   O     0.20627   0.89346   0.25001   0.00000  Uiso   1.00
O435   O     0.10775   0.83332   0.32549   0.00000  Uiso   1.00
O436   O     0.18694   0.83333   0.32549   0.00000  Uiso   1.00
O437   O     0.12706   0.77321   0.25000   0.00000  Uiso   1.00
O438   O     0.20625   0.77322   0.25000   0.00000  Uiso   1.00
O439   O     0.14640   0.83334   0.17451   0.00000  Uiso   1.00
O440   O     0.22559   0.83335   0.17451   0.00000  Uiso   1.00
O441   O     0.03120   0.89546   0.30321   0.00000  Uiso   1.00
C442   C     0.50039   0.91254   0.24916   0.00000  Uiso   1.00
C443   C     0.45817   0.84776   0.40667   0.00000  Uiso   1.00
C444   C     0.54520   0.97892   0.23456   0.00000  Uiso   1.00
C445   C     0.47426   0.83732   0.34985   0.00000  Uiso   1.00
C446   C     0.54416   0.68852   0.23547   0.00000  Uiso   1.00
C447   C     0.50028   0.70961   0.24872   0.00000  Uiso   1.00
C448   C     0.45695   0.68798   0.26075   0.00000  Uiso   1.00
C449   C     0.45743   0.97877   0.26044   0.00000  Uiso   1.00
C450   C     0.50122   0.95732   0.24787   0.00000  Uiso   1.00
C451   C     0.63593   0.86412   0.27364   0.00000  Uiso   1.00
C452   C     0.35097   0.86373   0.27561   0.00000  Uiso   1.00
C453   C     0.47708   0.85407   0.48983   0.00000  Uiso   1.00
C454   C     0.36440   0.80384   0.22284   0.00000  Uiso   1.00
C455   C     0.64810   0.80332   0.22424   0.00000  Uiso   1.00
C456   C     0.50000   0.75420   0.24970   0.00000  Uiso   1.00
C457   C     0.52531   0.83208   0.15023   0.00000  Uiso   1.00
C458   C     0.59595   0.83082   0.00949   0.00000  Uiso   1.00
C459   C     0.53824   0.83225   0.09338   0.00000  Uiso   1.00
C460   C     0.40860   0.84928   0.43376   0.00000  Uiso   1.00
C461   C     0.39482   0.86196   0.48627   0.00000  Uiso   1.00
C462   C     0.42819   0.86010   0.01491   0.00000  Uiso   1.00
C463   C     0.62313   0.80928   0.08293   0.00000  Uiso   1.00
C464   C     0.49165   0.85648   0.43540   0.00000  Uiso   1.00
C465   C     0.39540   0.77376   0.19026   0.00000  Uiso   1.00
C466   C     0.37238   0.83399   0.41010   0.00000  Uiso   1.00
C467   C     0.54562   0.90354   0.37758   0.00000  Uiso   1.00
C468   C     0.51269   0.84735   0.01610   0.00000  Uiso   1.00
C469   C     0.56125   0.84565   0.48708   0.00000  Uiso   1.00
C470   C     0.57420   0.86134   0.43717   0.00000  Uiso   1.00
C471   C     0.53863   0.86978   0.41276   0.00000  Uiso   1.00
C472   C     0.50187   0.84105   0.06942   0.00000  Uiso   1.00
C473   C     0.58523   0.82434   0.06238   0.00000  Uiso   1.00
Cu474  Cu    0.45311   0.83333   0.25000   0.00000  Uiso   1.00
Cu475  Cu    0.54689   0.83334   0.25000   0.00000  Uiso   1.00
H476   H     0.57769   0.70539   0.22529   0.00000  Uiso   1.00
H477   H     0.39047   0.88553   0.31704   0.00000  Uiso   1.00
H478   H     0.33549   0.88769   0.48389   0.00000  Uiso   1.00
H479   H     0.61535   0.97778   0.21237   0.00000  Uiso   1.00
H480   H     0.42268   0.70391   0.27108   0.00000  Uiso   1.00
H481   H     0.42339   0.96273   0.27066   0.00000  Uiso   1.00
H482   H     0.61335   0.88938   0.29141   0.00000  Uiso   1.00
H483   H     0.63445   0.77929   0.20351   0.00000  Uiso   1.00
H484   H     0.61080   0.87053   0.41954   0.00000  Uiso   1.00
H485   H     0.63140   0.82387   0.48585   0.00000  Uiso   1.00
H486   H     0.46531   0.84329   0.09296   0.00000  Uiso   1.00
H487   H     0.41542   0.86608   0.05601   0.00000  Uiso   1.00
N488   N     0.38265   0.83332   0.24999   0.00000  Uiso   1.00
N489   N     0.61735   0.83335   0.25000   0.00000  Uiso   1.00
N490   N     0.65377   0.79720   0.09894   0.00000  Uiso   1.00
N491   N     0.42007   0.74954   0.16374   0.00000  Uiso   1.00
N492   N     0.34461   0.82063   0.39012   0.00000  Uiso   1.00
N493   N     0.55020   0.93149   0.35075   0.00000  Uiso   1.00
O494   O     0.46042   0.89345   0.25001   0.00000  Uiso   1.00
O495   O     0.34966   0.87673   0.01066   0.00000  Uiso   1.00
O496   O     0.58844   0.95784   0.22015   0.00000  Uiso   1.00
O497   O     0.53961   0.89346   0.25001   0.00000  Uiso   1.00
O498   O     0.44108   0.83332   0.32549   0.00000  Uiso   1.00
O499   O     0.52027   0.83333   0.32549   0.00000  Uiso   1.00
O500   O     0.46039   0.77321   0.25000   0.00000  Uiso   1.00
O501   O     0.53958   0.77322   0.25000   0.00000  Uiso   1.00
O502   O     0.47973   0.83334   0.17451   0.00000  Uiso   1.00
O503   O     0.55892   0.83335   0.17451   0.00000  Uiso   1.00
O504   O     0.36453   0.89546   0.30321   0.00000  Uiso   1.00
C505   C     0.83372   0.91254   0.24916   0.00000  Uiso   1.00
C506   C     0.79150   0.84776   0.40667   0.00000  Uiso   1.00
C507   C     0.87853   0.97892   0.23456   0.00000  Uiso   1.00
C508   C     0.80759   0.83732   0.34985   0.00000  Uiso   1.00
C509   C     0.87749   0.68852   0.23547   0.00000  Uiso   1.00
C510   C     0.83361   0.70961   0.24872   0.00000  Uiso   1.00
C511   C     0.79028   0.68798   0.26075   0.00000  Uiso   1.00
C512   C     0.79076   0.97877   0.26044   0.00000  Uiso   1.00
C513   C     0.83456   0.95732   0.24787   0.00000  Uiso   1.00
C514   C     0.96926   0.86412   0.27364   0.00000  Uiso   1.00
C515   C     0.68431   0.86373   0.27561   0.00000  Uiso   1.00
C516   C     0.81041   0.85407   0.48983   0.00000  Uiso   1.00
C517   C     0.69773   0.80384   0.22284   0.00000  Uiso   1.00
C518   C     0.98143   0.80332   0.22424   0.00000  Uiso   1.00
C519   C     0.83334   0.75420   0.24970   0.00000  Uiso   1.00
C520   C     0.85864   0.83208   0.15023   0.00000  Uiso   1.00
C521   C     0.92929   0.83082   0.00949   0.00000  Uiso   1.00
C522   C     0.87158   0.83225   0.09338   0.00000  Uiso   1.00
C523   C     0.74194   0.84928   0.43376   0.00000  Uiso   1.00
C524   C     0.72815   0.86196   0.48627   0.00000  Uiso   1.00
C525   C     0.76152   0.86010   0.01491   0.00000  Uiso   1.00
C526   C     0.95646   0.80928   0.08293   0.00000  Uiso   1.00
C527   C     0.82499   0.85648   0.43540   0.00000  Uiso   1.00
C528   C     0.72873   0.77376   0.19026   0.00000  Uiso   1.00
C529   C     0.70571   0.83399   0.41010   0.00000  Uiso   1.00
C530   C     0.87896   0.90354   0.37758   0.00000  Uiso   1.00
C531   C     0.84602   0.84735   0.01610   0.00000  Uiso   1.00
C532   C     0.89459   0.84565   0.48708   0.00000  Uiso   1.00
C533   C     0.90753   0.86134   0.43717   0.00000  Uiso   1.00
C534   C     0.87196   0.86978   0.41276   0.00000  Uiso   1.00
C535   C     0.83520   0.84105   0.06942   0.00000  Uiso   1.00
C536   C     0.91856   0.82434   0.06238   0.00000  Uiso   1.00
Cu537  Cu    0.78645   0.83333   0.25000   0.00000  Uiso   1.00
Cu538  Cu    0.88022   0.83334   0.25000   0.00000  Uiso   1.00
H539   H     0.91102   0.70539   0.22529   0.00000  Uiso   1.00
H540   H     0.72380   0.88553   0.31704   0.00000  Uiso   1.00
H541   H     0.66883   0.88769   0.48389   0.00000  Uiso   1.00
H542   H     0.94869   0.97778   0.21237   0.00000  Uiso   1.00
H543   H     0.75601   0.70391   0.27108   0.00000  Uiso   1.00
H544   H     0.75673   0.96273   0.27066   0.00000  Uiso   1.00
H545   H     0.94668   0.88938   0.29141   0.00000  Uiso   1.00
H546   H     0.96779   0.77929   0.20351   0.00000  Uiso   1.00
H547   H     0.94413   0.87053   0.41954   0.00000  Uiso   1.00
H548   H     0.96474   0.82387   0.48585   0.00000  Uiso   1.00
H549   H     0.79864   0.84329   0.09296   0.00000  Uiso   1.00
H550   H     0.74875   0.86608   0.05601   0.00000  Uiso   1.00
N551   N     0.71598   0.83332   0.24999   0.00000  Uiso   1.00
N552   N     0.95069   0.83335   0.25000   0.00000  Uiso   1.00
N553   N     0.98710   0.79720   0.09894   0.00000  Uiso   1.00
N554   N     0.75341   0.74954   0.16374   0.00000  Uiso   1.00
N555   N     0.67795   0.82063   0.39012   0.00000  Uiso   1.00
N556   N     0.88354   0.93149   0.35075   0.00000  Uiso   1.00
O557   O     0.79375   0.89345   0.25001   0.00000  Uiso   1.00
O558   O     0.68299   0.87673   0.01066   0.00000  Uiso   1.00
O559   O     0.92177   0.95784   0.22015   0.00000  Uiso   1.00
O560   O     0.87294   0.89346   0.25001   0.00000  Uiso   1.00
O561   O     0.77441   0.83332   0.32549   0.00000  Uiso   1.00
O562   O     0.85360   0.83333   0.32549   0.00000  Uiso   1.00
O563   O     0.79373   0.77321   0.25000   0.00000  Uiso   1.00
O564   O     0.87292   0.77322   0.25000   0.00000  Uiso   1.00
O565   O     0.81306   0.83334   0.17451   0.00000  Uiso   1.00
O566   O     0.89225   0.83335   0.17451   0.00000  Uiso   1.00
O567   O     0.69786   0.89546   0.30321   0.00000  Uiso   1.00
C568   C     0.16706   0.24587   0.74916   0.00000  Uiso   1.00
C569   C     0.12484   0.18109   0.90667   0.00000  Uiso   1.00
C570   C     0.21187   0.31226   0.73456   0.00000  Uiso   1.00
C571   C     0.14092   0.17065   0.84985   0.00000  Uiso   1.00
C572   C     0.21083   0.02185   0.73547   0.00000  Uiso   1.00
C573   C     0.16695   0.04294   0.74872   0.00000  Uiso   1.00
C574   C     0.12362   0.02132   0.76075   0.00000  Uiso   1.00
C575   C     0.12410   0.31211   0.76044   0.00000  Uiso   1.00
C576   C     0.16789   0.29065   0.74787   0.00000  Uiso   1.00
C577   C     0.30260   0.19745   0.77364   0.00000  Uiso   1.00
C578   C     0.01764   0.19706   0.77561   0.00000  Uiso   1.00
C579   C     0.14375   0.18740   0.98983   0.00000  Uiso   1.00
C580   C     0.03106   0.13717   0.72284   0.00000  Uiso   1.00
C581   C     0.31477   0.13665   0.72424   0.00000  Uiso   1.00
C582   C     0.16667   0.08753   0.74970   0.00000  Uiso   1.00
C583   C     0.19198   0.16541   0.65023   0.00000  Uiso   1.00
C584   C     0.26262   0.16416   0.50949   0.00000  Uiso   1.00
C585   C     0.20491   0.16558   0.59338   0.00000  Uiso   1.00
C586   C     0.07527   0.18261   0.93376   0.00000  Uiso   1.00
C587   C     0.06149   0.19529   0.98627   0.00000  Uiso   1.00
C588   C     0.09486   0.19343   0.51491   0.00000  Uiso   1.00
C589   C     0.28979   0.14261   0.58293   0.00000  Uiso   1.00
C590   C     0.15832   0.18982   0.93540   0.00000  Uiso   1.00
C591   C     0.06206   0.10710   0.69026   0.00000  Uiso   1.00
C592   C     0.03905   0.16733   0.91010   0.00000  Uiso   1.00
C593   C     0.21229   0.23688   0.87758   0.00000  Uiso   1.00
C594   C     0.17935   0.18068   0.51610   0.00000  Uiso   1.00
C595   C     0.22792   0.17898   0.98708   0.00000  Uiso   1.00
C596   C     0.24086   0.19467   0.93717   0.00000  Uiso   1.00
C597   C     0.20529   0.20311   0.91276   0.00000  Uiso   1.00
C598   C     0.16853   0.17439   0.56942   0.00000  Uiso   1.00
C599   C     0.25189   0.15768   0.56238   0.00000  Uiso   1.00
Cu600  Cu    0.11978   0.16666   0.75000   0.00000  Uiso   1.00
Cu601  Cu    0.21355   0.16667   0.75000   0.00000  Uiso   1.00
H602   H     0.24436   0.03872   0.72529   0.00000  Uiso   1.00
H603   H     0.05713   0.21886   0.81704   0.00000  Uiso   1.00
H604   H     0.00216   0.22103   0.98389   0.00000  Uiso   1.00
H605   H     0.28202   0.31112   0.71237   0.00000  Uiso   1.00
H606   H     0.08935   0.03724   0.77108   0.00000  Uiso   1.00
H607   H     0.09006   0.29607   0.77066   0.00000  Uiso   1.00
H608   H     0.28002   0.22271   0.79141   0.00000  Uiso   1.00
H609   H     0.30112   0.11262   0.70351   0.00000  Uiso   1.00
H610   H     0.27746   0.20386   0.91954   0.00000  Uiso   1.00
H611   H     0.29807   0.15720   0.98585   0.00000  Uiso   1.00
H612   H     0.13197   0.17662   0.59296   0.00000  Uiso   1.00
H613   H     0.08208   0.19941   0.55601   0.00000  Uiso   1.00
N614   N     0.04931   0.16666   0.74999   0.00000  Uiso   1.00
N615   N     0.28402   0.16669   0.75000   0.00000  Uiso   1.00
N616   N     0.32044   0.13053   0.59894   0.00000  Uiso   1.00
N617   N     0.08674   0.08288   0.66374   0.00000  Uiso   1.00
N618   N     0.01128   0.15397   0.89012   0.00000  Uiso   1.00
N619   N     0.21687   0.26482   0.85075   0.00000  Uiso   1.00
O620   O     0.12708   0.22678   0.75001   0.00000  Uiso   1.00
O621   O     0.01632   0.21006   0.51066   0.00000  Uiso   1.00
O622   O     0.25511   0.29118   0.72015   0.00000  Uiso   1.00
O623   O     0.20627   0.22679   0.75001   0.00000  Uiso   1.00
O624   O     0.10775   0.16665   0.82549   0.00000  Uiso   1.00
O625   O     0.18694   0.16666   0.82549   0.00000  Uiso   1.00
O626   O     0.12706   0.10654   0.75000   0.00000  Uiso   1.00
O627   O     0.20625   0.10655   0.75000   0.00000  Uiso   1.00
O628   O     0.14640   0.16667   0.67451   0.00000  Uiso   1.00
O629   O     0.22559   0.16668   0.67451   0.00000  Uiso   1.00
O630   O     0.03120   0.22880   0.80321   0.00000  Uiso   1.00
C631   C     0.50039   0.24587   0.74916   0.00000  Uiso   1.00
C632   C     0.45817   0.18109   0.90667   0.00000  Uiso   1.00
C633   C     0.54520   0.31226   0.73456   0.00000  Uiso   1.00
C634   C     0.47426   0.17065   0.84985   0.00000  Uiso   1.00
C635   C     0.54416   0.02185   0.73547   0.00000  Uiso   1.00
C636   C     0.50028   0.04294   0.74872   0.00000  Uiso   1.00
C637   C     0.45695   0.02132   0.76075   0.00000  Uiso   1.00
C638   C     0.45743   0.31211   0.76044   0.00000  Uiso   1.00
C639   C     0.50122   0.29065   0.74787   0.00000  Uiso   1.00
C640   C     0.63593   0.19745   0.77364   0.00000  Uiso   1.00
C641   C     0.35097   0.19706   0.77561   0.00000  Uiso   1.00
C642   C     0.47708   0.18740   0.98983   0.00000  Uiso   1.00
C643   C     0.36440   0.13717   0.72284   0.00000  Uiso   1.00
C644   C     0.64810   0.13665   0.72424   0.00000  Uiso   1.00
C645   C     0.50000   0.08753   0.74970   0.00000  Uiso   1.00
C646   C     0.52531   0.16541   0.65023   0.00000  Uiso   1.00
C647   C     0.59595   0.16416   0.50949   0.00000  Uiso   1.00
C648   C     0.53824   0.16558   0.59338   0.00000  Uiso   1.00
C649   C     0.40860   0.18261   0.93376   0.00000  Uiso   1.00
C650   C     0.39482   0.19529   0.98627   0.00000  Uiso   1.00
C651   C     0.42819   0.19343   0.51491   0.00000  Uiso   1.00
C652   C     0.62313   0.14261   0.58293   0.00000  Uiso   1.00
C653   C     0.49165   0.18982   0.93540   0.00000  Uiso   1.00
C654   C     0.39540   0.10710   0.69026   0.00000  Uiso   1.00
C655   C     0.37238   0.16733   0.91010   0.00000  Uiso   1.00
C656   C     0.54562   0.23688   0.87758   0.00000  Uiso   1.00
C657   C     0.51269   0.18068   0.51610   0.00000  Uiso   1.00
C658   C     0.56125   0.17898   0.98708   0.00000  Uiso   1.00
C659   C     0.57420   0.19467   0.93717   0.00000  Uiso   1.00
C660   C     0.53863   0.20311   0.91276   0.00000  Uiso   1.00
C661   C     0.50187   0.17439   0.56942   0.00000  Uiso   1.00
C662   C     0.58523   0.15768   0.56238   0.00000  Uiso   1.00
Cu663  Cu    0.45311   0.16666   0.75000   0.00000  Uiso   1.00
Cu664  Cu    0.54689   0.16667   0.75000   0.00000  Uiso   1.00
H665   H     0.57769   0.03872   0.72529   0.00000  Uiso   1.00
H666   H     0.39047   0.21886   0.81704   0.00000  Uiso   1.00
H667   H     0.33549   0.22103   0.98389   0.00000  Uiso   1.00
H668   H     0.61535   0.31112   0.71237   0.00000  Uiso   1.00
H669   H     0.42268   0.03724   0.77108   0.00000  Uiso   1.00
H670   H     0.42339   0.29607   0.77066   0.00000  Uiso   1.00
H671   H     0.61335   0.22271   0.79141   0.00000  Uiso   1.00
H672   H     0.63445   0.11262   0.70351   0.00000  Uiso   1.00
H673   H     0.61080   0.20386   0.91954   0.00000  Uiso   1.00
H674   H     0.63140   0.15720   0.98585   0.00000  Uiso   1.00
H675   H     0.46531   0.17662   0.59296   0.00000  Uiso   1.00
H676   H     0.41542   0.19941   0.55601   0.00000  Uiso   1.00
N677   N     0.38265   0.16666   0.74999   0.00000  Uiso   1.00
N678   N     0.61735   0.16669   0.75000   0.00000  Uiso   1.00
N679   N     0.65377   0.13053   0.59894   0.00000  Uiso   1.00
N680   N     0.42007   0.08288   0.66374   0.00000  Uiso   1.00
N681   N     0.34461   0.15397   0.89012   0.00000  Uiso   1.00
N682   N     0.55020   0.26482   0.85075   0.00000  Uiso   1.00
O683   O     0.46042   0.22678   0.75001   0.00000  Uiso   1.00
O684   O     0.34966   0.21006   0.51066   0.00000  Uiso   1.00
O685   O     0.58844   0.29118   0.72015   0.00000  Uiso   1.00
O686   O     0.53961   0.22679   0.75001   0.00000  Uiso   1.00
O687   O     0.44108   0.16665   0.82549   0.00000  Uiso   1.00
O688   O     0.52027   0.16666   0.82549   0.00000  Uiso   1.00
O689   O     0.46039   0.10654   0.75000   0.00000  Uiso   1.00
O690   O     0.53958   0.10655   0.75000   0.00000  Uiso   1.00
O691   O     0.47973   0.16667   0.67451   0.00000  Uiso   1.00
O692   O     0.55892   0.16668   0.67451   0.00000  Uiso   1.00
O693   O     0.36453   0.22880   0.80321   0.00000  Uiso   1.00
C694   C     0.83372   0.24587   0.74916   0.00000  Uiso   1.00
C695   C     0.79150   0.18109   0.90667   0.00000  Uiso   1.00
C696   C     0.87853   0.31226   0.73456   0.00000  Uiso   1.00
C697   C     0.80759   0.17065   0.84985   0.00000  Uiso   1.00
C698   C     0.87749   0.02185   0.73547   0.00000  Uiso   1.00
C699   C     0.83361   0.04294   0.74872   0.00000  Uiso   1.00
C700   C     0.79028   0.02132   0.76075   0.00000  Uiso   1.00
C701   C     0.79076   0.31211   0.76044   0.00000  Uiso   1.00
C702   C     0.83456   0.29065   0.74787   0.00000  Uiso   1.00
C703   C     0.96926   0.19745   0.77364   0.00000  Uiso   1.00
C704   C     0.68431   0.19706   0.77561   0.00000  Uiso   1.00
C705   C     0.81041   0.18740   0.98983   0.00000  Uiso   1.00
C706   C     0.69773   0.13717   0.72284   0.00000  Uiso   1.00
C707   C     0.98143   0.13665   0.72424   0.00000  Uiso   1.00
C708   C     0.83334   0.08753   0.74970   0.00000  Uiso   1.00
C709   C     0.85864   0.16541   0.65023   0.00000  Uiso   1.00
C710   C     0.92929   0.16416   0.50949   0.00000  Uiso   1.00
C711   C     0.87158   0.16558   0.59338   0.00000  Uiso   1.00
C712   C     0.74194   0.18261   0.93376   0.00000  Uiso   1.00
C713   C     0.72815   0.19529   0.98627   0.00000  Uiso   1.00
C714   C     0.76152   0.19343   0.51491   0.00000  Uiso   1.00
C715   C     0.95646   0.14261   0.58293   0.00000  Uiso   1.00
C716   C     0.82499   0.18982   0.93540   0.00000  Uiso   1.00
C717   C     0.72873   0.10710   0.69026   0.00000  Uiso   1.00
C718   C     0.70571   0.16733   0.91010   0.00000  Uiso   1.00
C719   C     0.87896   0.23688   0.87758   0.00000  Uiso   1.00
C720   C     0.84602   0.18068   0.51610   0.00000  Uiso   1.00
C721   C     0.89459   0.17898   0.98708   0.00000  Uiso   1.00
C722   C     0.90753   0.19467   0.93717   0.00000  Uiso   1.00
C723   C     0.87196   0.20311   0.91276   0.00000  Uiso   1.00
C724   C     0.83520   0.17439   0.56942   0.00000  Uiso   1.00
C725   C     0.91856   0.15768   0.56238   0.00000  Uiso   1.00
Cu726  Cu    0.78645   0.16666   0.75000   0.00000  Uiso   1.00
Cu727  Cu    0.88022   0.16667   0.75000   0.00000  Uiso   1.00
H728   H     0.91102   0.03872   0.72529   0.00000  Uiso   1.00
H729   H     0.72380   0.21886   0.81704   0.00000  Uiso   1.00
H730   H     0.66883   0.22103   0.98389   0.00000  Uiso   1.00
H731   H     0.94869   0.31112   0.71237   0.00000  Uiso   1.00
H732   H     0.75601   0.03724   0.77108   0.00000  Uiso   1.00
H733   H     0.75673   0.29607   0.77066   0.00000  Uiso   1.00
H734   H     0.94668   0.22271   0.79141   0.00000  Uiso   1.00
H735   H     0.96779   0.11262   0.70351   0.00000  Uiso   1.00
H736   H     0.94413   0.20386   0.91954   0.00000  Uiso   1.00
H737   H     0.96474   0.15720   0.98585   0.00000  Uiso   1.00
H738   H     0.79864   0.17662   0.59296   0.00000  Uiso   1.00
H739   H     0.74875   0.19941   0.55601   0.00000  Uiso   1.00
N740   N     0.71598   0.16666   0.74999   0.00000  Uiso   1.00
N741   N     0.95069   0.16669   0.75000   0.00000  Uiso   1.00
N742   N     0.98710   0.13053   0.59894   0.00000  Uiso   1.00
N743   N     0.75341   0.08288   0.66374   0.00000  Uiso   1.00
N744   N     0.67795   0.15397   0.89012   0.00000  Uiso   1.00
N745   N     0.88354   0.26482   0.85075   0.00000  Uiso   1.00
O746   O     0.79375   0.22678   0.75001   0.00000  Uiso   1.00
O747   O     0.68299   0.21006   0.51066   0.00000  Uiso   1.00
O748   O     0.92177   0.29118   0.72015   0.00000  Uiso   1.00
O749   O     0.87294   0.22679   0.75001   0.00000  Uiso   1.00
O750   O     0.77441   0.16665   0.82549   0.00000  Uiso   1.00
O751   O     0.85360   0.16666   0.82549   0.00000  Uiso   1.00
O752   O     0.79373   0.10654   0.75000   0.00000  Uiso   1.00
O753   O     0.87292   0.10655   0.75000   0.00000  Uiso   1.00
O754   O     0.81306   0.16667   0.67451   0.00000  Uiso   1.00
O755   O     0.89225   0.16668   0.67451   0.00000  Uiso   1.00
O756   O     0.69786   0.22880   0.80321   0.00000  Uiso   1.00
C757   C     0.16706   0.57921   0.74916   0.00000  Uiso   1.00
C758   C     0.12484   0.51442   0.90667   0.00000  Uiso   1.00
C759   C     0.21187   0.64559   0.73456   0.00000  Uiso   1.00
C760   C     0.14092   0.50398   0.84985   0.00000  Uiso   1.00
C761   C     0.21083   0.35518   0.73547   0.00000  Uiso   1.00
C762   C     0.16695   0.37628   0.74872   0.00000  Uiso   1.00
C763   C     0.12362   0.35465   0.76075   0.00000  Uiso   1.00
C764   C     0.12410   0.64544   0.76044   0.00000  Uiso   1.00
C765   C     0.16789   0.62398   0.74787   0.00000  Uiso   1.00
C766   C     0.30260   0.53079   0.77364   0.00000  Uiso   1.00
C767   C     0.01764   0.53039   0.77561   0.00000  Uiso   1.00
C768   C     0.14375   0.52073   0.98983   0.00000  Uiso   1.00
C769   C     0.03106   0.47051   0.72284   0.00000  Uiso   1.00
C770   C     0.31477   0.46998   0.72424   0.00000  Uiso   1.00
C771   C     0.16667   0.42086   0.74970   0.00000  Uiso   1.00
C772   C     0.19198   0.49874   0.65023   0.00000  Uiso   1.00
C773   C     0.26262   0.49749   0.50949   0.00000  Uiso   1.00
C774   C     0.20491   0.49892   0.59338   0.00000  Uiso   1.00
C775   C     0.07527   0.51594   0.93376   0.00000  Uiso   1.00
C776   C     0.06149   0.52863   0.98627   0.00000  Uiso   1.00
C777   C     0.09486   0.52677   0.51491   0.00000  Uiso   1.00
C778   C     0.28979   0.47595   0.58293   0.00000  Uiso   1.00
C779   C     0.15832   0.52315   0.93540   0.00000  Uiso   1.00
C780   C     0.06206   0.44043   0.69026   0.00000  Uiso   1.00
C781   C     0.03905   0.50066   0.91010   0.00000  Uiso   1.00
C782   C     0.21229   0.57021   0.87758   0.00000  Uiso   1.00
C783   C     0.17935   0.51402   0.51610   0.00000  Uiso   1.00
C784   C     0.22792   0.51231   0.98708   0.00000  Uiso   1.00
C785   C     0.24086   0.52801   0.93717   0.00000  Uiso   1.00
C786   C     0.20529   0.53644   0.91276   0.00000  Uiso   1.00
C787   C     0.16853   0.50772   0.56942   0.00000  Uiso   1.00
C788   C     0.25189   0.49101   0.56238   0.00000  Uiso   1.00
Cu789  Cu    0.11978   0.49999   0.75000   0.00000  Uiso   1.00
Cu790  Cu    0.21355   0.50001   0.75000   0.00000  Uiso   1.00
H791   H     0.24436   0.37205   0.72529   0.00000  Uiso   1.00
H792   H     0.05713   0.55219   0.81704   0.00000  Uiso   1.00
H793   H     0.00216   0.55436   0.98389   0.00000  Uiso   1.00
H794   H     0.28202   0.64445   0.71237   0.00000  Uiso   1.00
H795   H     0.08935   0.37057   0.77108   0.00000  Uiso   1.00
H796   H     0.09006   0.62940   0.77066   0.00000  Uiso   1.00
H797   H     0.28002   0.55605   0.79141   0.00000  Uiso   1.00
H798   H     0.30112   0.44596   0.70351   0.00000  Uiso   1.00
H799   H     0.27746   0.53720   0.91954   0.00000  Uiso   1.00
H800   H     0.29807   0.49054   0.98585   0.00000  Uiso   1.00
H801   H     0.13197   0.50996   0.59296   0.00000  Uiso   1.00
H802   H     0.08208   0.53274   0.55601   0.00000  Uiso   1.00
N803   N     0.04931   0.49999   0.74999   0.00000  Uiso   1.00
N804   N     0.28402   0.50002   0.75000   0.00000  Uiso   1.00
N805   N     0.32044   0.46387   0.59894   0.00000  Uiso   1.00
N806   N     0.08674   0.41621   0.66374   0.00000  Uiso   1.00
N807   N     0.01128   0.48730   0.89012   0.00000  Uiso   1.00
N808   N     0.21687   0.59815   0.85075   0.00000  Uiso   1.00
O809   O     0.12708   0.56011   0.75001   0.00000  Uiso   1.00
O810   O     0.01632   0.54340   0.51066   0.00000  Uiso   1.00
O811   O     0.25511   0.62451   0.72015   0.00000  Uiso   1.00
O812   O     0.20627   0.56012   0.75001   0.00000  Uiso   1.00
O813   O     0.10775   0.49998   0.82549   0.00000  Uiso   1.00
O814   O     0.18694   0.49999   0.82549   0.00000  Uiso   1.00
O815   O     0.12706   0.43988   0.75000   0.00000  Uiso   1.00
O816   O     0.20625   0.43989   0.75000   0.00000  Uiso   1.00
O817   O     0.14640   0.50001   0.67451   0.00000  Uiso   1.00
O818   O     0.22559   0.50002   0.67451   0.00000  Uiso   1.00
O819   O     0.03120   0.56213   0.80321   0.00000  Uiso   1.00
C820   C     0.50039   0.57921   0.74916   0.00000  Uiso   1.00
C821   C     0.45817   0.51442   0.90667   0.00000  Uiso   1.00
C822   C     0.54520   0.64559   0.73456   0.00000  Uiso   1.00
C823   C     0.47426   0.50398   0.84985   0.00000  Uiso   1.00
C824   C     0.54416   0.35518   0.73547   0.00000  Uiso   1.00
C825   C     0.50028   0.37628   0.74872   0.00000  Uiso   1.00
C826   C     0.45695   0.35465   0.76075   0.00000  Uiso   1.00
C827   C     0.45743   0.64544   0.76044   0.00000  Uiso   1.00
C828   C     0.50122   0.62398   0.74787   0.00000  Uiso   1.00
C829   C     0.63593   0.53079   0.77364   0.00000  Uiso   1.00
C830   C     0.35097   0.53039   0.77561   0.00000  Uiso   1.00
C831   C     0.47708   0.52073   0.98983   0.00000  Uiso   1.00
C832   C     0.36440   0.47051   0.72284   0.00000  Uiso   1.00
C833   C     0.64810   0.46998   0.72424   0.00000  Uiso   1.00
C834   C     0.50000   0.42086   0.74970   0.00000  Uiso   1.00
C835   C     0.52531   0.49874   0.65023   0.00000  Uiso   1.00
C836   C     0.59595   0.49749   0.50949   0.00000  Uiso   1.00
C837   C     0.53824   0.49892   0.59338   0.00000  Uiso   1.00
C838   C     0.40860   0.51594   0.93376   0.00000  Uiso   1.00
C839   C     0.39482   0.52863   0.98627   0.00000  Uiso   1.00
C840   C     0.42819   0.52677   0.51491   0.00000  Uiso   1.00
C841   C     0.62313   0.47595   0.58293   0.00000  Uiso   1.00
C842   C     0.49165   0.52315   0.93540   0.00000  Uiso   1.00
C843   C     0.39540   0.44043   0.69026   0.00000  Uiso   1.00
C844   C     0.37238   0.50066   0.91010   0.00000  Uiso   1.00
C845   C     0.54562   0.57021   0.87758   0.00000  Uiso   1.00
C846   C     0.51269   0.51402   0.51610   0.00000  Uiso   1.00
C847   C     0.56125   0.51231   0.98708   0.00000  Uiso   1.00
C848   C     0.57420   0.52801   0.93717   0.00000  Uiso   1.00
C849   C     0.53863   0.53644   0.91276   0.00000  Uiso   1.00
C850   C     0.50187   0.50772   0.56942   0.00000  Uiso   1.00
C851   C     0.58523   0.49101   0.56238   0.00000  Uiso   1.00
Cu852  Cu    0.45311   0.49999   0.75000   0.00000  Uiso   1.00
Cu853  Cu    0.54689   0.50001   0.75000   0.00000  Uiso   1.00
H854   H     0.57769   0.37205   0.72529   0.00000  Uiso   1.00
H855   H     0.39047   0.55219   0.81704   0.00000  Uiso   1.00
H856   H     0.33549   0.55436   0.98389   0.00000  Uiso   1.00
H857   H     0.61535   0.64445   0.71237   0.00000  Uiso   1.00
H858   H     0.42268   0.37057   0.77108   0.00000  Uiso   1.00
H859   H     0.42339   0.62940   0.77066   0.00000  Uiso   1.00
H860   H     0.61335   0.55605   0.79141   0.00000  Uiso   1.00
H861   H     0.63445   0.44596   0.70351   0.00000  Uiso   1.00
H862   H     0.61080   0.53720   0.91954   0.00000  Uiso   1.00
H863   H     0.63140   0.49054   0.98585   0.00000  Uiso   1.00
H864   H     0.46531   0.50996   0.59296   0.00000  Uiso   1.00
H865   H     0.41542   0.53274   0.55601   0.00000  Uiso   1.00
N866   N     0.38265   0.49999   0.74999   0.00000  Uiso   1.00
N867   N     0.61735   0.50002   0.75000   0.00000  Uiso   1.00
N868   N     0.65377   0.46387   0.59894   0.00000  Uiso   1.00
N869   N     0.42007   0.41621   0.66374   0.00000  Uiso   1.00
N870   N     0.34461   0.48730   0.89012   0.00000  Uiso   1.00
N871   N     0.55020   0.59815   0.85075   0.00000  Uiso   1.00
O872   O     0.46042   0.56011   0.75001   0.00000  Uiso   1.00
O873   O     0.34966   0.54340   0.51066   0.00000  Uiso   1.00
O874   O     0.58844   0.62451   0.72015   0.00000  Uiso   1.00
O875   O     0.53961   0.56012   0.75001   0.00000  Uiso   1.00
O876   O     0.44108   0.49998   0.82549   0.00000  Uiso   1.00
O877   O     0.52027   0.49999   0.82549   0.00000  Uiso   1.00
O878   O     0.46039   0.43988   0.75000   0.00000  Uiso   1.00
O879   O     0.53958   0.43989   0.75000   0.00000  Uiso   1.00
O880   O     0.47973   0.50001   0.67451   0.00000  Uiso   1.00
O881   O     0.55892   0.50002   0.67451   0.00000  Uiso   1.00
O882   O     0.36453   0.56213   0.80321   0.00000  Uiso   1.00
C883   C     0.83372   0.57921   0.74916   0.00000  Uiso   1.00
C884   C     0.79150   0.51442   0.90667   0.00000  Uiso   1.00
C885   C     0.87853   0.64559   0.73456   0.00000  Uiso   1.00
C886   C     0.80759   0.50398   0.84985   0.00000  Uiso   1.00
C887   C     0.87749   0.35518   0.73547   0.00000  Uiso   1.00
C888   C     0.83361   0.37628   0.74872   0.00000  Uiso   1.00
C889   C     0.79028   0.35465   0.76075   0.00000  Uiso   1.00
C890   C     0.79076   0.64544   0.76044   0.00000  Uiso   1.00
C891   C     0.83456   0.62398   0.74787   0.00000  Uiso   1.00
C892   C     0.96926   0.53079   0.77364   0.00000  Uiso   1.00
C893   C     0.68431   0.53039   0.77561   0.00000  Uiso   1.00
C894   C     0.81041   0.52073   0.98983   0.00000  Uiso   1.00
C895   C     0.69773   0.47051   0.72284   0.00000  Uiso   1.00
C896   C     0.98143   0.46998   0.72424   0.00000  Uiso   1.00
C897   C     0.83334   0.42086   0.74970   0.00000  Uiso   1.00
C898   C     0.85864   0.49874   0.65023   0.00000  Uiso   1.00
C899   C     0.92929   0.49749   0.50949   0.00000  Uiso   1.00
C900   C     0.87158   0.49892   0.59338   0.00000  Uiso   1.00
C901   C     0.74194   0.51594   0.93376   0.00000  Uiso   1.00
C902   C     0.72815   0.52863   0.98627   0.00000  Uiso   1.00
C903   C     0.76152   0.52677   0.51491   0.00000  Uiso   1.00
C904   C     0.95646   0.47595   0.58293   0.00000  Uiso   1.00
C905   C     0.82499   0.52315   0.93540   0.00000  Uiso   1.00
C906   C     0.72873   0.44043   0.69026   0.00000  Uiso   1.00
C907   C     0.70571   0.50066   0.91010   0.00000  Uiso   1.00
C908   C     0.87896   0.57021   0.87758   0.00000  Uiso   1.00
C909   C     0.84602   0.51402   0.51610   0.00000  Uiso   1.00
C910   C     0.89459   0.51231   0.98708   0.00000  Uiso   1.00
C911   C     0.90753   0.52801   0.93717   0.00000  Uiso   1.00
C912   C     0.87196   0.53644   0.91276   0.00000  Uiso   1.00
C913   C     0.83520   0.50772   0.56942   0.00000  Uiso   1.00
C914   C     0.91856   0.49101   0.56238   0.00000  Uiso   1.00
Cu915  Cu    0.78645   0.49999   0.75000   0.00000  Uiso   1.00
Cu916  Cu    0.88022   0.50001   0.75000   0.00000  Uiso   1.00
H917   H     0.91102   0.37205   0.72529   0.00000  Uiso   1.00
H918   H     0.72380   0.55219   0.81704   0.00000  Uiso   1.00
H919   H     0.66883   0.55436   0.98389   0.00000  Uiso   1.00
H920   H     0.94869   0.64445   0.71237   0.00000  Uiso   1.00
H921   H     0.75601   0.37057   0.77108   0.00000  Uiso   1.00
H922   H     0.75673   0.62940   0.77066   0.00000  Uiso   1.00
H923   H     0.94668   0.55605   0.79141   0.00000  Uiso   1.00
H924   H     0.96779   0.44596   0.70351   0.00000  Uiso   1.00
H925   H     0.94413   0.53720   0.91954   0.00000  Uiso   1.00
H926   H     0.96474   0.49054   0.98585   0.00000  Uiso   1.00
H927   H     0.79864   0.50996   0.59296   0.00000  Uiso   1.00
H928   H     0.74875   0.53274   0.55601   0.00000  Uiso   1.00
N929   N     0.71598   0.49999   0.74999   0.00000  Uiso   1.00
N930   N     0.95069   0.50002   0.75000   0.00000  Uiso   1.00
N931   N     0.98710   0.46387   0.59894   0.00000  Uiso   1.00
N932   N     0.75341   0.41621   0.66374   0.00000  Uiso   1.00
N933   N     0.67795   0.48730   0.89012   0.00000  Uiso   1.00
N934   N     0.88354   0.59815   0.85075   0.00000  Uiso   1.00
O935   O     0.79375   0.56011   0.75001   0.00000  Uiso   1.00
O936   O     0.68299   0.54340   0.51066   0.00000  Uiso   1.00
O937   O     0.92177   0.62451   0.72015   0.00000  Uiso   1.00
O938   O     0.87294   0.56012   0.75001   0.00000  Uiso   1.00
O939   O     0.77441   0.49998   0.82549   0.00000  Uiso   1.00
O940   O     0.85360   0.49999   0.82549   0.00000  Uiso   1.00
O941   O     0.79373   0.43988   0.75000   0.00000  Uiso   1.00
O942   O     0.87292   0.43989   0.75000   0.00000  Uiso   1.00
O943   O     0.81306   0.50001   0.67451   0.00000  Uiso   1.00
O944   O     0.89225   0.50002   0.67451   0.00000  Uiso   1.00
O945   O     0.69786   0.56213   0.80321   0.00000  Uiso   1.00
C946   C     0.16706   0.91254   0.74916   0.00000  Uiso   1.00
C947   C     0.12484   0.84776   0.90667   0.00000  Uiso   1.00
C948   C     0.21187   0.97892   0.73456   0.00000  Uiso   1.00
C949   C     0.14092   0.83732   0.84985   0.00000  Uiso   1.00
C950   C     0.21083   0.68852   0.73547   0.00000  Uiso   1.00
C951   C     0.16695   0.70961   0.74872   0.00000  Uiso   1.00
C952   C     0.12362   0.68798   0.76075   0.00000  Uiso   1.00
C953   C     0.12410   0.97877   0.76044   0.00000  Uiso   1.00
C954   C     0.16789   0.95732   0.74787   0.00000  Uiso   1.00
C955   C     0.30260   0.86412   0.77364   0.00000  Uiso   1.00
C956   C     0.01764   0.86373   0.77561   0.00000  Uiso   1.00
C957   C     0.14375   0.85407   0.98983   0.00000  Uiso   1.00
C958   C     0.03106   0.80384   0.72284   0.00000  Uiso   1.00
C959   C     0.31477   0.80332   0.72424   0.00000  Uiso   1.00
C960   C     0.16667   0.75420   0.74970   0.00000  Uiso   1.00
C961   C     0.19198   0.83208   0.65023   0.00000  Uiso   1.00
C962   C     0.26262   0.83082   0.50949   0.00000  Uiso   1.00
C963   C     0.20491   0.83225   0.59338   0.00000  Uiso   1.00
C964   C     0.07527   0.84928   0.93376   0.00000  Uiso   1.00
C965   C     0.06149   0.86196   0.98627   0.00000  Uiso   1.00
C966   C     0.09486   0.86010   0.51491   0.00000  Uiso   1.00
C967   C     0.28979   0.80928   0.58293   0.00000  Uiso   1.00
C968   C     0.15832   0.85648   0.93540   0.00000  Uiso   1.00
C969   C     0.06206   0.77376   0.69026   0.00000  Uiso   1.00
C970   C     0.03905   0.83399   0.91010   0.00000  Uiso   1.00
C971   C     0.21229   0.90354   0.87758   0.00000  Uiso   1.00
C972   C     0.17935   0.84735   0.51610   0.00000  Uiso   1.00
C973   C     0.22792   0.84565   0.98708   0.00000  Uiso   1.00
C974   C     0.24086   0.86134   0.93717   0.00000  Uiso   1.00
C975   C     0.20529   0.86978   0.91276   0.00000  Uiso   1.00
C976   C     0.16853   0.84105   0.56942   0.00000  Uiso   1.00
C977   C     0.25189   0.82434   0.56238   0.00000  Uiso   1.00
Cu978  Cu    0.11978   0.83333   0.75000   0.00000  Uiso   1.00
Cu979  Cu    0.21355   0.83334   0.75000   0.00000  Uiso   1.00
H980   H     0.24436   0.70539   0.72529   0.00000  Uiso   1.00
H981   H     0.05713   0.88553   0.81704   0.00000  Uiso   1.00
H982   H     0.00216   0.88769   0.98389   0.00000  Uiso   1.00
H983   H     0.28202   0.97778   0.71237   0.00000  Uiso   1.00
H984   H     0.08935   0.70391   0.77108   0.00000  Uiso   1.00
H985   H     0.09006   0.96273   0.77066   0.00000  Uiso   1.00
H986   H     0.28002   0.88938   0.79141   0.00000  Uiso   1.00
H987   H     0.30112   0.77929   0.70351   0.00000  Uiso   1.00
H988   H     0.27746   0.87053   0.91954   0.00000  Uiso   1.00
H989   H     0.29807   0.82387   0.98585   0.00000  Uiso   1.00
H990   H     0.13197   0.84329   0.59296   0.00000  Uiso   1.00
H991   H     0.08208   0.86608   0.55601   0.00000  Uiso   1.00
N992   N     0.04931   0.83332   0.74999   0.00000  Uiso   1.00
N993   N     0.28402   0.83335   0.75000   0.00000  Uiso   1.00
N994   N     0.32044   0.79720   0.59894   0.00000  Uiso   1.00
N995   N     0.08674   0.74954   0.66374   0.00000  Uiso   1.00
N996   N     0.01128   0.82063   0.89012   0.00000  Uiso   1.00
N997   N     0.21687   0.93149   0.85075   0.00000  Uiso   1.00
O998   O     0.12708   0.89345   0.75001   0.00000  Uiso   1.00
O999   O     0.01632   0.87673   0.51066   0.00000  Uiso   1.00
O1000  O     0.25511   0.95784   0.72015   0.00000  Uiso   1.00
O1001  O     0.20627   0.89346   0.75001   0.00000  Uiso   1.00
O1002  O     0.10775   0.83332   0.82549   0.00000  Uiso   1.00
O1003  O     0.18694   0.83333   0.82549   0.00000  Uiso   1.00
O1004  O     0.12706   0.77321   0.75000   0.00000  Uiso   1.00
O1005  O     0.20625   0.77322   0.75000   0.00000  Uiso   1.00
O1006  O     0.14640   0.83334   0.67451   0.00000  Uiso   1.00
O1007  O     0.22559   0.83335   0.67451   0.00000  Uiso   1.00
O1008  O     0.03120   0.89546   0.80321   0.00000  Uiso   1.00
C1009  C     0.50039   0.91254   0.74916   0.00000  Uiso   1.00
C1010  C     0.45817   0.84776   0.90667   0.00000  Uiso   1.00
C1011  C     0.54520   0.97892   0.73456   0.00000  Uiso   1.00
C1012  C     0.47426   0.83732   0.84985   0.00000  Uiso   1.00
C1013  C     0.54416   0.68852   0.73547   0.00000  Uiso   1.00
C1014  C     0.50028   0.70961   0.74872   0.00000  Uiso   1.00
C1015  C     0.45695   0.68798   0.76075   0.00000  Uiso   1.00
C1016  C     0.45743   0.97877   0.76044   0.00000  Uiso   1.00
C1017  C     0.50122   0.95732   0.74787   0.00000  Uiso   1.00
C1018  C     0.63593   0.86412   0.77364   0.00000  Uiso   1.00
C1019  C     0.35097   0.86373   0.77561   0.00000  Uiso   1.00
C1020  C     0.47708   0.85407   0.98983   0.00000  Uiso   1.00
C1021  C     0.36440   0.80384   0.72284   0.00000  Uiso   1.00
C1022  C     0.64810   0.80332   0.72424   0.00000  Uiso   1.00
C1023  C     0.50000   0.75420   0.74970   0.00000  Uiso   1.00
C1024  C     0.52531   0.83208   0.65023   0.00000  Uiso   1.00
C1025  C     0.59595   0.83082   0.50949   0.00000  Uiso   1.00
C1026  C     0.53824   0.83225   0.59338   0.00000  Uiso   1.00
C1027  C     0.40860   0.84928   0.93376   0.00000  Uiso   1.00
C1028  C     0.39482   0.86196   0.98627   0.00000  Uiso   1.00
C1029  C     0.42819   0.86010   0.51491   0.00000  Uiso   1.00
C1030  C     0.62313   0.80928   0.58293   0.00000  Uiso   1.00
C1031  C     0.49165   0.85648   0.93540   0.00000  Uiso   1.00
C1032  C     0.39540   0.77376   0.69026   0.00000  Uiso   1.00
C1033  C     0.37238   0.83399   0.91010   0.00000  Uiso   1.00
C1034  C     0.54562   0.90354   0.87758   0.00000  Uiso   1.00
C1035  C     0.51269   0.84735   0.51610   0.00000  Uiso   1.00
C1036  C     0.56125   0.84565   0.98708   0.00000  Uiso   1.00
C1037  C     0.57420   0.86134   0.93717   0.00000  Uiso   1.00
C1038  C     0.53863   0.86978   0.91276   0.00000  Uiso   1.00
C1039  C     0.50187   0.84105   0.56942   0.00000  Uiso   1.00
C1040  C     0.58523   0.82434   0.56238   0.00000  Uiso   1.00
Cu1041 Cu    0.45311   0.83333   0.75000   0.00000  Uiso   1.00
Cu1042 Cu    0.54689   0.83334   0.75000   0.00000  Uiso   1.00
H1043  H     0.57769   0.70539   0.72529   0.00000  Uiso   1.00
H1044  H     0.39047   0.88553   0.81704   0.00000  Uiso   1.00
H1045  H     0.33549   0.88769   0.98389   0.00000  Uiso   1.00
H1046  H     0.61535   0.97778   0.71237   0.00000  Uiso   1.00
H1047  H     0.42268   0.70391   0.77108   0.00000  Uiso   1.00
H1048  H     0.42339   0.96273   0.77066   0.00000  Uiso   1.00
H1049  H     0.61335   0.88938   0.79141   0.00000  Uiso   1.00
H1050  H     0.63445   0.77929   0.70351   0.00000  Uiso   1.00
H1051  H     0.61080   0.87053   0.91954   0.00000  Uiso   1.00
H1052  H     0.63140   0.82387   0.98585   0.00000  Uiso   1.00
H1053  H     0.46531   0.84329   0.59296   0.00000  Uiso   1.00
H1054  H     0.41542   0.86608   0.55601   0.00000  Uiso   1.00
N1055  N     0.38265   0.83332   0.74999   0.00000  Uiso   1.00
N1056  N     0.61735   0.83335   0.75000   0.00000  Uiso   1.00
N1057  N     0.65377   0.79720   0.59894   0.00000  Uiso   1.00
N1058  N     0.42007   0.74954   0.66374   0.00000  Uiso   1.00
N1059  N     0.34461   0.82063   0.89012   0.00000  Uiso   1.00
N1060  N     0.55020   0.93149   0.85075   0.00000  Uiso   1.00
O1061  O     0.46042   0.89345   0.75001   0.00000  Uiso   1.00
O1062  O     0.34966   0.87673   0.51066   0.00000  Uiso   1.00
O1063  O     0.58844   0.95784   0.72015   0.00000  Uiso   1.00
O1064  O     0.53961   0.89346   0.75001   0.00000  Uiso   1.00
O1065  O     0.44108   0.83332   0.82549   0.00000  Uiso   1.00
O1066  O     0.52027   0.83333   0.82549   0.00000  Uiso   1.00
O1067  O     0.46039   0.77321   0.75000   0.00000  Uiso   1.00
O1068  O     0.53958   0.77322   0.75000   0.00000  Uiso   1.00
O1069  O     0.47973   0.83334   0.67451   0.00000  Uiso   1.00
O1070  O     0.55892   0.83335   0.67451   0.00000  Uiso   1.00
O1071  O     0.36453   0.89546   0.80321   0.00000  Uiso   1.00
C1072  C     0.83372   0.91254   0.74916   0.00000  Uiso   1.00
C1073  C     0.79150   0.84776   0.90667   0.00000  Uiso   1.00
C1074  C     0.87853   0.97892   0.73456   0.00000  Uiso   1.00
C1075  C     0.80759   0.83732   0.84985   0.00000  Uiso   1.00
C1076  C     0.87749   0.68852   0.73547   0.00000  Uiso   1.00
C1077  C     0.83361   0.70961   0.74872   0.00000  Uiso   1.00
C1078  C     0.79028   0.68798   0.76075   0.00000  Uiso   1.00
C1079  C     0.79076   0.97877   0.76044   0.00000  Uiso   1.00
C1080  C     0.83456   0.95732   0.74787   0.00000  Uiso   1.00
C1081  C     0.96926   0.86412   0.77364   0.00000  Uiso   1.00
C1082  C     0.68431   0.86373   0.77561   0.00000  Uiso   1.00
C1083  C     0.81041   0.85407   0.98983   0.00000  Uiso   1.00
C1084  C     0.69773   0.80384   0.72284   0.00000  Uiso   1.00
C1085  C     0.98143   0.80332   0.72424   0.00000  Uiso   1.00
C1086  C     0.83334   0.75420   0.74970   0.00000  Uiso   1.00
C1087  C     0.85864   0.83208   0.65023   0.00000  Uiso   1.00
C1088  C     0.92929   0.83082   0.50949   0.00000  Uiso   1.00
C1089  C     0.87158   0.83225   0.59338   0.00000  Uiso   1.00
C1090  C     0.74194   0.84928   0.93376   0.00000  Uiso   1.00
C1091  C     0.72815   0.86196   0.98627   0.00000  Uiso   1.00
C1092  C     0.76152   0.86010   0.51491   0.00000  Uiso   1.00
C1093  C     0.95646   0.80928   0.58293   0.00000  Uiso   1.00
C1094  C     0.82499   0.85648   0.93540   0.00000  Uiso   1.00
C1095  C     0.72873   0.77376   0.69026   0.00000  Uiso   1.00
C1096  C     0.70571   0.83399   0.91010   0.00000  Uiso   1.00
C1097  C     0.87896   0.90354   0.87758   0.00000  Uiso   1.00
C1098  C     0.84602   0.84735   0.51610   0.00000  Uiso   1.00
C1099  C     0.89459   0.84565   0.98708   0.00000  Uiso   1.00
C1100  C     0.90753   0.86134   0.93717   0.00000  Uiso   1.00
C1101  C     0.87196   0.86978   0.91276   0.00000  Uiso   1.00
C1102  C     0.83520   0.84105   0.56942   0.00000  Uiso   1.00
C1103  C     0.91856   0.82434   0.56238   0.00000  Uiso   1.00
Cu1104 Cu    0.78645   0.83333   0.75000   0.00000  Uiso   1.00
Cu1105 Cu    0.88022   0.83334   0.75000   0.00000  Uiso   1.00
H1106  H     0.91102   0.70539   0.72529   0.00000  Uiso   1.00
H1107  H     0.72380   0.88553   0.81704   0.00000  Uiso   1.00
H1108  H     0.66883   0.88769   0.98389   0.00000  Uiso   1.00
H1109  H     0.94869   0.97778   0.71237   0.00000  Uiso   1.00
H1110  H     0.75601   0.70391   0.77108   0.00000  Uiso   1.00
H1111  H     0.75673   0.96273   0.77066   0.00000  Uiso   1.00
H1112  H     0.94668   0.88938   0.79141   0.00000  Uiso   1.00
H1113  H     0.96779   0.77929   0.70351   0.00000  Uiso   1.00
H1114  H     0.94413   0.87053   0.91954   0.00000  Uiso   1.00
H1115  H     0.96474   0.82387   0.98585   0.00000  Uiso   1.00
H1116  H     0.79864   0.84329   0.59296   0.00000  Uiso   1.00
H1117  H     0.74875   0.86608   0.55601   0.00000  Uiso   1.00
N1118  N     0.71598   0.83332   0.74999   0.00000  Uiso   1.00
N1119  N     0.95069   0.83335   0.75000   0.00000  Uiso   1.00
N1120  N     0.98710   0.79720   0.59894   0.00000  Uiso   1.00
N1121  N     0.75341   0.74954   0.66374   0.00000  Uiso   1.00
N1122  N     0.67795   0.82063   0.89012   0.00000  Uiso   1.00
N1123  N     0.88354   0.93149   0.85075   0.00000  Uiso   1.00
O1124  O     0.79375   0.89345   0.75001   0.00000  Uiso   1.00
O1125  O     0.68299   0.87673   0.51066   0.00000  Uiso   1.00
O1126  O     0.92177   0.95784   0.72015   0.00000  Uiso   1.00
O1127  O     0.87294   0.89346   0.75001   0.00000  Uiso   1.00
O1128  O     0.77441   0.83332   0.82549   0.00000  Uiso   1.00
O1129  O     0.85360   0.83333   0.82549   0.00000  Uiso   1.00
O1130  O     0.79373   0.77321   0.75000   0.00000  Uiso   1.00
O1131  O     0.87292   0.77322   0.75000   0.00000  Uiso   1.00
O1132  O     0.81306   0.83334   0.67451   0.00000  Uiso   1.00
O1133  O     0.89225   0.83335   0.67451   0.00000  Uiso   1.00
O1134  O     0.69786   0.89546   0.80321   0.00000  Uiso   1.00
loop_
_geom_bond_atom_site_label_1
_geom_bond_atom_site_label_2
_geom_bond_distance
_geom_bond_site_symmetry_2
_ccdc_geom_bond_type
C1     C9      1.456   .     S
C1     O56     1.299   .     A
C1     O53     1.305   .     A
C2     C4      1.502   .     S
C2     C23     1.415   .     A
C2     C19     1.422   .     A
C3     C9      1.413   .     A
C3     O55     1.383   .     S
C3     C194    1.395   .     S
C4     O57     1.303   .     A
C4     O58     1.320   .     A
C5     H35     1.084   .     S
C5     C6      1.399   .     A
C5     C381    1.395   1_545 S
C6     C7      1.397   .     A
C6     C15     1.449   .     S
C7     H39     1.084   .     S
C7     C386    1.382   1_545 S
C8     H40     1.083   .     S
C8     C9      1.402   .     A
C8     C196    1.382   .     S
C10    H41     1.070   .     S
C10    N48     1.358   .     A
C10    C74     1.413   .     S
C11    N47     1.387   .     A
C11    O63     1.373   .     S
C11    C136    1.413   1_455 S
C12    C23     1.413   .     A
C12    C588    1.404   .     S
C12    C594    1.416   .     S
C13    N47     1.379   .     A
C13    C24     1.438   .     S
C13    C140    1.425   1_455 S
C14    H42     1.082   .     S
C14    N48     1.365   .     A
C14    C76     1.425   .     S
C15    O60     1.300   .     A
C15    O59     1.301   .     A
C16    C18     1.472   .     S
C16    O61     1.303   .     A
C16    O62     1.308   .     A
C17    C32     1.391   .     A
C17    C595    1.394   1_554 S
C17    H611    1.072   1_554 S
C18    C32     1.409   .     A
C18    C31     1.406   .     A
C19    C20     1.411   .     A
C19    C25     1.445   .     S
C20    C588    1.389   .     S
C20    O621    1.375   .     S
C21    H46     1.079   .     S
C21    C579    1.404   1_554 S
C21    C587    1.389   1_554 S
C22    C32     1.444   .     S
C22    N49     1.157   .     T
C23    C30     1.401   .     A
C24    N50     1.158   .     T
C25    N51     1.157   .     T
C26    N52     1.157   .     T
C26    C30     1.443   .     S
C27    C31     1.401   .     A
C27    C579    1.416   1_554 S
C27    C595    1.411   1_554 S
C28    C29     1.399   .     A
C28    C594    1.411   .     S
C28    C584    1.394   .     S
C29    H43     1.080   .     S
C29    C30     1.391   .     A
C31    H45     1.077   .     S
Cu33   Cu34    2.710   .     S
Cu33   O59     1.965   .     S
Cu33   O57     1.964   .     S
Cu33   N47     2.037   .     S
Cu33   O53     1.964   .     S
Cu33   O61     1.966   .     S
Cu34   O56     1.965   .     S
Cu34   O60     1.964   .     S
Cu34   O62     1.964   .     S
Cu34   N48     2.036   .     S
Cu34   O58     1.966   .     S
H36    O63     0.980   .     S
H37    O621    0.992   .     S
H38    O55     0.992   .     S
H44    C584    1.072   .     S
O54    C587    1.375   1_554 S
O54    H604    0.992   1_554 S
C64    C72     1.456   .     S
C64    O119    1.299   .     A
C64    O116    1.305   .     A
C65    C67     1.502   .     S
C65    C86     1.415   .     A
C65    C82     1.422   .     A
C66    C72     1.413   .     A
C66    O118    1.383   .     S
C66    C257    1.395   .     S
C67    O120    1.303   .     A
C67    O121    1.320   .     A
C68    H98     1.084   .     S
C68    C69     1.399   .     A
C68    C444    1.395   1_545 S
C69    C70     1.397   .     A
C69    C78     1.449   .     S
C70    H102    1.084   .     S
C70    C449    1.382   1_545 S
C71    H103    1.083   .     S
C71    C72     1.402   .     A
C71    C259    1.382   .     S
C73    H104    1.070   .     S
C73    N111    1.358   .     A
C73    C137    1.413   .     S
C74    N110    1.387   .     A
C74    O126    1.373   .     S
C75    C86     1.413   .     A
C75    C651    1.404   .     S
C75    C657    1.416   .     S
C76    N110    1.379   .     A
C76    C87     1.438   .     S
C77    H105    1.082   .     S
C77    N111    1.365   .     A
C77    C139    1.425   .     S
C78    O123    1.300   .     A
C78    O122    1.301   .     A
C79    C81     1.472   .     S
C79    O124    1.303   .     A
C79    O125    1.308   .     A
C80    C95     1.391   .     A
C80    C658    1.394   1_554 S
C80    H674    1.072   1_554 S
C81    C95     1.409   .     A
C81    C94     1.406   .     A
C82    C83     1.411   .     A
C82    C88     1.445   .     S
C83    C651    1.389   .     S
C83    O684    1.375   .     S
C84    H109    1.079   .     S
C84    C642    1.404   1_554 S
C84    C650    1.389   1_554 S
C85    C95     1.444   .     S
C85    N112    1.157   .     T
C86    C93     1.401   .     A
C87    N113    1.158   .     T
C88    N114    1.157   .     T
C89    N115    1.157   .     T
C89    C93     1.443   .     S
C90    C94     1.401   .     A
C90    C642    1.416   1_554 S
C90    C658    1.411   1_554 S
C91    C92     1.399   .     A
C91    C657    1.411   .     S
C91    C647    1.394   .     S
C92    H106    1.080   .     S
C92    C93     1.391   .     A
C94    H108    1.077   .     S
Cu96   Cu97    2.710   .     S
Cu96   O122    1.965   .     S
Cu96   O120    1.964   .     S
Cu96   N110    2.037   .     S
Cu96   O116    1.964   .     S
Cu96   O124    1.966   .     S
Cu97   O119    1.965   .     S
Cu97   O123    1.964   .     S
Cu97   O125    1.964   .     S
Cu97   N111    2.036   .     S
Cu97   O121    1.966   .     S
H99    O126    0.980   .     S
H100   O684    0.992   .     S
H101   O118    0.992   .     S
H107   C647    1.072   .     S
O117   C650    1.375   1_554 S
O117   H667    0.992   1_554 S
C127   C135    1.456   .     S
C127   O182    1.299   .     A
C127   O179    1.305   .     A
C128   C130    1.502   .     S
C128   C149    1.415   .     A
C128   C145    1.422   .     A
C129   C135    1.413   .     A
C129   O181    1.383   .     S
C129   C320    1.395   .     S
C130   O183    1.303   .     A
C130   O184    1.320   .     A
C131   H161    1.084   .     S
C131   C132    1.399   .     A
C131   C507    1.395   1_545 S
C132   C133    1.397   .     A
C132   C141    1.449   .     S
C133   H165    1.084   .     S
C133   C512    1.382   1_545 S
C134   H166    1.083   .     S
C134   C135    1.402   .     A
C134   C322    1.382   .     S
C136   H167    1.070   .     S
C136   N174    1.358   .     A
C136   C11     1.413   1_655 S
C137   N173    1.387   .     A
C137   O189    1.373   .     S
C138   C149    1.413   .     A
C138   C714    1.404   .     S
C138   C720    1.416   .     S
C139   N173    1.379   .     A
C139   C150    1.438   .     S
C140   H168    1.082   .     S
C140   N174    1.365   .     A
C140   C13     1.425   1_655 S
C141   O186    1.300   .     A
C141   O185    1.301   .     A
C142   C144    1.472   .     S
C142   O187    1.303   .     A
C142   O188    1.308   .     A
C143   C158    1.391   .     A
C143   C721    1.394   1_554 S
C143   H737    1.072   1_554 S
C144   C158    1.409   .     A
C144   C157    1.406   .     A
C145   C146    1.411   .     A
C145   C151    1.445   .     S
C146   C714    1.389   .     S
C146   O747    1.375   .     S
C147   H172    1.079   .     S
C147   C705    1.404   1_554 S
C147   C713    1.389   1_554 S
C148   C158    1.444   .     S
C148   N175    1.157   .     T
C149   C156    1.401   .     A
C150   N176    1.158   .     T
C151   N177    1.157   .     T
C152   N178    1.157   .     T
C152   C156    1.443   .     S
C153   C157    1.401   .     A
C153   C705    1.416   1_554 S
C153   C721    1.411   1_554 S
C154   C155    1.399   .     A
C154   C720    1.411   .     S
C154   C710    1.394   .     S
C155   H169    1.080   .     S
C155   C156    1.391   .     A
C157   H171    1.077   .     S
Cu159  Cu160   2.710   .     S
Cu159  O185    1.965   .     S
Cu159  O183    1.964   .     S
Cu159  N173    2.037   .     S
Cu159  O179    1.964   .     S
Cu159  O187    1.966   .     S
Cu160  O182    1.965   .     S
Cu160  O186    1.964   .     S
Cu160  O188    1.964   .     S
Cu160  N174    2.036   .     S
Cu160  O184    1.966   .     S
H162   O189    0.980   .     S
H163   O747    0.992   .     S
H164   O181    0.992   .     S
H170   C710    1.072   .     S
O180   C713    1.375   1_554 S
O180   H730    0.992   1_554 S
C190   C198    1.456   .     S
C190   O245    1.299   .     A
C190   O242    1.305   .     A
C191   C193    1.502   .     S
C191   C212    1.415   .     A
C191   C208    1.422   .     A
C192   C198    1.413   .     A
C192   O244    1.383   .     S
C192   C383    1.395   .     S
C193   O246    1.303   .     A
C193   O247    1.320   .     A
C194   H224    1.084   .     S
C194   C195    1.399   .     A
C195   C196    1.397   .     A
C195   C204    1.449   .     S
C196   H228    1.084   .     S
C197   H229    1.083   .     S
C197   C198    1.402   .     A
C197   C385    1.382   .     S
C199   H230    1.070   .     S
C199   N237    1.358   .     A
C199   C263    1.413   .     S
C200   N236    1.387   .     A
C200   O252    1.373   .     S
C200   C325    1.413   1_455 S
C201   C212    1.413   .     A
C201   C777    1.404   .     S
C201   C783    1.416   .     S
C202   N236    1.379   .     A
C202   C213    1.438   .     S
C202   C329    1.425   1_455 S
C203   H231    1.082   .     S
C203   N237    1.365   .     A
C203   C265    1.425   .     S
C204   O249    1.300   .     A
C204   O248    1.301   .     A
C205   C207    1.472   .     S
C205   O250    1.303   .     A
C205   O251    1.308   .     A
C206   C221    1.391   .     A
C206   C784    1.394   1_554 S
C206   H800    1.072   1_554 S
C207   C221    1.409   .     A
C207   C220    1.406   .     A
C208   C209    1.411   .     A
C208   C214    1.445   .     S
C209   C777    1.389   .     S
C209   O810    1.375   .     S
C210   H235    1.079   .     S
C210   C768    1.404   1_554 S
C210   C776    1.389   1_554 S
C211   C221    1.444   .     S
C211   N238    1.157   .     T
C212   C219    1.401   .     A
C213   N239    1.158   .     T
C214   N240    1.157   .     T
C215   N241    1.157   .     T
C215   C219    1.443   .     S
C216   C220    1.401   .     A
C216   C768    1.416   1_554 S
C216   C784    1.411   1_554 S
C217   C218    1.399   .     A
C217   C783    1.411   .     S
C217   C773    1.394   .     S
C218   H232    1.080   .     S
C218   C219    1.391   .     A
C220   H234    1.077   .     S
Cu222  Cu223   2.710   .     S
Cu222  O248    1.965   .     S
Cu222  O246    1.964   .     S
Cu222  N236    2.037   .     S
Cu222  O242    1.964   .     S
Cu222  O250    1.966   .     S
Cu223  O245    1.965   .     S
Cu223  O249    1.964   .     S
Cu223  O251    1.964   .     S
Cu223  N237    2.036   .     S
Cu223  O247    1.966   .     S
H225   O252    0.980   .     S
H226   O810    0.992   .     S
H227   O244    0.992   .     S
H233   C773    1.072   .     S
O243   C776    1.375   1_554 S
O243   H793    0.992   1_554 S
C253   C261    1.456   .     S
C253   O308    1.299   .     A
C253   O305    1.305   .     A
C254   C256    1.502   .     S
C254   C275    1.415   .     A
C254   C271    1.422   .     A
C255   C261    1.413   .     A
C255   O307    1.383   .     S
C255   C446    1.395   .     S
C256   O309    1.303   .     A
C256   O310    1.320   .     A
C257   H287    1.084   .     S
C257   C258    1.399   .     A
C258   C259    1.397   .     A
C258   C267    1.449   .     S
C259   H291    1.084   .     S
C260   H292    1.083   .     S
C260   C261    1.402   .     A
C260   C448    1.382   .     S
C262   H293    1.070   .     S
C262   N300    1.358   .     A
C262   C326    1.413   .     S
C263   N299    1.387   .     A
C263   O315    1.373   .     S
C264   C275    1.413   .     A
C264   C840    1.404   .     S
C264   C846    1.416   .     S
C265   N299    1.379   .     A
C265   C276    1.438   .     S
C266   H294    1.082   .     S
C266   N300    1.365   .     A
C266   C328    1.425   .     S
C267   O312    1.300   .     A
C267   O311    1.301   .     A
C268   C270    1.472   .     S
C268   O313    1.303   .     A
C268   O314    1.308   .     A
C269   C284    1.391   .     A
C269   C847    1.394   1_554 S
C269   H863    1.072   1_554 S
C270   C284    1.409   .     A
C270   C283    1.406   .     A
C271   C272    1.411   .     A
C271   C277    1.445   .     S
C272   C840    1.389   .     S
C272   O873    1.375   .     S
C273   H298    1.079   .     S
C273   C831    1.404   1_554 S
C273   C839    1.389   1_554 S
C274   C284    1.444   .     S
C274   N301    1.157   .     T
C275   C282    1.401   .     A
C276   N302    1.158   .     T
C277   N303    1.157   .     T
C278   N304    1.157   .     T
C278   C282    1.443   .     S
C279   C283    1.401   .     A
C279   C831    1.416   1_554 S
C279   C847    1.411   1_554 S
C280   C281    1.399   .     A
C280   C846    1.411   .     S
C280   C836    1.394   .     S
C281   H295    1.080   .     S
C281   C282    1.391   .     A
C283   H297    1.077   .     S
Cu285  Cu286   2.710   .     S
Cu285  O311    1.965   .     S
Cu285  O309    1.964   .     S
Cu285  N299    2.037   .     S
Cu285  O305    1.964   .     S
Cu285  O313    1.966   .     S
Cu286  O308    1.965   .     S
Cu286  O312    1.964   .     S
Cu286  O314    1.964   .     S
Cu286  N300    2.036   .     S
Cu286  O310    1.966   .     S
H288   O315    0.980   .     S
H289   O873    0.992   .     S
H290   O307    0.992   .     S
H296   C836    1.072   .     S
O306   C839    1.375   1_554 S
O306   H856    0.992   1_554 S
C316   C324    1.456   .     S
C316   O371    1.299   .     A
C316   O368    1.305   .     A
C317   C319    1.502   .     S
C317   C338    1.415   .     A
C317   C334    1.422   .     A
C318   C324    1.413   .     A
C318   O370    1.383   .     S
C318   C509    1.395   .     S
C319   O372    1.303   .     A
C319   O373    1.320   .     A
C320   H350    1.084   .     S
C320   C321    1.399   .     A
C321   C322    1.397   .     A
C321   C330    1.449   .     S
C322   H354    1.084   .     S
C323   H355    1.083   .     S
C323   C324    1.402   .     A
C323   C511    1.382   .     S
C325   H356    1.070   .     S
C325   N363    1.358   .     A
C325   C200    1.413   1_655 S
C326   N362    1.387   .     A
C326   O378    1.373   .     S
C327   C338    1.413   .     A
C327   C903    1.404   .     S
C327   C909    1.416   .     S
C328   N362    1.379   .     A
C328   C339    1.438   .     S
C329   H357    1.082   .     S
C329   N363    1.365   .     A
C329   C202    1.425   1_655 S
C330   O375    1.300   .     A
C330   O374    1.301   .     A
C331   C333    1.472   .     S
C331   O376    1.303   .     A
C331   O377    1.308   .     A
C332   C347    1.391   .     A
C332   C910    1.394   1_554 S
C332   H926    1.072   1_554 S
C333   C347    1.409   .     A
C333   C346    1.406   .     A
C334   C335    1.411   .     A
C334   C340    1.445   .     S
C335   C903    1.389   .     S
C335   O936    1.375   .     S
C336   H361    1.079   .     S
C336   C894    1.404   1_554 S
C336   C902    1.389   1_554 S
C337   C347    1.444   .     S
C337   N364    1.157   .     T
C338   C345    1.401   .     A
C339   N365    1.158   .     T
C340   N366    1.157   .     T
C341   N367    1.157   .     T
C341   C345    1.443   .     S
C342   C346    1.401   .     A
C342   C894    1.416   1_554 S
C342   C910    1.411   1_554 S
C343   C344    1.399   .     A
C343   C909    1.411   .     S
C343   C899    1.394   .     S
C344   H358    1.080   .     S
C344   C345    1.391   .     A
C346   H360    1.077   .     S
Cu348  Cu349   2.710   .     S
Cu348  O374    1.965   .     S
Cu348  O372    1.964   .     S
Cu348  N362    2.037   .     S
Cu348  O368    1.964   .     S
Cu348  O376    1.966   .     S
Cu349  O371    1.965   .     S
Cu349  O375    1.964   .     S
Cu349  O377    1.964   .     S
Cu349  N363    2.036   .     S
Cu349  O373    1.966   .     S
H351   O378    0.980   .     S
H352   O936    0.992   .     S
H353   O370    0.992   .     S
H359   C899    1.072   .     S
O369   C902    1.375   1_554 S
O369   H919    0.992   1_554 S
C379   C387    1.456   .     S
C379   O434    1.299   .     A
C379   O431    1.305   .     A
C380   C382    1.502   .     S
C380   C401    1.415   .     A
C380   C397    1.422   .     A
C381   C387    1.413   .     A
C381   O433    1.383   .     S
C381   C5      1.395   1_565 S
C382   O435    1.303   .     A
C382   O436    1.320   .     A
C383   H413    1.084   .     S
C383   C384    1.399   .     A
C384   C385    1.397   .     A
C384   C393    1.449   .     S
C385   H417    1.084   .     S
C386   H418    1.083   .     S
C386   C387    1.402   .     A
C386   C7      1.382   1_565 S
C388   H419    1.070   .     S
C388   N426    1.358   .     A
C388   C452    1.413   .     S
C389   N425    1.387   .     A
C389   O441    1.373   .     S
C389   C514    1.413   1_455 S
C390   C401    1.413   .     A
C390   C966    1.404   .     S
C390   C972    1.416   .     S
C391   N425    1.379   .     A
C391   C402    1.438   .     S
C391   C518    1.425   1_455 S
C392   H420    1.082   .     S
C392   N426    1.365   .     A
C392   C454    1.425   .     S
C393   O438    1.300   .     A
C393   O437    1.301   .     A
C394   C396    1.472   .     S
C394   O439    1.303   .     A
C394   O440    1.308   .     A
C395   C410    1.391   .     A
C395   C973    1.394   1_554 S
C395   H989    1.072   1_554 S
C396   C410    1.409   .     A
C396   C409    1.406   .     A
C397   C398    1.411   .     A
C397   C403    1.445   .     S
C398   C966    1.389   .     S
C398   O999    1.375   .     S
C399   H424    1.079   .     S
C399   C957    1.404   1_554 S
C399   C965    1.389   1_554 S
C400   C410    1.444   .     S
C400   N427    1.157   .     T
C401   C408    1.401   .     A
C402   N428    1.158   .     T
C403   N429    1.157   .     T
C404   N430    1.157   .     T
C404   C408    1.443   .     S
C405   C409    1.401   .     A
C405   C957    1.416   1_554 S
C405   C973    1.411   1_554 S
C406   C407    1.399   .     A
C406   C972    1.411   .     S
C406   C962    1.394   .     S
C407   H421    1.080   .     S
C407   C408    1.391   .     A
C409   H423    1.077   .     S
Cu411  Cu412   2.710   .     S
Cu411  O437    1.965   .     S
Cu411  O435    1.964   .     S
Cu411  N425    2.037   .     S
Cu411  O431    1.964   .     S
Cu411  O439    1.966   .     S
Cu412  O434    1.965   .     S
Cu412  O438    1.964   .     S
Cu412  O440    1.964   .     S
Cu412  N426    2.036   .     S
Cu412  O436    1.966   .     S
H414   O441    0.980   .     S
H415   O999    0.992   .     S
H416   O433    0.992   .     S
H422   C962    1.072   .     S
O432   C965    1.375   1_554 S
O432   H982    0.992   1_554 S
C442   C450    1.456   .     S
C442   O497    1.299   .     A
C442   O494    1.305   .     A
C443   C445    1.502   .     S
C443   C464    1.415   .     A
C443   C460    1.422   .     A
C444   C450    1.413   .     A
C444   O496    1.383   .     S
C444   C68     1.395   1_565 S
C445   O498    1.303   .     A
C445   O499    1.320   .     A
C446   H476    1.084   .     S
C446   C447    1.399   .     A
C447   C448    1.397   .     A
C447   C456    1.449   .     S
C448   H480    1.084   .     S
C449   H481    1.083   .     S
C449   C450    1.402   .     A
C449   C70     1.382   1_565 S
C451   H482    1.070   .     S
C451   N489    1.358   .     A
C451   C515    1.413   .     S
C452   N488    1.387   .     A
C452   O504    1.373   .     S
C453   C464    1.413   .     A
C453   C1029   1.404   .     S
C453   C1035   1.416   .     S
C454   N488    1.379   .     A
C454   C465    1.438   .     S
C455   H483    1.082   .     S
C455   N489    1.365   .     A
C455   C517    1.425   .     S
C456   O501    1.300   .     A
C456   O500    1.301   .     A
C457   C459    1.472   .     S
C457   O502    1.303   .     A
C457   O503    1.308   .     A
C458   C473    1.391   .     A
C458   C1036   1.394   1_554 S
C458   H1052   1.072   1_554 S
C459   C473    1.409   .     A
C459   C472    1.406   .     A
C460   C461    1.411   .     A
C460   C466    1.445   .     S
C461   C1029   1.389   .     S
C461   O1062   1.375   .     S
C462   H487    1.079   .     S
C462   C1020   1.404   1_554 S
C462   C1028   1.389   1_554 S
C463   C473    1.444   .     S
C463   N490    1.157   .     T
C464   C471    1.401   .     A
C465   N491    1.158   .     T
C466   N492    1.157   .     T
C467   N493    1.157   .     T
C467   C471    1.443   .     S
C468   C472    1.401   .     A
C468   C1020   1.416   1_554 S
C468   C1036   1.411   1_554 S
C469   C470    1.399   .     A
C469   C1035   1.411   .     S
C469   C1025   1.394   .     S
C470   H484    1.080   .     S
C470   C471    1.391   .     A
C472   H486    1.077   .     S
Cu474  Cu475   2.710   .     S
Cu474  O500    1.965   .     S
Cu474  O498    1.964   .     S
Cu474  N488    2.037   .     S
Cu474  O494    1.964   .     S
Cu474  O502    1.966   .     S
Cu475  O497    1.965   .     S
Cu475  O501    1.964   .     S
Cu475  O503    1.964   .     S
Cu475  N489    2.036   .     S
Cu475  O499    1.966   .     S
H477   O504    0.980   .     S
H478   O1062   0.992   .     S
H479   O496    0.992   .     S
H485   C1025   1.072   .     S
O495   C1028   1.375   1_554 S
O495   H1045   0.992   1_554 S
C505   C513    1.456   .     S
C505   O560    1.299   .     A
C505   O557    1.305   .     A
C506   C508    1.502   .     S
C506   C527    1.415   .     A
C506   C523    1.422   .     A
C507   C513    1.413   .     A
C507   O559    1.383   .     S
C507   C131    1.395   1_565 S
C508   O561    1.303   .     A
C508   O562    1.320   .     A
C509   H539    1.084   .     S
C509   C510    1.399   .     A
C510   C511    1.397   .     A
C510   C519    1.449   .     S
C511   H543    1.084   .     S
C512   H544    1.083   .     S
C512   C513    1.402   .     A
C512   C133    1.382   1_565 S
C514   H545    1.070   .     S
C514   N552    1.358   .     A
C514   C389    1.413   1_655 S
C515   N551    1.387   .     A
C515   O567    1.373   .     S
C516   C527    1.413   .     A
C516   C1092   1.404   .     S
C516   C1098   1.416   .     S
C517   N551    1.379   .     A
C517   C528    1.438   .     S
C518   H546    1.082   .     S
C518   N552    1.365   .     A
C518   C391    1.425   1_655 S
C519   O564    1.300   .     A
C519   O563    1.301   .     A
C520   C522    1.472   .     S
C520   O565    1.303   .     A
C520   O566    1.308   .     A
C521   C536    1.391   .     A
C521   C1099   1.394   1_554 S
C521   H1115   1.072   1_554 S
C522   C536    1.409   .     A
C522   C535    1.406   .     A
C523   C524    1.411   .     A
C523   C529    1.445   .     S
C524   C1092   1.389   .     S
C524   O1125   1.375   .     S
C525   H550    1.079   .     S
C525   C1083   1.404   1_554 S
C525   C1091   1.389   1_554 S
C526   C536    1.444   .     S
C526   N553    1.157   .     T
C527   C534    1.401   .     A
C528   N554    1.158   .     T
C529   N555    1.157   .     T
C530   N556    1.157   .     T
C530   C534    1.443   .     S
C531   C535    1.401   .     A
C531   C1083   1.416   1_554 S
C531   C1099   1.411   1_554 S
C532   C533    1.399   .     A
C532   C1098   1.411   .     S
C532   C1088   1.394   .     S
C533   H547    1.080   .     S
C533   C534    1.391   .     A
C535   H549    1.077   .     S
Cu537  Cu538   2.710   .     S
Cu537  O563    1.965   .     S
Cu537  O561    1.964   .     S
Cu537  N551    2.037   .     S
Cu537  O557    1.964   .     S
Cu537  O565    1.966   .     S
Cu538  O560    1.965   .     S
Cu538  O564    1.964   .     S
Cu538  O566    1.964   .     S
Cu538  N552    2.036   .     S
Cu538  O562    1.966   .     S
H540   O567    0.980   .     S
H541   O1125   0.992   .     S
H542   O559    0.992   .     S
H548   C1088   1.072   .     S
O558   C1091   1.375   1_554 S
O558   H1108   0.992   1_554 S
C568   C576    1.456   .     S
C568   O623    1.299   .     A
C568   O620    1.305   .     A
C569   C571    1.502   .     S
C569   C590    1.415   .     A
C569   C586    1.422   .     A
C570   C576    1.413   .     A
C570   O622    1.383   .     S
C570   C761    1.395   .     S
C571   O624    1.303   .     A
C571   O625    1.320   .     A
C572   H602    1.084   .     S
C572   C573    1.399   .     A
C572   C948    1.395   1_545 S
C573   C574    1.397   .     A
C573   C582    1.449   .     S
C574   H606    1.084   .     S
C574   C953    1.382   1_545 S
C575   H607    1.083   .     S
C575   C576    1.402   .     A
C575   C763    1.382   .     S
C577   H608    1.070   .     S
C577   N615    1.358   .     A
C577   C641    1.413   .     S
C578   N614    1.387   .     A
C578   O630    1.373   .     S
C578   C703    1.413   1_455 S
C579   C590    1.413   .     A
C579   C21     1.404   1_556 S
C579   C27     1.416   1_556 S
C580   N614    1.379   .     A
C580   C591    1.438   .     S
C580   C707    1.425   1_455 S
C581   H609    1.082   .     S
C581   N615    1.365   .     A
C581   C643    1.425   .     S
C582   O627    1.300   .     A
C582   O626    1.301   .     A
C583   C585    1.472   .     S
C583   O628    1.303   .     A
C583   O629    1.308   .     A
C584   C599    1.391   .     A
C585   C599    1.409   .     A
C585   C598    1.406   .     A
C586   C587    1.411   .     A
C586   C592    1.445   .     S
C587   C21     1.389   1_556 S
C587   O54     1.375   1_556 S
C588   H613    1.079   .     S
C589   C599    1.444   .     S
C589   N616    1.157   .     T
C590   C597    1.401   .     A
C591   N617    1.158   .     T
C592   N618    1.157   .     T
C593   N619    1.157   .     T
C593   C597    1.443   .     S
C594   C598    1.401   .     A
C595   C596    1.399   .     A
C595   C27     1.411   1_556 S
C595   C17     1.394   1_556 S
C596   H610    1.080   .     S
C596   C597    1.391   .     A
C598   H612    1.077   .     S
Cu600  Cu601   2.710   .     S
Cu600  O626    1.965   .     S
Cu600  O624    1.964   .     S
Cu600  N614    2.037   .     S
Cu600  O620    1.964   .     S
Cu600  O628    1.966   .     S
Cu601  O623    1.965   .     S
Cu601  O627    1.964   .     S
Cu601  O629    1.964   .     S
Cu601  N615    2.036   .     S
Cu601  O625    1.966   .     S
H603   O630    0.980   .     S
H604   O54     0.992   1_556 S
H605   O622    0.992   .     S
H611   C17     1.072   1_556 S
C631   C639    1.456   .     S
C631   O686    1.299   .     A
C631   O683    1.305   .     A
C632   C634    1.502   .     S
C632   C653    1.415   .     A
C632   C649    1.422   .     A
C633   C639    1.413   .     A
C633   O685    1.383   .     S
C633   C824    1.395   .     S
C634   O687    1.303   .     A
C634   O688    1.320   .     A
C635   H665    1.084   .     S
C635   C636    1.399   .     A
C635   C1011   1.395   1_545 S
C636   C637    1.397   .     A
C636   C645    1.449   .     S
C637   H669    1.084   .     S
C637   C1016   1.382   1_545 S
C638   H670    1.083   .     S
C638   C639    1.402   .     A
C638   C826    1.382   .     S
C640   H671    1.070   .     S
C640   N678    1.358   .     A
C640   C704    1.413   .     S
C641   N677    1.387   .     A
C641   O693    1.373   .     S
C642   C653    1.413   .     A
C642   C84     1.404   1_556 S
C642   C90     1.416   1_556 S
C643   N677    1.379   .     A
C643   C654    1.438   .     S
C644   H672    1.082   .     S
C644   N678    1.365   .     A
C644   C706    1.425   .     S
C645   O690    1.300   .     A
C645   O689    1.301   .     A
C646   C648    1.472   .     S
C646   O691    1.303   .     A
C646   O692    1.308   .     A
C647   C662    1.391   .     A
C648   C662    1.409   .     A
C648   C661    1.406   .     A
C649   C650    1.411   .     A
C649   C655    1.445   .     S
C650   C84     1.389   1_556 S
C650   O117    1.375   1_556 S
C651   H676    1.079   .     S
C652   C662    1.444   .     S
C652   N679    1.157   .     T
C653   C660    1.401   .     A
C654   N680    1.158   .     T
C655   N681    1.157   .     T
C656   N682    1.157   .     T
C656   C660    1.443   .     S
C657   C661    1.401   .     A
C658   C659    1.399   .     A
C658   C90     1.411   1_556 S
C658   C80     1.394   1_556 S
C659   H673    1.080   .     S
C659   C660    1.391   .     A
C661   H675    1.077   .     S
Cu663  Cu664   2.710   .     S
Cu663  O689    1.965   .     S
Cu663  O687    1.964   .     S
Cu663  N677    2.037   .     S
Cu663  O683    1.964   .     S
Cu663  O691    1.966   .     S
Cu664  O686    1.965   .     S
Cu664  O690    1.964   .     S
Cu664  O692    1.964   .     S
Cu664  N678    2.036   .     S
Cu664  O688    1.966   .     S
H666   O693    0.980   .     S
H667   O117    0.992   1_556 S
H668   O685    0.992   .     S
H674   C80     1.072   1_556 S
C694   C702    1.456   .     S
C694   O749    1.299   .     A
C694   O746    1.305   .     A
C695   C697    1.502   .     S
C695   C716    1.415   .     A
C695   C712    1.422   .     A
C696   C702    1.413   .     A
C696   O748    1.383   .     S
C696   C887    1.395   .     S
C697   O750    1.303   .     A
C697   O751    1.320   .     A
C698   H728    1.084   .     S
C698   C699    1.399   .     A
C698   C1074   1.395   1_545 S
C699   C700    1.397   .     A
C699   C708    1.449   .     S
C700   H732    1.084   .     S
C700   C1079   1.382   1_545 S
C701   H733    1.083   .     S
C701   C702    1.402   .     A
C701   C889    1.382   .     S
C703   H734    1.070   .     S
C703   N741    1.358   .     A
C703   C578    1.413   1_655 S
C704   N740    1.387   .     A
C704   O756    1.373   .     S
C705   C716    1.413   .     A
C705   C147    1.404   1_556 S
C705   C153    1.416   1_556 S
C706   N740    1.379   .     A
C706   C717    1.438   .     S
C707   H735    1.082   .     S
C707   N741    1.365   .     A
C707   C580    1.425   1_655 S
C708   O753    1.300   .     A
C708   O752    1.301   .     A
C709   C711    1.472   .     S
C709   O754    1.303   .     A
C709   O755    1.308   .     A
C710   C725    1.391   .     A
C711   C725    1.409   .     A
C711   C724    1.406   .     A
C712   C713    1.411   .     A
C712   C718    1.445   .     S
C713   C147    1.389   1_556 S
C713   O180    1.375   1_556 S
C714   H739    1.079   .     S
C715   C725    1.444   .     S
C715   N742    1.157   .     T
C716   C723    1.401   .     A
C717   N743    1.158   .     T
C718   N744    1.157   .     T
C719   N745    1.157   .     T
C719   C723    1.443   .     S
C720   C724    1.401   .     A
C721   C722    1.399   .     A
C721   C153    1.411   1_556 S
C721   C143    1.394   1_556 S
C722   H736    1.080   .     S
C722   C723    1.391   .     A
C724   H738    1.077   .     S
Cu726  Cu727   2.710   .     S
Cu726  O752    1.965   .     S
Cu726  O750    1.964   .     S
Cu726  N740    2.037   .     S
Cu726  O746    1.964   .     S
Cu726  O754    1.966   .     S
Cu727  O749    1.965   .     S
Cu727  O753    1.964   .     S
Cu727  O755    1.964   .     S
Cu727  N741    2.036   .     S
Cu727  O751    1.966   .     S
H729   O756    0.980   .     S
H730   O180    0.992   1_556 S
H731   O748    0.992   .     S
H737   C143    1.072   1_556 S
C757   C765    1.456   .     S
C757   O812    1.299   .     A
C757   O809    1.305   .     A
C758   C760    1.502   .     S
C758   C779    1.415   .     A
C758   C775    1.422   .     A
C759   C765    1.413   .     A
C759   O811    1.383   .     S
C759   C950    1.395   .     S
C760   O813    1.303   .     A
C760   O814    1.320   .     A
C761   H791    1.084   .     S
C761   C762    1.399   .     A
C762   C763    1.397   .     A
C762   C771    1.449   .     S
C763   H795    1.084   .     S
C764   H796    1.083   .     S
C764   C765    1.402   .     A
C764   C952    1.382   .     S
C766   H797    1.070   .     S
C766   N804    1.358   .     A
C766   C830    1.413   .     S
C767   N803    1.387   .     A
C767   O819    1.373   .     S
C767   C892    1.413   1_455 S
C768   C779    1.413   .     A
C768   C210    1.404   1_556 S
C768   C216    1.416   1_556 S
C769   N803    1.379   .     A
C769   C780    1.438   .     S
C769   C896    1.425   1_455 S
C770   H798    1.082   .     S
C770   N804    1.365   .     A
C770   C832    1.425   .     S
C771   O816    1.300   .     A
C771   O815    1.301   .     A
C772   C774    1.472   .     S
C772   O817    1.303   .     A
C772   O818    1.308   .     A
C773   C788    1.391   .     A
C774   C788    1.409   .     A
C774   C787    1.406   .     A
C775   C776    1.411   .     A
C775   C781    1.445   .     S
C776   C210    1.389   1_556 S
C776   O243    1.375   1_556 S
C777   H802    1.079   .     S
C778   C788    1.444   .     S
C778   N805    1.157   .     T
C779   C786    1.401   .     A
C780   N806    1.158   .     T
C781   N807    1.157   .     T
C782   N808    1.157   .     T
C782   C786    1.443   .     S
C783   C787    1.401   .     A
C784   C785    1.399   .     A
C784   C216    1.411   1_556 S
C784   C206    1.394   1_556 S
C785   H799    1.080   .     S
C785   C786    1.391   .     A
C787   H801    1.077   .     S
Cu789  Cu790   2.710   .     S
Cu789  O815    1.965   .     S
Cu789  O813    1.964   .     S
Cu789  N803    2.037   .     S
Cu789  O809    1.964   .     S
Cu789  O817    1.966   .     S
Cu790  O812    1.965   .     S
Cu790  O816    1.964   .     S
Cu790  O818    1.964   .     S
Cu790  N804    2.036   .     S
Cu790  O814    1.966   .     S
H792   O819    0.980   .     S
H793   O243    0.992   1_556 S
H794   O811    0.992   .     S
H800   C206    1.072   1_556 S
C820   C828    1.456   .     S
C820   O875    1.299   .     A
C820   O872    1.305   .     A
C821   C823    1.502   .     S
C821   C842    1.415   .     A
C821   C838    1.422   .     A
C822   C828    1.413   .     A
C822   O874    1.383   .     S
C822   C1013   1.395   .     S
C823   O876    1.303   .     A
C823   O877    1.320   .     A
C824   H854    1.084   .     S
C824   C825    1.399   .     A
C825   C826    1.397   .     A
C825   C834    1.449   .     S
C826   H858    1.084   .     S
C827   H859    1.083   .     S
C827   C828    1.402   .     A
C827   C1015   1.382   .     S
C829   H860    1.070   .     S
C829   N867    1.358   .     A
C829   C893    1.413   .     S
C830   N866    1.387   .     A
C830   O882    1.373   .     S
C831   C842    1.413   .     A
C831   C273    1.404   1_556 S
C831   C279    1.416   1_556 S
C832   N866    1.379   .     A
C832   C843    1.438   .     S
C833   H861    1.082   .     S
C833   N867    1.365   .     A
C833   C895    1.425   .     S
C834   O879    1.300   .     A
C834   O878    1.301   .     A
C835   C837    1.472   .     S
C835   O880    1.303   .     A
C835   O881    1.308   .     A
C836   C851    1.391   .     A
C837   C851    1.409   .     A
C837   C850    1.406   .     A
C838   C839    1.411   .     A
C838   C844    1.445   .     S
C839   C273    1.389   1_556 S
C839   O306    1.375   1_556 S
C840   H865    1.079   .     S
C841   C851    1.444   .     S
C841   N868    1.157   .     T
C842   C849    1.401   .     A
C843   N869    1.158   .     T
C844   N870    1.157   .     T
C845   N871    1.157   .     T
C845   C849    1.443   .     S
C846   C850    1.401   .     A
C847   C848    1.399   .     A
C847   C279    1.411   1_556 S
C847   C269    1.394   1_556 S
C848   H862    1.080   .     S
C848   C849    1.391   .     A
C850   H864    1.077   .     S
Cu852  Cu853   2.710   .     S
Cu852  O878    1.965   .     S
Cu852  O876    1.964   .     S
Cu852  N866    2.037   .     S
Cu852  O872    1.964   .     S
Cu852  O880    1.966   .     S
Cu853  O875    1.965   .     S
Cu853  O879    1.964   .     S
Cu853  O881    1.964   .     S
Cu853  N867    2.036   .     S
Cu853  O877    1.966   .     S
H855   O882    0.980   .     S
H856   O306    0.992   1_556 S
H857   O874    0.992   .     S
H863   C269    1.072   1_556 S
C883   C891    1.456   .     S
C883   O938    1.299   .     A
C883   O935    1.305   .     A
C884   C886    1.502   .     S
C884   C905    1.415   .     A
C884   C901    1.422   .     A
C885   C891    1.413   .     A
C885   O937    1.383   .     S
C885   C1076   1.395   .     S
C886   O939    1.303   .     A
C886   O940    1.320   .     A
C887   H917    1.084   .     S
C887   C888    1.399   .     A
C888   C889    1.397   .     A
C888   C897    1.449   .     S
C889   H921    1.084   .     S
C890   H922    1.083   .     S
C890   C891    1.402   .     A
C890   C1078   1.382   .     S
C892   H923    1.070   .     S
C892   N930    1.358   .     A
C892   C767    1.413   1_655 S
C893   N929    1.387   .     A
C893   O945    1.373   .     S
C894   C905    1.413   .     A
C894   C336    1.404   1_556 S
C894   C342    1.416   1_556 S
C895   N929    1.379   .     A
C895   C906    1.438   .     S
C896   H924    1.082   .     S
C896   N930    1.365   .     A
C896   C769    1.425   1_655 S
C897   O942    1.300   .     A
C897   O941    1.301   .     A
C898   C900    1.472   .     S
C898   O943    1.303   .     A
C898   O944    1.308   .     A
C899   C914    1.391   .     A
C900   C914    1.409   .     A
C900   C913    1.406   .     A
C901   C902    1.411   .     A
C901   C907    1.445   .     S
C902   C336    1.389   1_556 S
C902   O369    1.375   1_556 S
C903   H928    1.079   .     S
C904   C914    1.444   .     S
C904   N931    1.157   .     T
C905   C912    1.401   .     A
C906   N932    1.158   .     T
C907   N933    1.157   .     T
C908   N934    1.157   .     T
C908   C912    1.443   .     S
C909   C913    1.401   .     A
C910   C911    1.399   .     A
C910   C342    1.411   1_556 S
C910   C332    1.394   1_556 S
C911   H925    1.080   .     S
C911   C912    1.391   .     A
C913   H927    1.077   .     S
Cu915  Cu916   2.710   .     S
Cu915  O941    1.965   .     S
Cu915  O939    1.964   .     S
Cu915  N929    2.037   .     S
Cu915  O935    1.964   .     S
Cu915  O943    1.966   .     S
Cu916  O938    1.965   .     S
Cu916  O942    1.964   .     S
Cu916  O944    1.964   .     S
Cu916  N930    2.036   .     S
Cu916  O940    1.966   .     S
H918   O945    0.980   .     S
H919   O369    0.992   1_556 S
H920   O937    0.992   .     S
H926   C332    1.072   1_556 S
C946   C954    1.456   .     S
C946   O1001   1.299   .     A
C946   O998    1.305   .     A
C947   C949    1.502   .     S
C947   C968    1.415   .     A
C947   C964    1.422   .     A
C948   C954    1.413   .     A
C948   O1000   1.383   .     S
C948   C572    1.395   1_565 S
C949   O1002   1.303   .     A
C949   O1003   1.320   .     A
C950   H980    1.084   .     S
C950   C951    1.399   .     A
C951   C952    1.397   .     A
C951   C960    1.449   .     S
C952   H984    1.084   .     S
C953   H985    1.083   .     S
C953   C954    1.402   .     A
C953   C574    1.382   1_565 S
C955   H986    1.070   .     S
C955   N993    1.358   .     A
C955   C1019   1.413   .     S
C956   N992    1.387   .     A
C956   O1008   1.373   .     S
C956   C1081   1.413   1_455 S
C957   C968    1.413   .     A
C957   C399    1.404   1_556 S
C957   C405    1.416   1_556 S
C958   N992    1.379   .     A
C958   C969    1.438   .     S
C958   C1085   1.425   1_455 S
C959   H987    1.082   .     S
C959   N993    1.365   .     A
C959   C1021   1.425   .     S
C960   O1005   1.300   .     A
C960   O1004   1.301   .     A
C961   C963    1.472   .     S
C961   O1006   1.303   .     A
C961   O1007   1.308   .     A
C962   C977    1.391   .     A
C963   C977    1.409   .     A
C963   C976    1.406   .     A
C964   C965    1.411   .     A
C964   C970    1.445   .     S
C965   C399    1.389   1_556 S
C965   O432    1.375   1_556 S
C966   H991    1.079   .     S
C967   C977    1.444   .     S
C967   N994    1.157   .     T
C968   C975    1.401   .     A
C969   N995    1.158   .     T
C970   N996    1.157   .     T
C971   N997    1.157   .     T
C971   C975    1.443   .     S
C972   C976    1.401   .     A
C973   C974    1.399   .     A
C973   C405    1.411   1_556 S
C973   C395    1.394   1_556 S
C974   H988    1.080   .     S
C974   C975    1.391   .     A
C976   H990    1.077   .     S
Cu978  Cu979   2.710   .     S
Cu978  O1004   1.965   .     S
Cu978  O1002   1.964   .     S
Cu978  N992    2.037   .     S
Cu978  O998    1.964   .     S
Cu978  O1006   1.966   .     S
Cu979  O1001   1.965   .     S
Cu979  O1005   1.964   .     S
Cu979  O1007   1.964   .     S
Cu979  N993    2.036   .     S
Cu979  O1003   1.966   .     S
H981   O1008   0.980   .     S
H982   O432    0.992   1_556 S
H983   O1000   0.992   .     S
H989   C395    1.072   1_556 S
C1009  C1017   1.456   .     S
C1009  O1064   1.299   .     A
C1009  O1061   1.305   .     A
C1010  C1012   1.502   .     S
C1010  C1031   1.415   .     A
C1010  C1027   1.422   .     A
C1011  C1017   1.413   .     A
C1011  O1063   1.383   .     S
C1011  C635    1.395   1_565 S
C1012  O1065   1.303   .     A
C1012  O1066   1.320   .     A
C1013  H1043   1.084   .     S
C1013  C1014   1.399   .     A
C1014  C1015   1.397   .     A
C1014  C1023   1.449   .     S
C1015  H1047   1.084   .     S
C1016  H1048   1.083   .     S
C1016  C1017   1.402   .     A
C1016  C637    1.382   1_565 S
C1018  H1049   1.070   .     S
C1018  N1056   1.358   .     A
C1018  C1082   1.413   .     S
C1019  N1055   1.387   .     A
C1019  O1071   1.373   .     S
C1020  C1031   1.413   .     A
C1020  C462    1.404   1_556 S
C1020  C468    1.416   1_556 S
C1021  N1055   1.379   .     A
C1021  C1032   1.438   .     S
C1022  H1050   1.082   .     S
C1022  N1056   1.365   .     A
C1022  C1084   1.425   .     S
C1023  O1068   1.300   .     A
C1023  O1067   1.301   .     A
C1024  C1026   1.472   .     S
C1024  O1069   1.303   .     A
C1024  O1070   1.308   .     A
C1025  C1040   1.391   .     A
C1026  C1040   1.409   .     A
C1026  C1039   1.406   .     A
C1027  C1028   1.411   .     A
C1027  C1033   1.445   .     S
C1028  C462    1.389   1_556 S
C1028  O495    1.375   1_556 S
C1029  H1054   1.079   .     S
C1030  C1040   1.444   .     S
C1030  N1057   1.157   .     T
C1031  C1038   1.401   .     A
C1032  N1058   1.158   .     T
C1033  N1059   1.157   .     T
C1034  N1060   1.157   .     T
C1034  C1038   1.443   .     S
C1035  C1039   1.401   .     A
C1036  C1037   1.399   .     A
C1036  C468    1.411   1_556 S
C1036  C458    1.394   1_556 S
C1037  H1051   1.080   .     S
C1037  C1038   1.391   .     A
C1039  H1053   1.077   .     S
Cu1041 Cu1042  2.710   .     S
Cu1041 O1067   1.965   .     S
Cu1041 O1065   1.964   .     S
Cu1041 N1055   2.037   .     S
Cu1041 O1061   1.964   .     S
Cu1041 O1069   1.966   .     S
Cu1042 O1064   1.965   .     S
Cu1042 O1068   1.964   .     S
Cu1042 O1070   1.964   .     S
Cu1042 N1056   2.036   .     S
Cu1042 O1066   1.966   .     S
H1044  O1071   0.980   .     S
H1045  O495    0.992   1_556 S
H1046  O1063   0.992   .     S
H1052  C458    1.072   1_556 S
C1072  C1080   1.456   .     S
C1072  O1127   1.299   .     A
C1072  O1124   1.305   .     A
C1073  C1075   1.502   .     S
C1073  C1094   1.415   .     A
C1073  C1090   1.422   .     A
C1074  C1080   1.413   .     A
C1074  O1126   1.383   .     S
C1074  C698    1.395   1_565 S
C1075  O1128   1.303   .     A
C1075  O1129   1.320   .     A
C1076  H1106   1.084   .     S
C1076  C1077   1.399   .     A
C1077  C1078   1.397   .     A
C1077  C1086   1.449   .     S
C1078  H1110   1.084   .     S
C1079  H1111   1.083   .     S
C1079  C1080   1.402   .     A
C1079  C700    1.382   1_565 S
C1081  H1112   1.070   .     S
C1081  N1119   1.358   .     A
C1081  C956    1.413   1_655 S
C1082  N1118   1.387   .     A
C1082  O1134   1.373   .     S
C1083  C1094   1.413   .     A
C1083  C525    1.404   1_556 S
C1083  C531    1.416   1_556 S
C1084  N1118   1.379   .     A
C1084  C1095   1.438   .     S
C1085  H1113   1.082   .     S
C1085  N1119   1.365   .     A
C1085  C958    1.425   1_655 S
C1086  O1131   1.300   .     A
C1086  O1130   1.301   .     A
C1087  C1089   1.472   .     S
C1087  O1132   1.303   .     A
C1087  O1133   1.308   .     A
C1088  C1103   1.391   .     A
C1089  C1103   1.409   .     A
C1089  C1102   1.406   .     A
C1090  C1091   1.411   .     A
C1090  C1096   1.445   .     S
C1091  C525    1.389   1_556 S
C1091  O558    1.375   1_556 S
C1092  H1117   1.079   .     S
C1093  C1103   1.444   .     S
C1093  N1120   1.157   .     T
C1094  C1101   1.401   .     A
C1095  N1121   1.158   .     T
C1096  N1122   1.157   .     T
C1097  N1123   1.157   .     T
C1097  C1101   1.443   .     S
C1098  C1102   1.401   .     A
C1099  C1100   1.399   .     A
C1099  C531    1.411   1_556 S
C1099  C521    1.394   1_556 S
C1100  H1114   1.080   .     S
C1100  C1101   1.391   .     A
C1102  H1116   1.077   .     S
Cu1104 Cu1105  2.710   .     S
Cu1104 O1130   1.965   .     S
Cu1104 O1128   1.964   .     S
Cu1104 N1118   2.037   .     S
Cu1104 O1124   1.964   .     S
Cu1104 O1132   1.966   .     S
Cu1105 O1127   1.965   .     S
Cu1105 O1131   1.964   .     S
Cu1105 O1133   1.964   .     S
Cu1105 N1119   2.036   .     S
Cu1105 O1129   1.966   .     S
H1107  O1134   0.980   .     S
H1108  O558    0.992   1_556 S
H1109  O1126   0.992   .     S
H1115  C521    1.072   1_556 S
