data_str_m2_o2_o10_pcu_sym.31
_audit_creation_date              2020-01-03
_audit_creation_method            'Materials Studio'
_symmetry_space_group_name_H-M    'P1'
_symmetry_Int_Tables_number       1
_symmetry_cell_setting            triclinic
loop_
_symmetry_equiv_pos_as_xyz
  x,y,z
_cell_length_a                    26.1773
_cell_length_b                    30.2230
_cell_length_c                    27.8703
_cell_angle_alpha                 89.2620
_cell_angle_beta                  97.2112
_cell_angle_gamma                 91.3370
loop_
_atom_site_label
_atom_site_type_symbol
_atom_site_fract_x
_atom_site_fract_y
_atom_site_fract_z
_atom_site_U_iso_or_equiv
_atom_site_adp_type
_atom_site_occupancy
C1     C     0.16623   0.16490   0.25020   0.00000  Uiso   1.00
C2     C     0.20788   0.26751   0.45036   0.00000  Uiso   1.00
C3     C     0.16812   0.24895   0.02746   0.00000  Uiso   1.00
C4     C     0.16742   0.24760   0.47254   0.00000  Uiso   1.00
C5     C     0.06801   0.25038   0.23771   0.00000  Uiso   1.00
C6     C     0.26525   0.25189   0.26210   0.00000  Uiso   1.00
C7     C     0.01278   0.24967   0.23079   0.00000  Uiso   1.00
C8     C     0.32026   0.25649   0.26809   0.00000  Uiso   1.00
C9     C     0.15776   0.04686   0.29343   0.00000  Uiso   1.00
C10    C     0.13266   0.45160   0.21333   0.00000  Uiso   1.00
C11    C     0.15945   0.09288   0.29337   0.00000  Uiso   1.00
C12    C     0.16596   0.33492   0.24979   0.00000  Uiso   1.00
C13    C     0.13400   0.40562   0.21293   0.00000  Uiso   1.00
C14    C     0.16478   0.11644   0.25050   0.00000  Uiso   1.00
C15    C     0.16424   0.38300   0.24992   0.00000  Uiso   1.00
C16    C     0.16815   0.09332   0.20769   0.00000  Uiso   1.00
C17    C     0.19194   0.40647   0.28806   0.00000  Uiso   1.00
C18    C     0.16653   0.04733   0.20781   0.00000  Uiso   1.00
C19    C     0.19068   0.45239   0.28848   0.00000  Uiso   1.00
C20    C     0.16144   0.02381   0.25068   0.00000  Uiso   1.00
C21    C     0.16128   0.47527   0.25097   0.00000  Uiso   1.00
C22    C     0.20051   0.36059   0.12776   0.00000  Uiso   1.00
C23    C     0.18201   0.28777   0.05448   0.00000  Uiso   1.00
C24    C     0.04876   0.19546   0.36023   0.00000  Uiso   1.00
C25    C     0.12734   0.22623   0.44163   0.00000  Uiso   1.00
C26    C     0.18523   0.28652   0.10629   0.00000  Uiso   1.00
C27    C     0.12957   0.22536   0.39042   0.00000  Uiso   1.00
C28    C     0.15226   0.21279   0.10355   0.00000  Uiso   1.00
C29    C     0.20546   0.27041   0.39983   0.00000  Uiso   1.00
C30    C     0.15591   0.21087   0.05380   0.00000  Uiso   1.00
Cl31   Cl    0.19298   0.33779   0.02320   0.00000  Uiso   1.00
Cl32   Cl    0.07437   0.20199   0.46687   0.00000  Uiso   1.00
Cu33   Cu    0.16667   0.24999   0.29821   0.00000  Uiso   1.00
Cu34   Cu    0.16667   0.25000   0.20178   0.00000  Uiso   1.00
H35    H     0.32664   0.24217   0.19493   0.00000  Uiso   1.00
H36    H     0.21344   0.47006   0.31758   0.00000  Uiso   1.00
H37    H     0.13975   0.18344   0.12168   0.00000  Uiso   1.00
H38    H     0.23599   0.28768   0.38399   0.00000  Uiso   1.00
H39    H     0.14853   0.17937   0.03599   0.00000  Uiso   1.00
H40    H     0.24142   0.28147   0.47204   0.00000  Uiso   1.00
H41    H     0.20902   0.37777   0.16274   0.00000  Uiso   1.00
H42    H     0.15858   0.36347   0.11516   0.00000  Uiso   1.00
H43    H     0.22432   0.37874   0.10349   0.00000  Uiso   1.00
H44    H     0.03075   0.18920   0.32276   0.00000  Uiso   1.00
H45    H     0.03530   0.22776   0.37210   0.00000  Uiso   1.00
H46    H     0.00630   0.26561   0.30334   0.00000  Uiso   1.00
H47    H     0.03489   0.16789   0.38221   0.00000  Uiso   1.00
H48    H     0.15324   0.02926   0.32679   0.00000  Uiso   1.00
H49    H     0.10906   0.46865   0.18449   0.00000  Uiso   1.00
H50    H     0.15638   0.10994   0.32679   0.00000  Uiso   1.00
H51    H     0.11133   0.38770   0.18396   0.00000  Uiso   1.00
H52    H     0.17240   0.11069   0.17414   0.00000  Uiso   1.00
H53    H     0.21526   0.38930   0.31703   0.00000  Uiso   1.00
H54    H     0.17016   0.03013   0.17459   0.00000  Uiso   1.00
N55    N     0.16667   0.25001   0.12934   0.00000  Uiso   1.00
N56    N     0.16667   0.24999   0.37065   0.00000  Uiso   1.00
O57    O     0.16667   0.18572   0.29071   0.00000  Uiso   1.00
O58    O     0.10263   0.19349   0.36115   0.00000  Uiso   1.00
O59    O     0.16666   0.31427   0.20928   0.00000  Uiso   1.00
O60    O     0.16667   0.18573   0.20928   0.00000  Uiso   1.00
O61    O     0.16666   0.31427   0.29072   0.00000  Uiso   1.00
O62    O     0.09161   0.24999   0.28132   0.00000  Uiso   1.00
O63    O     0.24172   0.25000   0.21868   0.00000  Uiso   1.00
O64    O     0.09161   0.25000   0.19988   0.00000  Uiso   1.00
O65    O     0.24172   0.25000   0.30011   0.00000  Uiso   1.00
O66    O     0.21676   0.31646   0.13438   0.00000  Uiso   1.00
C67    C     0.49957   0.16490   0.25020   0.00000  Uiso   1.00
C68    C     0.54121   0.26751   0.45036   0.00000  Uiso   1.00
C69    C     0.50146   0.24895   0.02746   0.00000  Uiso   1.00
C70    C     0.50076   0.24760   0.47254   0.00000  Uiso   1.00
C71    C     0.40134   0.25038   0.23771   0.00000  Uiso   1.00
C72    C     0.59858   0.25189   0.26210   0.00000  Uiso   1.00
C73    C     0.34612   0.24967   0.23079   0.00000  Uiso   1.00
C74    C     0.65359   0.25649   0.26809   0.00000  Uiso   1.00
C75    C     0.49110   0.04686   0.29343   0.00000  Uiso   1.00
C76    C     0.46600   0.45160   0.21333   0.00000  Uiso   1.00
C77    C     0.49278   0.09288   0.29337   0.00000  Uiso   1.00
C78    C     0.49930   0.33492   0.24979   0.00000  Uiso   1.00
C79    C     0.46733   0.40562   0.21293   0.00000  Uiso   1.00
C80    C     0.49811   0.11644   0.25050   0.00000  Uiso   1.00
C81    C     0.49757   0.38300   0.24992   0.00000  Uiso   1.00
C82    C     0.50149   0.09332   0.20769   0.00000  Uiso   1.00
C83    C     0.52528   0.40647   0.28806   0.00000  Uiso   1.00
C84    C     0.49987   0.04733   0.20781   0.00000  Uiso   1.00
C85    C     0.52401   0.45239   0.28848   0.00000  Uiso   1.00
C86    C     0.49478   0.02381   0.25068   0.00000  Uiso   1.00
C87    C     0.49461   0.47527   0.25097   0.00000  Uiso   1.00
C88    C     0.53384   0.36059   0.12776   0.00000  Uiso   1.00
C89    C     0.51534   0.28777   0.05448   0.00000  Uiso   1.00
C90    C     0.38210   0.19546   0.36023   0.00000  Uiso   1.00
C91    C     0.46067   0.22623   0.44163   0.00000  Uiso   1.00
C92    C     0.51856   0.28652   0.10629   0.00000  Uiso   1.00
C93    C     0.46290   0.22536   0.39042   0.00000  Uiso   1.00
C94    C     0.48560   0.21279   0.10355   0.00000  Uiso   1.00
C95    C     0.53879   0.27041   0.39983   0.00000  Uiso   1.00
C96    C     0.48924   0.21087   0.05380   0.00000  Uiso   1.00
Cl97   Cl    0.52632   0.33779   0.02320   0.00000  Uiso   1.00
Cl98   Cl    0.40771   0.20199   0.46687   0.00000  Uiso   1.00
Cu99   Cu    0.50000   0.24999   0.29821   0.00000  Uiso   1.00
Cu100  Cu    0.50000   0.25000   0.20178   0.00000  Uiso   1.00
H101   H     0.65997   0.24217   0.19493   0.00000  Uiso   1.00
H102   H     0.54678   0.47006   0.31758   0.00000  Uiso   1.00
H103   H     0.47308   0.18344   0.12168   0.00000  Uiso   1.00
H104   H     0.56932   0.28768   0.38399   0.00000  Uiso   1.00
H105   H     0.48187   0.17937   0.03599   0.00000  Uiso   1.00
H106   H     0.57475   0.28147   0.47204   0.00000  Uiso   1.00
H107   H     0.54235   0.37777   0.16274   0.00000  Uiso   1.00
H108   H     0.49191   0.36347   0.11516   0.00000  Uiso   1.00
H109   H     0.55766   0.37874   0.10349   0.00000  Uiso   1.00
H110   H     0.36408   0.18920   0.32276   0.00000  Uiso   1.00
H111   H     0.36864   0.22776   0.37210   0.00000  Uiso   1.00
H112   H     0.33964   0.26561   0.30334   0.00000  Uiso   1.00
H113   H     0.36822   0.16789   0.38221   0.00000  Uiso   1.00
H114   H     0.48657   0.02926   0.32679   0.00000  Uiso   1.00
H115   H     0.44239   0.46865   0.18449   0.00000  Uiso   1.00
H116   H     0.48971   0.10994   0.32679   0.00000  Uiso   1.00
H117   H     0.44466   0.38770   0.18396   0.00000  Uiso   1.00
H118   H     0.50573   0.11069   0.17414   0.00000  Uiso   1.00
H119   H     0.54860   0.38930   0.31703   0.00000  Uiso   1.00
H120   H     0.50350   0.03013   0.17459   0.00000  Uiso   1.00
N121   N     0.50000   0.25001   0.12934   0.00000  Uiso   1.00
N122   N     0.50000   0.24999   0.37065   0.00000  Uiso   1.00
O123   O     0.50000   0.18572   0.29071   0.00000  Uiso   1.00
O124   O     0.43597   0.19349   0.36115   0.00000  Uiso   1.00
O125   O     0.50000   0.31427   0.20928   0.00000  Uiso   1.00
O126   O     0.50000   0.18573   0.20928   0.00000  Uiso   1.00
O127   O     0.50000   0.31427   0.29072   0.00000  Uiso   1.00
O128   O     0.42495   0.24999   0.28132   0.00000  Uiso   1.00
O129   O     0.57505   0.25000   0.21868   0.00000  Uiso   1.00
O130   O     0.42495   0.25000   0.19988   0.00000  Uiso   1.00
O131   O     0.57505   0.25000   0.30011   0.00000  Uiso   1.00
O132   O     0.55009   0.31646   0.13438   0.00000  Uiso   1.00
C133   C     0.83290   0.16490   0.25020   0.00000  Uiso   1.00
C134   C     0.87454   0.26751   0.45036   0.00000  Uiso   1.00
C135   C     0.83479   0.24895   0.02746   0.00000  Uiso   1.00
C136   C     0.83409   0.24760   0.47254   0.00000  Uiso   1.00
C137   C     0.73467   0.25038   0.23771   0.00000  Uiso   1.00
C138   C     0.93192   0.25189   0.26210   0.00000  Uiso   1.00
C139   C     0.67945   0.24967   0.23079   0.00000  Uiso   1.00
C140   C     0.98692   0.25649   0.26809   0.00000  Uiso   1.00
C141   C     0.82443   0.04686   0.29343   0.00000  Uiso   1.00
C142   C     0.79933   0.45160   0.21333   0.00000  Uiso   1.00
C143   C     0.82612   0.09288   0.29337   0.00000  Uiso   1.00
C144   C     0.83263   0.33492   0.24979   0.00000  Uiso   1.00
C145   C     0.80066   0.40562   0.21293   0.00000  Uiso   1.00
C146   C     0.83145   0.11644   0.25050   0.00000  Uiso   1.00
C147   C     0.83090   0.38300   0.24992   0.00000  Uiso   1.00
C148   C     0.83482   0.09332   0.20769   0.00000  Uiso   1.00
C149   C     0.85861   0.40647   0.28806   0.00000  Uiso   1.00
C150   C     0.83320   0.04733   0.20781   0.00000  Uiso   1.00
C151   C     0.85734   0.45239   0.28848   0.00000  Uiso   1.00
C152   C     0.82811   0.02381   0.25068   0.00000  Uiso   1.00
C153   C     0.82795   0.47527   0.25097   0.00000  Uiso   1.00
C154   C     0.86718   0.36059   0.12776   0.00000  Uiso   1.00
C155   C     0.84867   0.28777   0.05448   0.00000  Uiso   1.00
C156   C     0.71543   0.19546   0.36023   0.00000  Uiso   1.00
C157   C     0.79400   0.22623   0.44163   0.00000  Uiso   1.00
C158   C     0.85190   0.28652   0.10629   0.00000  Uiso   1.00
C159   C     0.79623   0.22536   0.39042   0.00000  Uiso   1.00
C160   C     0.81893   0.21279   0.10355   0.00000  Uiso   1.00
C161   C     0.87212   0.27041   0.39983   0.00000  Uiso   1.00
C162   C     0.82257   0.21087   0.05380   0.00000  Uiso   1.00
Cl163  Cl    0.85965   0.33779   0.02320   0.00000  Uiso   1.00
Cl164  Cl    0.74104   0.20199   0.46687   0.00000  Uiso   1.00
Cu165  Cu    0.83333   0.24999   0.29821   0.00000  Uiso   1.00
Cu166  Cu    0.83333   0.25000   0.20178   0.00000  Uiso   1.00
H167   H     0.99331   0.24217   0.19493   0.00000  Uiso   1.00
H168   H     0.88011   0.47006   0.31758   0.00000  Uiso   1.00
H169   H     0.80642   0.18344   0.12168   0.00000  Uiso   1.00
H170   H     0.90266   0.28768   0.38399   0.00000  Uiso   1.00
H171   H     0.81520   0.17937   0.03599   0.00000  Uiso   1.00
H172   H     0.90808   0.28147   0.47204   0.00000  Uiso   1.00
H173   H     0.87569   0.37777   0.16274   0.00000  Uiso   1.00
H174   H     0.82525   0.36347   0.11516   0.00000  Uiso   1.00
H175   H     0.89099   0.37874   0.10349   0.00000  Uiso   1.00
H176   H     0.69742   0.18920   0.32276   0.00000  Uiso   1.00
H177   H     0.70197   0.22776   0.37210   0.00000  Uiso   1.00
H178   H     0.67297   0.26561   0.30334   0.00000  Uiso   1.00
H179   H     0.70156   0.16789   0.38221   0.00000  Uiso   1.00
H180   H     0.81991   0.02926   0.32679   0.00000  Uiso   1.00
H181   H     0.77573   0.46865   0.18449   0.00000  Uiso   1.00
H182   H     0.82305   0.10994   0.32679   0.00000  Uiso   1.00
H183   H     0.77799   0.38770   0.18396   0.00000  Uiso   1.00
H184   H     0.83907   0.11069   0.17414   0.00000  Uiso   1.00
H185   H     0.88193   0.38930   0.31703   0.00000  Uiso   1.00
H186   H     0.83683   0.03013   0.17459   0.00000  Uiso   1.00
N187   N     0.83333   0.25001   0.12934   0.00000  Uiso   1.00
N188   N     0.83333   0.24999   0.37065   0.00000  Uiso   1.00
O189   O     0.83334   0.18572   0.29071   0.00000  Uiso   1.00
O190   O     0.76930   0.19349   0.36115   0.00000  Uiso   1.00
O191   O     0.83333   0.31427   0.20928   0.00000  Uiso   1.00
O192   O     0.83334   0.18573   0.20928   0.00000  Uiso   1.00
O193   O     0.83333   0.31427   0.29072   0.00000  Uiso   1.00
O194   O     0.75828   0.24999   0.28132   0.00000  Uiso   1.00
O195   O     0.90839   0.25000   0.21868   0.00000  Uiso   1.00
O196   O     0.75828   0.25000   0.19988   0.00000  Uiso   1.00
O197   O     0.90839   0.25000   0.30011   0.00000  Uiso   1.00
O198   O     0.88343   0.31646   0.13438   0.00000  Uiso   1.00
C199   C     0.16623   0.66490   0.25020   0.00000  Uiso   1.00
C200   C     0.20788   0.76751   0.45036   0.00000  Uiso   1.00
C201   C     0.16812   0.74895   0.02746   0.00000  Uiso   1.00
C202   C     0.16742   0.74760   0.47254   0.00000  Uiso   1.00
C203   C     0.06801   0.75038   0.23771   0.00000  Uiso   1.00
C204   C     0.26525   0.75189   0.26210   0.00000  Uiso   1.00
C205   C     0.01278   0.74967   0.23079   0.00000  Uiso   1.00
C206   C     0.32026   0.75649   0.26809   0.00000  Uiso   1.00
C207   C     0.15776   0.54686   0.29343   0.00000  Uiso   1.00
C208   C     0.13266   0.95160   0.21333   0.00000  Uiso   1.00
C209   C     0.15945   0.59288   0.29337   0.00000  Uiso   1.00
C210   C     0.16596   0.83492   0.24979   0.00000  Uiso   1.00
C211   C     0.13400   0.90562   0.21293   0.00000  Uiso   1.00
C212   C     0.16478   0.61644   0.25050   0.00000  Uiso   1.00
C213   C     0.16424   0.88300   0.24992   0.00000  Uiso   1.00
C214   C     0.16815   0.59332   0.20769   0.00000  Uiso   1.00
C215   C     0.19194   0.90647   0.28806   0.00000  Uiso   1.00
C216   C     0.16653   0.54733   0.20781   0.00000  Uiso   1.00
C217   C     0.19068   0.95239   0.28848   0.00000  Uiso   1.00
C218   C     0.16144   0.52381   0.25068   0.00000  Uiso   1.00
C219   C     0.16128   0.97527   0.25097   0.00000  Uiso   1.00
C220   C     0.20051   0.86059   0.12776   0.00000  Uiso   1.00
C221   C     0.18201   0.78777   0.05448   0.00000  Uiso   1.00
C222   C     0.04876   0.69546   0.36023   0.00000  Uiso   1.00
C223   C     0.12734   0.72623   0.44163   0.00000  Uiso   1.00
C224   C     0.18523   0.78652   0.10629   0.00000  Uiso   1.00
C225   C     0.12957   0.72536   0.39042   0.00000  Uiso   1.00
C226   C     0.15226   0.71279   0.10355   0.00000  Uiso   1.00
C227   C     0.20546   0.77041   0.39983   0.00000  Uiso   1.00
C228   C     0.15591   0.71087   0.05380   0.00000  Uiso   1.00
Cl229  Cl    0.19298   0.83779   0.02320   0.00000  Uiso   1.00
Cl230  Cl    0.07437   0.70199   0.46687   0.00000  Uiso   1.00
Cu231  Cu    0.16667   0.74999   0.29821   0.00000  Uiso   1.00
Cu232  Cu    0.16667   0.75000   0.20178   0.00000  Uiso   1.00
H233   H     0.32664   0.74217   0.19493   0.00000  Uiso   1.00
H234   H     0.21344   0.97006   0.31758   0.00000  Uiso   1.00
H235   H     0.13975   0.68344   0.12168   0.00000  Uiso   1.00
H236   H     0.23599   0.78768   0.38399   0.00000  Uiso   1.00
H237   H     0.14853   0.67937   0.03599   0.00000  Uiso   1.00
H238   H     0.24142   0.78147   0.47204   0.00000  Uiso   1.00
H239   H     0.20902   0.87777   0.16274   0.00000  Uiso   1.00
H240   H     0.15858   0.86347   0.11516   0.00000  Uiso   1.00
H241   H     0.22432   0.87874   0.10349   0.00000  Uiso   1.00
H242   H     0.03075   0.68920   0.32276   0.00000  Uiso   1.00
H243   H     0.03530   0.72776   0.37210   0.00000  Uiso   1.00
H244   H     0.00630   0.76561   0.30334   0.00000  Uiso   1.00
H245   H     0.03489   0.66789   0.38221   0.00000  Uiso   1.00
H246   H     0.15324   0.52926   0.32679   0.00000  Uiso   1.00
H247   H     0.10906   0.96865   0.18449   0.00000  Uiso   1.00
H248   H     0.15638   0.60994   0.32679   0.00000  Uiso   1.00
H249   H     0.11133   0.88770   0.18396   0.00000  Uiso   1.00
H250   H     0.17240   0.61069   0.17414   0.00000  Uiso   1.00
H251   H     0.21526   0.88930   0.31703   0.00000  Uiso   1.00
H252   H     0.17016   0.53013   0.17459   0.00000  Uiso   1.00
N253   N     0.16667   0.75001   0.12934   0.00000  Uiso   1.00
N254   N     0.16667   0.74999   0.37065   0.00000  Uiso   1.00
O255   O     0.16667   0.68572   0.29071   0.00000  Uiso   1.00
O256   O     0.10263   0.69349   0.36115   0.00000  Uiso   1.00
O257   O     0.16666   0.81427   0.20928   0.00000  Uiso   1.00
O258   O     0.16667   0.68573   0.20928   0.00000  Uiso   1.00
O259   O     0.16666   0.81427   0.29072   0.00000  Uiso   1.00
O260   O     0.09161   0.74999   0.28132   0.00000  Uiso   1.00
O261   O     0.24172   0.75000   0.21868   0.00000  Uiso   1.00
O262   O     0.09161   0.75000   0.19988   0.00000  Uiso   1.00
O263   O     0.24172   0.75000   0.30011   0.00000  Uiso   1.00
O264   O     0.21676   0.81646   0.13438   0.00000  Uiso   1.00
C265   C     0.49957   0.66490   0.25020   0.00000  Uiso   1.00
C266   C     0.54121   0.76751   0.45036   0.00000  Uiso   1.00
C267   C     0.50146   0.74895   0.02746   0.00000  Uiso   1.00
C268   C     0.50076   0.74760   0.47254   0.00000  Uiso   1.00
C269   C     0.40134   0.75038   0.23771   0.00000  Uiso   1.00
C270   C     0.59858   0.75189   0.26210   0.00000  Uiso   1.00
C271   C     0.34612   0.74967   0.23079   0.00000  Uiso   1.00
C272   C     0.65359   0.75649   0.26809   0.00000  Uiso   1.00
C273   C     0.49110   0.54686   0.29343   0.00000  Uiso   1.00
C274   C     0.46600   0.95160   0.21333   0.00000  Uiso   1.00
C275   C     0.49278   0.59288   0.29337   0.00000  Uiso   1.00
C276   C     0.49930   0.83492   0.24979   0.00000  Uiso   1.00
C277   C     0.46733   0.90562   0.21293   0.00000  Uiso   1.00
C278   C     0.49811   0.61644   0.25050   0.00000  Uiso   1.00
C279   C     0.49757   0.88300   0.24992   0.00000  Uiso   1.00
C280   C     0.50149   0.59332   0.20769   0.00000  Uiso   1.00
C281   C     0.52528   0.90647   0.28806   0.00000  Uiso   1.00
C282   C     0.49987   0.54733   0.20781   0.00000  Uiso   1.00
C283   C     0.52401   0.95239   0.28848   0.00000  Uiso   1.00
C284   C     0.49478   0.52381   0.25068   0.00000  Uiso   1.00
C285   C     0.49461   0.97527   0.25097   0.00000  Uiso   1.00
C286   C     0.53384   0.86059   0.12776   0.00000  Uiso   1.00
C287   C     0.51534   0.78777   0.05448   0.00000  Uiso   1.00
C288   C     0.38210   0.69546   0.36023   0.00000  Uiso   1.00
C289   C     0.46067   0.72623   0.44163   0.00000  Uiso   1.00
C290   C     0.51856   0.78652   0.10629   0.00000  Uiso   1.00
C291   C     0.46290   0.72536   0.39042   0.00000  Uiso   1.00
C292   C     0.48560   0.71279   0.10355   0.00000  Uiso   1.00
C293   C     0.53879   0.77041   0.39983   0.00000  Uiso   1.00
C294   C     0.48924   0.71087   0.05380   0.00000  Uiso   1.00
Cl295  Cl    0.52632   0.83779   0.02320   0.00000  Uiso   1.00
Cl296  Cl    0.40771   0.70199   0.46687   0.00000  Uiso   1.00
Cu297  Cu    0.50000   0.74999   0.29821   0.00000  Uiso   1.00
Cu298  Cu    0.50000   0.75000   0.20178   0.00000  Uiso   1.00
H299   H     0.65997   0.74217   0.19493   0.00000  Uiso   1.00
H300   H     0.54678   0.97006   0.31758   0.00000  Uiso   1.00
H301   H     0.47308   0.68344   0.12168   0.00000  Uiso   1.00
H302   H     0.56932   0.78768   0.38399   0.00000  Uiso   1.00
H303   H     0.48187   0.67937   0.03599   0.00000  Uiso   1.00
H304   H     0.57475   0.78147   0.47204   0.00000  Uiso   1.00
H305   H     0.54235   0.87777   0.16274   0.00000  Uiso   1.00
H306   H     0.49191   0.86347   0.11516   0.00000  Uiso   1.00
H307   H     0.55766   0.87874   0.10349   0.00000  Uiso   1.00
H308   H     0.36408   0.68920   0.32276   0.00000  Uiso   1.00
H309   H     0.36864   0.72776   0.37210   0.00000  Uiso   1.00
H310   H     0.33964   0.76561   0.30334   0.00000  Uiso   1.00
H311   H     0.36822   0.66789   0.38221   0.00000  Uiso   1.00
H312   H     0.48657   0.52926   0.32679   0.00000  Uiso   1.00
H313   H     0.44239   0.96865   0.18449   0.00000  Uiso   1.00
H314   H     0.48971   0.60994   0.32679   0.00000  Uiso   1.00
H315   H     0.44466   0.88770   0.18396   0.00000  Uiso   1.00
H316   H     0.50573   0.61069   0.17414   0.00000  Uiso   1.00
H317   H     0.54860   0.88930   0.31703   0.00000  Uiso   1.00
H318   H     0.50350   0.53013   0.17459   0.00000  Uiso   1.00
N319   N     0.50000   0.75001   0.12934   0.00000  Uiso   1.00
N320   N     0.50000   0.74999   0.37065   0.00000  Uiso   1.00
O321   O     0.50000   0.68572   0.29071   0.00000  Uiso   1.00
O322   O     0.43597   0.69349   0.36115   0.00000  Uiso   1.00
O323   O     0.50000   0.81427   0.20928   0.00000  Uiso   1.00
O324   O     0.50000   0.68573   0.20928   0.00000  Uiso   1.00
O325   O     0.50000   0.81427   0.29072   0.00000  Uiso   1.00
O326   O     0.42495   0.74999   0.28132   0.00000  Uiso   1.00
O327   O     0.57505   0.75000   0.21868   0.00000  Uiso   1.00
O328   O     0.42495   0.75000   0.19988   0.00000  Uiso   1.00
O329   O     0.57505   0.75000   0.30011   0.00000  Uiso   1.00
O330   O     0.55009   0.81646   0.13438   0.00000  Uiso   1.00
C331   C     0.83290   0.66490   0.25020   0.00000  Uiso   1.00
C332   C     0.87454   0.76751   0.45036   0.00000  Uiso   1.00
C333   C     0.83479   0.74895   0.02746   0.00000  Uiso   1.00
C334   C     0.83409   0.74760   0.47254   0.00000  Uiso   1.00
C335   C     0.73467   0.75038   0.23771   0.00000  Uiso   1.00
C336   C     0.93192   0.75189   0.26210   0.00000  Uiso   1.00
C337   C     0.67945   0.74967   0.23079   0.00000  Uiso   1.00
C338   C     0.98692   0.75649   0.26809   0.00000  Uiso   1.00
C339   C     0.82443   0.54686   0.29343   0.00000  Uiso   1.00
C340   C     0.79933   0.95160   0.21333   0.00000  Uiso   1.00
C341   C     0.82612   0.59288   0.29337   0.00000  Uiso   1.00
C342   C     0.83263   0.83492   0.24979   0.00000  Uiso   1.00
C343   C     0.80066   0.90562   0.21293   0.00000  Uiso   1.00
C344   C     0.83145   0.61644   0.25050   0.00000  Uiso   1.00
C345   C     0.83090   0.88300   0.24992   0.00000  Uiso   1.00
C346   C     0.83482   0.59332   0.20769   0.00000  Uiso   1.00
C347   C     0.85861   0.90647   0.28806   0.00000  Uiso   1.00
C348   C     0.83320   0.54733   0.20781   0.00000  Uiso   1.00
C349   C     0.85734   0.95239   0.28848   0.00000  Uiso   1.00
C350   C     0.82811   0.52381   0.25068   0.00000  Uiso   1.00
C351   C     0.82795   0.97527   0.25097   0.00000  Uiso   1.00
C352   C     0.86718   0.86059   0.12776   0.00000  Uiso   1.00
C353   C     0.84867   0.78777   0.05448   0.00000  Uiso   1.00
C354   C     0.71543   0.69546   0.36023   0.00000  Uiso   1.00
C355   C     0.79400   0.72623   0.44163   0.00000  Uiso   1.00
C356   C     0.85190   0.78652   0.10629   0.00000  Uiso   1.00
C357   C     0.79623   0.72536   0.39042   0.00000  Uiso   1.00
C358   C     0.81893   0.71279   0.10355   0.00000  Uiso   1.00
C359   C     0.87212   0.77041   0.39983   0.00000  Uiso   1.00
C360   C     0.82257   0.71087   0.05380   0.00000  Uiso   1.00
Cl361  Cl    0.85965   0.83779   0.02320   0.00000  Uiso   1.00
Cl362  Cl    0.74104   0.70199   0.46687   0.00000  Uiso   1.00
Cu363  Cu    0.83333   0.74999   0.29821   0.00000  Uiso   1.00
Cu364  Cu    0.83333   0.75000   0.20178   0.00000  Uiso   1.00
H365   H     0.99331   0.74217   0.19493   0.00000  Uiso   1.00
H366   H     0.88011   0.97006   0.31758   0.00000  Uiso   1.00
H367   H     0.80642   0.68344   0.12168   0.00000  Uiso   1.00
H368   H     0.90266   0.78768   0.38399   0.00000  Uiso   1.00
H369   H     0.81520   0.67937   0.03599   0.00000  Uiso   1.00
H370   H     0.90808   0.78147   0.47204   0.00000  Uiso   1.00
H371   H     0.87569   0.87777   0.16274   0.00000  Uiso   1.00
H372   H     0.82525   0.86347   0.11516   0.00000  Uiso   1.00
H373   H     0.89099   0.87874   0.10349   0.00000  Uiso   1.00
H374   H     0.69742   0.68920   0.32276   0.00000  Uiso   1.00
H375   H     0.70197   0.72776   0.37210   0.00000  Uiso   1.00
H376   H     0.67297   0.76561   0.30334   0.00000  Uiso   1.00
H377   H     0.70156   0.66789   0.38221   0.00000  Uiso   1.00
H378   H     0.81991   0.52926   0.32679   0.00000  Uiso   1.00
H379   H     0.77573   0.96865   0.18449   0.00000  Uiso   1.00
H380   H     0.82305   0.60994   0.32679   0.00000  Uiso   1.00
H381   H     0.77799   0.88770   0.18396   0.00000  Uiso   1.00
H382   H     0.83907   0.61069   0.17414   0.00000  Uiso   1.00
H383   H     0.88193   0.88930   0.31703   0.00000  Uiso   1.00
H384   H     0.83683   0.53013   0.17459   0.00000  Uiso   1.00
N385   N     0.83333   0.75001   0.12934   0.00000  Uiso   1.00
N386   N     0.83333   0.74999   0.37065   0.00000  Uiso   1.00
O387   O     0.83334   0.68572   0.29071   0.00000  Uiso   1.00
O388   O     0.76930   0.69349   0.36115   0.00000  Uiso   1.00
O389   O     0.83333   0.81427   0.20928   0.00000  Uiso   1.00
O390   O     0.83334   0.68573   0.20928   0.00000  Uiso   1.00
O391   O     0.83333   0.81427   0.29072   0.00000  Uiso   1.00
O392   O     0.75828   0.74999   0.28132   0.00000  Uiso   1.00
O393   O     0.90839   0.75000   0.21868   0.00000  Uiso   1.00
O394   O     0.75828   0.75000   0.19988   0.00000  Uiso   1.00
O395   O     0.90839   0.75000   0.30011   0.00000  Uiso   1.00
O396   O     0.88343   0.81646   0.13438   0.00000  Uiso   1.00
C397   C     0.16623   0.16490   0.75020   0.00000  Uiso   1.00
C398   C     0.20788   0.26751   0.95036   0.00000  Uiso   1.00
C399   C     0.16812   0.24895   0.52746   0.00000  Uiso   1.00
C400   C     0.16742   0.24760   0.97254   0.00000  Uiso   1.00
C401   C     0.06801   0.25038   0.73771   0.00000  Uiso   1.00
C402   C     0.26525   0.25189   0.76210   0.00000  Uiso   1.00
C403   C     0.01278   0.24967   0.73079   0.00000  Uiso   1.00
C404   C     0.32026   0.25649   0.76809   0.00000  Uiso   1.00
C405   C     0.15776   0.04686   0.79343   0.00000  Uiso   1.00
C406   C     0.13266   0.45160   0.71333   0.00000  Uiso   1.00
C407   C     0.15945   0.09288   0.79337   0.00000  Uiso   1.00
C408   C     0.16596   0.33492   0.74979   0.00000  Uiso   1.00
C409   C     0.13400   0.40562   0.71293   0.00000  Uiso   1.00
C410   C     0.16478   0.11644   0.75050   0.00000  Uiso   1.00
C411   C     0.16424   0.38300   0.74992   0.00000  Uiso   1.00
C412   C     0.16815   0.09332   0.70769   0.00000  Uiso   1.00
C413   C     0.19194   0.40647   0.78806   0.00000  Uiso   1.00
C414   C     0.16653   0.04733   0.70781   0.00000  Uiso   1.00
C415   C     0.19068   0.45239   0.78848   0.00000  Uiso   1.00
C416   C     0.16144   0.02381   0.75068   0.00000  Uiso   1.00
C417   C     0.16128   0.47527   0.75097   0.00000  Uiso   1.00
C418   C     0.20051   0.36059   0.62776   0.00000  Uiso   1.00
C419   C     0.18201   0.28777   0.55448   0.00000  Uiso   1.00
C420   C     0.04876   0.19546   0.86023   0.00000  Uiso   1.00
C421   C     0.12734   0.22623   0.94163   0.00000  Uiso   1.00
C422   C     0.18523   0.28652   0.60629   0.00000  Uiso   1.00
C423   C     0.12957   0.22536   0.89042   0.00000  Uiso   1.00
C424   C     0.15226   0.21279   0.60355   0.00000  Uiso   1.00
C425   C     0.20546   0.27041   0.89983   0.00000  Uiso   1.00
C426   C     0.15591   0.21087   0.55380   0.00000  Uiso   1.00
Cl427  Cl    0.19298   0.33779   0.52320   0.00000  Uiso   1.00
Cl428  Cl    0.07437   0.20199   0.96687   0.00000  Uiso   1.00
Cu429  Cu    0.16667   0.24999   0.79821   0.00000  Uiso   1.00
Cu430  Cu    0.16667   0.25000   0.70178   0.00000  Uiso   1.00
H431   H     0.32664   0.24217   0.69493   0.00000  Uiso   1.00
H432   H     0.21344   0.47006   0.81758   0.00000  Uiso   1.00
H433   H     0.13975   0.18344   0.62168   0.00000  Uiso   1.00
H434   H     0.23599   0.28768   0.88399   0.00000  Uiso   1.00
H435   H     0.14853   0.17937   0.53599   0.00000  Uiso   1.00
H436   H     0.24142   0.28147   0.97204   0.00000  Uiso   1.00
H437   H     0.20902   0.37777   0.66274   0.00000  Uiso   1.00
H438   H     0.15858   0.36347   0.61516   0.00000  Uiso   1.00
H439   H     0.22432   0.37874   0.60349   0.00000  Uiso   1.00
H440   H     0.03075   0.18920   0.82276   0.00000  Uiso   1.00
H441   H     0.03530   0.22776   0.87210   0.00000  Uiso   1.00
H442   H     0.00630   0.26561   0.80334   0.00000  Uiso   1.00
H443   H     0.03489   0.16789   0.88221   0.00000  Uiso   1.00
H444   H     0.15324   0.02926   0.82679   0.00000  Uiso   1.00
H445   H     0.10906   0.46865   0.68449   0.00000  Uiso   1.00
H446   H     0.15638   0.10994   0.82679   0.00000  Uiso   1.00
H447   H     0.11133   0.38770   0.68396   0.00000  Uiso   1.00
H448   H     0.17240   0.11069   0.67414   0.00000  Uiso   1.00
H449   H     0.21526   0.38930   0.81703   0.00000  Uiso   1.00
H450   H     0.17016   0.03013   0.67459   0.00000  Uiso   1.00
N451   N     0.16667   0.25001   0.62934   0.00000  Uiso   1.00
N452   N     0.16667   0.24999   0.87065   0.00000  Uiso   1.00
O453   O     0.16667   0.18572   0.79071   0.00000  Uiso   1.00
O454   O     0.10263   0.19349   0.86115   0.00000  Uiso   1.00
O455   O     0.16666   0.31427   0.70928   0.00000  Uiso   1.00
O456   O     0.16667   0.18573   0.70928   0.00000  Uiso   1.00
O457   O     0.16666   0.31427   0.79072   0.00000  Uiso   1.00
O458   O     0.09161   0.24999   0.78132   0.00000  Uiso   1.00
O459   O     0.24172   0.25000   0.71868   0.00000  Uiso   1.00
O460   O     0.09161   0.25000   0.69988   0.00000  Uiso   1.00
O461   O     0.24172   0.25000   0.80011   0.00000  Uiso   1.00
O462   O     0.21676   0.31646   0.63438   0.00000  Uiso   1.00
C463   C     0.49957   0.16490   0.75020   0.00000  Uiso   1.00
C464   C     0.54121   0.26751   0.95036   0.00000  Uiso   1.00
C465   C     0.50146   0.24895   0.52746   0.00000  Uiso   1.00
C466   C     0.50076   0.24760   0.97254   0.00000  Uiso   1.00
C467   C     0.40134   0.25038   0.73771   0.00000  Uiso   1.00
C468   C     0.59858   0.25189   0.76210   0.00000  Uiso   1.00
C469   C     0.34612   0.24967   0.73079   0.00000  Uiso   1.00
C470   C     0.65359   0.25649   0.76809   0.00000  Uiso   1.00
C471   C     0.49110   0.04686   0.79343   0.00000  Uiso   1.00
C472   C     0.46600   0.45160   0.71333   0.00000  Uiso   1.00
C473   C     0.49278   0.09288   0.79337   0.00000  Uiso   1.00
C474   C     0.49930   0.33492   0.74979   0.00000  Uiso   1.00
C475   C     0.46733   0.40562   0.71293   0.00000  Uiso   1.00
C476   C     0.49811   0.11644   0.75050   0.00000  Uiso   1.00
C477   C     0.49757   0.38300   0.74992   0.00000  Uiso   1.00
C478   C     0.50149   0.09332   0.70769   0.00000  Uiso   1.00
C479   C     0.52528   0.40647   0.78806   0.00000  Uiso   1.00
C480   C     0.49987   0.04733   0.70781   0.00000  Uiso   1.00
C481   C     0.52401   0.45239   0.78848   0.00000  Uiso   1.00
C482   C     0.49478   0.02381   0.75068   0.00000  Uiso   1.00
C483   C     0.49461   0.47527   0.75097   0.00000  Uiso   1.00
C484   C     0.53384   0.36059   0.62776   0.00000  Uiso   1.00
C485   C     0.51534   0.28777   0.55448   0.00000  Uiso   1.00
C486   C     0.38210   0.19546   0.86023   0.00000  Uiso   1.00
C487   C     0.46067   0.22623   0.94163   0.00000  Uiso   1.00
C488   C     0.51856   0.28652   0.60629   0.00000  Uiso   1.00
C489   C     0.46290   0.22536   0.89042   0.00000  Uiso   1.00
C490   C     0.48560   0.21279   0.60355   0.00000  Uiso   1.00
C491   C     0.53879   0.27041   0.89983   0.00000  Uiso   1.00
C492   C     0.48924   0.21087   0.55380   0.00000  Uiso   1.00
Cl493  Cl    0.52632   0.33779   0.52320   0.00000  Uiso   1.00
Cl494  Cl    0.40771   0.20199   0.96687   0.00000  Uiso   1.00
Cu495  Cu    0.50000   0.24999   0.79821   0.00000  Uiso   1.00
Cu496  Cu    0.50000   0.25000   0.70178   0.00000  Uiso   1.00
H497   H     0.65997   0.24217   0.69493   0.00000  Uiso   1.00
H498   H     0.54678   0.47006   0.81758   0.00000  Uiso   1.00
H499   H     0.47308   0.18344   0.62168   0.00000  Uiso   1.00
H500   H     0.56932   0.28768   0.88399   0.00000  Uiso   1.00
H501   H     0.48187   0.17937   0.53599   0.00000  Uiso   1.00
H502   H     0.57475   0.28147   0.97204   0.00000  Uiso   1.00
H503   H     0.54235   0.37777   0.66274   0.00000  Uiso   1.00
H504   H     0.49191   0.36347   0.61516   0.00000  Uiso   1.00
H505   H     0.55766   0.37874   0.60349   0.00000  Uiso   1.00
H506   H     0.36408   0.18920   0.82276   0.00000  Uiso   1.00
H507   H     0.36864   0.22776   0.87210   0.00000  Uiso   1.00
H508   H     0.33964   0.26561   0.80334   0.00000  Uiso   1.00
H509   H     0.36822   0.16789   0.88221   0.00000  Uiso   1.00
H510   H     0.48657   0.02926   0.82679   0.00000  Uiso   1.00
H511   H     0.44239   0.46865   0.68449   0.00000  Uiso   1.00
H512   H     0.48971   0.10994   0.82679   0.00000  Uiso   1.00
H513   H     0.44466   0.38770   0.68396   0.00000  Uiso   1.00
H514   H     0.50573   0.11069   0.67414   0.00000  Uiso   1.00
H515   H     0.54860   0.38930   0.81703   0.00000  Uiso   1.00
H516   H     0.50350   0.03013   0.67459   0.00000  Uiso   1.00
N517   N     0.50000   0.25001   0.62934   0.00000  Uiso   1.00
N518   N     0.50000   0.24999   0.87065   0.00000  Uiso   1.00
O519   O     0.50000   0.18572   0.79071   0.00000  Uiso   1.00
O520   O     0.43597   0.19349   0.86115   0.00000  Uiso   1.00
O521   O     0.50000   0.31427   0.70928   0.00000  Uiso   1.00
O522   O     0.50000   0.18573   0.70928   0.00000  Uiso   1.00
O523   O     0.50000   0.31427   0.79072   0.00000  Uiso   1.00
O524   O     0.42495   0.24999   0.78132   0.00000  Uiso   1.00
O525   O     0.57505   0.25000   0.71868   0.00000  Uiso   1.00
O526   O     0.42495   0.25000   0.69988   0.00000  Uiso   1.00
O527   O     0.57505   0.25000   0.80011   0.00000  Uiso   1.00
O528   O     0.55009   0.31646   0.63438   0.00000  Uiso   1.00
C529   C     0.83290   0.16490   0.75020   0.00000  Uiso   1.00
C530   C     0.87454   0.26751   0.95036   0.00000  Uiso   1.00
C531   C     0.83479   0.24895   0.52746   0.00000  Uiso   1.00
C532   C     0.83409   0.24760   0.97254   0.00000  Uiso   1.00
C533   C     0.73467   0.25038   0.73771   0.00000  Uiso   1.00
C534   C     0.93192   0.25189   0.76210   0.00000  Uiso   1.00
C535   C     0.67945   0.24967   0.73079   0.00000  Uiso   1.00
C536   C     0.98692   0.25649   0.76809   0.00000  Uiso   1.00
C537   C     0.82443   0.04686   0.79343   0.00000  Uiso   1.00
C538   C     0.79933   0.45160   0.71333   0.00000  Uiso   1.00
C539   C     0.82612   0.09288   0.79337   0.00000  Uiso   1.00
C540   C     0.83263   0.33492   0.74979   0.00000  Uiso   1.00
C541   C     0.80066   0.40562   0.71293   0.00000  Uiso   1.00
C542   C     0.83145   0.11644   0.75050   0.00000  Uiso   1.00
C543   C     0.83090   0.38300   0.74992   0.00000  Uiso   1.00
C544   C     0.83482   0.09332   0.70769   0.00000  Uiso   1.00
C545   C     0.85861   0.40647   0.78806   0.00000  Uiso   1.00
C546   C     0.83320   0.04733   0.70781   0.00000  Uiso   1.00
C547   C     0.85734   0.45239   0.78848   0.00000  Uiso   1.00
C548   C     0.82811   0.02381   0.75068   0.00000  Uiso   1.00
C549   C     0.82795   0.47527   0.75097   0.00000  Uiso   1.00
C550   C     0.86718   0.36059   0.62776   0.00000  Uiso   1.00
C551   C     0.84867   0.28777   0.55448   0.00000  Uiso   1.00
C552   C     0.71543   0.19546   0.86023   0.00000  Uiso   1.00
C553   C     0.79400   0.22623   0.94163   0.00000  Uiso   1.00
C554   C     0.85190   0.28652   0.60629   0.00000  Uiso   1.00
C555   C     0.79623   0.22536   0.89042   0.00000  Uiso   1.00
C556   C     0.81893   0.21279   0.60355   0.00000  Uiso   1.00
C557   C     0.87212   0.27041   0.89983   0.00000  Uiso   1.00
C558   C     0.82257   0.21087   0.55380   0.00000  Uiso   1.00
Cl559  Cl    0.85965   0.33779   0.52320   0.00000  Uiso   1.00
Cl560  Cl    0.74104   0.20199   0.96687   0.00000  Uiso   1.00
Cu561  Cu    0.83333   0.24999   0.79821   0.00000  Uiso   1.00
Cu562  Cu    0.83333   0.25000   0.70178   0.00000  Uiso   1.00
H563   H     0.99331   0.24217   0.69493   0.00000  Uiso   1.00
H564   H     0.88011   0.47006   0.81758   0.00000  Uiso   1.00
H565   H     0.80642   0.18344   0.62168   0.00000  Uiso   1.00
H566   H     0.90266   0.28768   0.88399   0.00000  Uiso   1.00
H567   H     0.81520   0.17937   0.53599   0.00000  Uiso   1.00
H568   H     0.90808   0.28147   0.97204   0.00000  Uiso   1.00
H569   H     0.87569   0.37777   0.66274   0.00000  Uiso   1.00
H570   H     0.82525   0.36347   0.61516   0.00000  Uiso   1.00
H571   H     0.89099   0.37874   0.60349   0.00000  Uiso   1.00
H572   H     0.69742   0.18920   0.82276   0.00000  Uiso   1.00
H573   H     0.70197   0.22776   0.87210   0.00000  Uiso   1.00
H574   H     0.67297   0.26561   0.80334   0.00000  Uiso   1.00
H575   H     0.70156   0.16789   0.88221   0.00000  Uiso   1.00
H576   H     0.81991   0.02926   0.82679   0.00000  Uiso   1.00
H577   H     0.77573   0.46865   0.68449   0.00000  Uiso   1.00
H578   H     0.82305   0.10994   0.82679   0.00000  Uiso   1.00
H579   H     0.77799   0.38770   0.68396   0.00000  Uiso   1.00
H580   H     0.83907   0.11069   0.67414   0.00000  Uiso   1.00
H581   H     0.88193   0.38930   0.81703   0.00000  Uiso   1.00
H582   H     0.83683   0.03013   0.67459   0.00000  Uiso   1.00
N583   N     0.83333   0.25001   0.62934   0.00000  Uiso   1.00
N584   N     0.83333   0.24999   0.87065   0.00000  Uiso   1.00
O585   O     0.83334   0.18572   0.79071   0.00000  Uiso   1.00
O586   O     0.76930   0.19349   0.86115   0.00000  Uiso   1.00
O587   O     0.83333   0.31427   0.70928   0.00000  Uiso   1.00
O588   O     0.83334   0.18573   0.70928   0.00000  Uiso   1.00
O589   O     0.83333   0.31427   0.79072   0.00000  Uiso   1.00
O590   O     0.75828   0.24999   0.78132   0.00000  Uiso   1.00
O591   O     0.90839   0.25000   0.71868   0.00000  Uiso   1.00
O592   O     0.75828   0.25000   0.69988   0.00000  Uiso   1.00
O593   O     0.90839   0.25000   0.80011   0.00000  Uiso   1.00
O594   O     0.88343   0.31646   0.63438   0.00000  Uiso   1.00
C595   C     0.16623   0.66490   0.75020   0.00000  Uiso   1.00
C596   C     0.20788   0.76751   0.95036   0.00000  Uiso   1.00
C597   C     0.16812   0.74895   0.52746   0.00000  Uiso   1.00
C598   C     0.16742   0.74760   0.97254   0.00000  Uiso   1.00
C599   C     0.06801   0.75038   0.73771   0.00000  Uiso   1.00
C600   C     0.26525   0.75189   0.76210   0.00000  Uiso   1.00
C601   C     0.01278   0.74967   0.73079   0.00000  Uiso   1.00
C602   C     0.32026   0.75649   0.76809   0.00000  Uiso   1.00
C603   C     0.15776   0.54686   0.79343   0.00000  Uiso   1.00
C604   C     0.13266   0.95160   0.71333   0.00000  Uiso   1.00
C605   C     0.15945   0.59288   0.79337   0.00000  Uiso   1.00
C606   C     0.16596   0.83492   0.74979   0.00000  Uiso   1.00
C607   C     0.13400   0.90562   0.71293   0.00000  Uiso   1.00
C608   C     0.16478   0.61644   0.75050   0.00000  Uiso   1.00
C609   C     0.16424   0.88300   0.74992   0.00000  Uiso   1.00
C610   C     0.16815   0.59332   0.70769   0.00000  Uiso   1.00
C611   C     0.19194   0.90647   0.78806   0.00000  Uiso   1.00
C612   C     0.16653   0.54733   0.70781   0.00000  Uiso   1.00
C613   C     0.19068   0.95239   0.78848   0.00000  Uiso   1.00
C614   C     0.16144   0.52381   0.75068   0.00000  Uiso   1.00
C615   C     0.16128   0.97527   0.75097   0.00000  Uiso   1.00
C616   C     0.20051   0.86059   0.62776   0.00000  Uiso   1.00
C617   C     0.18201   0.78777   0.55448   0.00000  Uiso   1.00
C618   C     0.04876   0.69546   0.86023   0.00000  Uiso   1.00
C619   C     0.12734   0.72623   0.94163   0.00000  Uiso   1.00
C620   C     0.18523   0.78652   0.60629   0.00000  Uiso   1.00
C621   C     0.12957   0.72536   0.89042   0.00000  Uiso   1.00
C622   C     0.15226   0.71279   0.60355   0.00000  Uiso   1.00
C623   C     0.20546   0.77041   0.89983   0.00000  Uiso   1.00
C624   C     0.15591   0.71087   0.55380   0.00000  Uiso   1.00
Cl625  Cl    0.19298   0.83779   0.52320   0.00000  Uiso   1.00
Cl626  Cl    0.07437   0.70199   0.96687   0.00000  Uiso   1.00
Cu627  Cu    0.16667   0.74999   0.79821   0.00000  Uiso   1.00
Cu628  Cu    0.16667   0.75000   0.70178   0.00000  Uiso   1.00
H629   H     0.32664   0.74217   0.69493   0.00000  Uiso   1.00
H630   H     0.21344   0.97006   0.81758   0.00000  Uiso   1.00
H631   H     0.13975   0.68344   0.62168   0.00000  Uiso   1.00
H632   H     0.23599   0.78768   0.88399   0.00000  Uiso   1.00
H633   H     0.14853   0.67937   0.53599   0.00000  Uiso   1.00
H634   H     0.24142   0.78147   0.97204   0.00000  Uiso   1.00
H635   H     0.20902   0.87777   0.66274   0.00000  Uiso   1.00
H636   H     0.15858   0.86347   0.61516   0.00000  Uiso   1.00
H637   H     0.22432   0.87874   0.60349   0.00000  Uiso   1.00
H638   H     0.03075   0.68920   0.82276   0.00000  Uiso   1.00
H639   H     0.03530   0.72776   0.87210   0.00000  Uiso   1.00
H640   H     0.00630   0.76561   0.80334   0.00000  Uiso   1.00
H641   H     0.03489   0.66789   0.88221   0.00000  Uiso   1.00
H642   H     0.15324   0.52926   0.82679   0.00000  Uiso   1.00
H643   H     0.10906   0.96865   0.68449   0.00000  Uiso   1.00
H644   H     0.15638   0.60994   0.82679   0.00000  Uiso   1.00
H645   H     0.11133   0.88770   0.68396   0.00000  Uiso   1.00
H646   H     0.17240   0.61069   0.67414   0.00000  Uiso   1.00
H647   H     0.21526   0.88930   0.81703   0.00000  Uiso   1.00
H648   H     0.17016   0.53013   0.67459   0.00000  Uiso   1.00
N649   N     0.16667   0.75001   0.62934   0.00000  Uiso   1.00
N650   N     0.16667   0.74999   0.87065   0.00000  Uiso   1.00
O651   O     0.16667   0.68572   0.79071   0.00000  Uiso   1.00
O652   O     0.10263   0.69349   0.86115   0.00000  Uiso   1.00
O653   O     0.16666   0.81427   0.70928   0.00000  Uiso   1.00
O654   O     0.16667   0.68573   0.70928   0.00000  Uiso   1.00
O655   O     0.16666   0.81427   0.79072   0.00000  Uiso   1.00
O656   O     0.09161   0.74999   0.78132   0.00000  Uiso   1.00
O657   O     0.24172   0.75000   0.71868   0.00000  Uiso   1.00
O658   O     0.09161   0.75000   0.69988   0.00000  Uiso   1.00
O659   O     0.24172   0.75000   0.80011   0.00000  Uiso   1.00
O660   O     0.21676   0.81646   0.63438   0.00000  Uiso   1.00
C661   C     0.49957   0.66490   0.75020   0.00000  Uiso   1.00
C662   C     0.54121   0.76751   0.95036   0.00000  Uiso   1.00
C663   C     0.50146   0.74895   0.52746   0.00000  Uiso   1.00
C664   C     0.50076   0.74760   0.97254   0.00000  Uiso   1.00
C665   C     0.40134   0.75038   0.73771   0.00000  Uiso   1.00
C666   C     0.59858   0.75189   0.76210   0.00000  Uiso   1.00
C667   C     0.34612   0.74967   0.73079   0.00000  Uiso   1.00
C668   C     0.65359   0.75649   0.76809   0.00000  Uiso   1.00
C669   C     0.49110   0.54686   0.79343   0.00000  Uiso   1.00
C670   C     0.46600   0.95160   0.71333   0.00000  Uiso   1.00
C671   C     0.49278   0.59288   0.79337   0.00000  Uiso   1.00
C672   C     0.49930   0.83492   0.74979   0.00000  Uiso   1.00
C673   C     0.46733   0.90562   0.71293   0.00000  Uiso   1.00
C674   C     0.49811   0.61644   0.75050   0.00000  Uiso   1.00
C675   C     0.49757   0.88300   0.74992   0.00000  Uiso   1.00
C676   C     0.50149   0.59332   0.70769   0.00000  Uiso   1.00
C677   C     0.52528   0.90647   0.78806   0.00000  Uiso   1.00
C678   C     0.49987   0.54733   0.70781   0.00000  Uiso   1.00
C679   C     0.52401   0.95239   0.78848   0.00000  Uiso   1.00
C680   C     0.49478   0.52381   0.75068   0.00000  Uiso   1.00
C681   C     0.49461   0.97527   0.75097   0.00000  Uiso   1.00
C682   C     0.53384   0.86059   0.62776   0.00000  Uiso   1.00
C683   C     0.51534   0.78777   0.55448   0.00000  Uiso   1.00
C684   C     0.38210   0.69546   0.86023   0.00000  Uiso   1.00
C685   C     0.46067   0.72623   0.94163   0.00000  Uiso   1.00
C686   C     0.51856   0.78652   0.60629   0.00000  Uiso   1.00
C687   C     0.46290   0.72536   0.89042   0.00000  Uiso   1.00
C688   C     0.48560   0.71279   0.60355   0.00000  Uiso   1.00
C689   C     0.53879   0.77041   0.89983   0.00000  Uiso   1.00
C690   C     0.48924   0.71087   0.55380   0.00000  Uiso   1.00
Cl691  Cl    0.52632   0.83779   0.52320   0.00000  Uiso   1.00
Cl692  Cl    0.40771   0.70199   0.96687   0.00000  Uiso   1.00
Cu693  Cu    0.50000   0.74999   0.79821   0.00000  Uiso   1.00
Cu694  Cu    0.50000   0.75000   0.70178   0.00000  Uiso   1.00
H695   H     0.65997   0.74217   0.69493   0.00000  Uiso   1.00
H696   H     0.54678   0.97006   0.81758   0.00000  Uiso   1.00
H697   H     0.47308   0.68344   0.62168   0.00000  Uiso   1.00
H698   H     0.56932   0.78768   0.88399   0.00000  Uiso   1.00
H699   H     0.48187   0.67937   0.53599   0.00000  Uiso   1.00
H700   H     0.57475   0.78147   0.97204   0.00000  Uiso   1.00
H701   H     0.54235   0.87777   0.66274   0.00000  Uiso   1.00
H702   H     0.49191   0.86347   0.61516   0.00000  Uiso   1.00
H703   H     0.55766   0.87874   0.60349   0.00000  Uiso   1.00
H704   H     0.36408   0.68920   0.82276   0.00000  Uiso   1.00
H705   H     0.36864   0.72776   0.87210   0.00000  Uiso   1.00
H706   H     0.33964   0.76561   0.80334   0.00000  Uiso   1.00
H707   H     0.36822   0.66789   0.88221   0.00000  Uiso   1.00
H708   H     0.48657   0.52926   0.82679   0.00000  Uiso   1.00
H709   H     0.44239   0.96865   0.68449   0.00000  Uiso   1.00
H710   H     0.48971   0.60994   0.82679   0.00000  Uiso   1.00
H711   H     0.44466   0.88770   0.68396   0.00000  Uiso   1.00
H712   H     0.50573   0.61069   0.67414   0.00000  Uiso   1.00
H713   H     0.54860   0.88930   0.81703   0.00000  Uiso   1.00
H714   H     0.50350   0.53013   0.67459   0.00000  Uiso   1.00
N715   N     0.50000   0.75001   0.62934   0.00000  Uiso   1.00
N716   N     0.50000   0.74999   0.87065   0.00000  Uiso   1.00
O717   O     0.50000   0.68572   0.79071   0.00000  Uiso   1.00
O718   O     0.43597   0.69349   0.86115   0.00000  Uiso   1.00
O719   O     0.50000   0.81427   0.70928   0.00000  Uiso   1.00
O720   O     0.50000   0.68573   0.70928   0.00000  Uiso   1.00
O721   O     0.50000   0.81427   0.79072   0.00000  Uiso   1.00
O722   O     0.42495   0.74999   0.78132   0.00000  Uiso   1.00
O723   O     0.57505   0.75000   0.71868   0.00000  Uiso   1.00
O724   O     0.42495   0.75000   0.69988   0.00000  Uiso   1.00
O725   O     0.57505   0.75000   0.80011   0.00000  Uiso   1.00
O726   O     0.55009   0.81646   0.63438   0.00000  Uiso   1.00
C727   C     0.83290   0.66490   0.75020   0.00000  Uiso   1.00
C728   C     0.87454   0.76751   0.95036   0.00000  Uiso   1.00
C729   C     0.83479   0.74895   0.52746   0.00000  Uiso   1.00
C730   C     0.83409   0.74760   0.97254   0.00000  Uiso   1.00
C731   C     0.73467   0.75038   0.73771   0.00000  Uiso   1.00
C732   C     0.93192   0.75189   0.76210   0.00000  Uiso   1.00
C733   C     0.67945   0.74967   0.73079   0.00000  Uiso   1.00
C734   C     0.98692   0.75649   0.76809   0.00000  Uiso   1.00
C735   C     0.82443   0.54686   0.79343   0.00000  Uiso   1.00
C736   C     0.79933   0.95160   0.71333   0.00000  Uiso   1.00
C737   C     0.82612   0.59288   0.79337   0.00000  Uiso   1.00
C738   C     0.83263   0.83492   0.74979   0.00000  Uiso   1.00
C739   C     0.80066   0.90562   0.71293   0.00000  Uiso   1.00
C740   C     0.83145   0.61644   0.75050   0.00000  Uiso   1.00
C741   C     0.83090   0.88300   0.74992   0.00000  Uiso   1.00
C742   C     0.83482   0.59332   0.70769   0.00000  Uiso   1.00
C743   C     0.85861   0.90647   0.78806   0.00000  Uiso   1.00
C744   C     0.83320   0.54733   0.70781   0.00000  Uiso   1.00
C745   C     0.85734   0.95239   0.78848   0.00000  Uiso   1.00
C746   C     0.82811   0.52381   0.75068   0.00000  Uiso   1.00
C747   C     0.82795   0.97527   0.75097   0.00000  Uiso   1.00
C748   C     0.86718   0.86059   0.62776   0.00000  Uiso   1.00
C749   C     0.84867   0.78777   0.55448   0.00000  Uiso   1.00
C750   C     0.71543   0.69546   0.86023   0.00000  Uiso   1.00
C751   C     0.79400   0.72623   0.94163   0.00000  Uiso   1.00
C752   C     0.85190   0.78652   0.60629   0.00000  Uiso   1.00
C753   C     0.79623   0.72536   0.89042   0.00000  Uiso   1.00
C754   C     0.81893   0.71279   0.60355   0.00000  Uiso   1.00
C755   C     0.87212   0.77041   0.89983   0.00000  Uiso   1.00
C756   C     0.82257   0.71087   0.55380   0.00000  Uiso   1.00
Cl757  Cl    0.85965   0.83779   0.52320   0.00000  Uiso   1.00
Cl758  Cl    0.74104   0.70199   0.96687   0.00000  Uiso   1.00
Cu759  Cu    0.83333   0.74999   0.79821   0.00000  Uiso   1.00
Cu760  Cu    0.83333   0.75000   0.70178   0.00000  Uiso   1.00
H761   H     0.99331   0.74217   0.69493   0.00000  Uiso   1.00
H762   H     0.88011   0.97006   0.81758   0.00000  Uiso   1.00
H763   H     0.80642   0.68344   0.62168   0.00000  Uiso   1.00
H764   H     0.90266   0.78768   0.88399   0.00000  Uiso   1.00
H765   H     0.81520   0.67937   0.53599   0.00000  Uiso   1.00
H766   H     0.90808   0.78147   0.97204   0.00000  Uiso   1.00
H767   H     0.87569   0.87777   0.66274   0.00000  Uiso   1.00
H768   H     0.82525   0.86347   0.61516   0.00000  Uiso   1.00
H769   H     0.89099   0.87874   0.60349   0.00000  Uiso   1.00
H770   H     0.69742   0.68920   0.82276   0.00000  Uiso   1.00
H771   H     0.70197   0.72776   0.87210   0.00000  Uiso   1.00
H772   H     0.67297   0.76561   0.80334   0.00000  Uiso   1.00
H773   H     0.70156   0.66789   0.88221   0.00000  Uiso   1.00
H774   H     0.81991   0.52926   0.82679   0.00000  Uiso   1.00
H775   H     0.77573   0.96865   0.68449   0.00000  Uiso   1.00
H776   H     0.82305   0.60994   0.82679   0.00000  Uiso   1.00
H777   H     0.77799   0.88770   0.68396   0.00000  Uiso   1.00
H778   H     0.83907   0.61069   0.67414   0.00000  Uiso   1.00
H779   H     0.88193   0.88930   0.81703   0.00000  Uiso   1.00
H780   H     0.83683   0.53013   0.67459   0.00000  Uiso   1.00
N781   N     0.83333   0.75001   0.62934   0.00000  Uiso   1.00
N782   N     0.83333   0.74999   0.87065   0.00000  Uiso   1.00
O783   O     0.83334   0.68572   0.79071   0.00000  Uiso   1.00
O784   O     0.76930   0.69349   0.86115   0.00000  Uiso   1.00
O785   O     0.83333   0.81427   0.70928   0.00000  Uiso   1.00
O786   O     0.83334   0.68573   0.70928   0.00000  Uiso   1.00
O787   O     0.83333   0.81427   0.79072   0.00000  Uiso   1.00
O788   O     0.75828   0.74999   0.78132   0.00000  Uiso   1.00
O789   O     0.90839   0.75000   0.71868   0.00000  Uiso   1.00
O790   O     0.75828   0.75000   0.69988   0.00000  Uiso   1.00
O791   O     0.90839   0.75000   0.80011   0.00000  Uiso   1.00
O792   O     0.88343   0.81646   0.63438   0.00000  Uiso   1.00
loop_
_geom_bond_atom_site_label_1
_geom_bond_atom_site_label_2
_geom_bond_distance
_geom_bond_site_symmetry_2
_ccdc_geom_bond_type
C1     O57     1.299   .     A
C1     O60     1.297   .     A
C1     C14     1.464   .     S
C2     C4      1.411   .     A
C2     H40     1.082   .     S
C2     C29     1.403   .     A
C3     C30     1.409   .     A
C3     C23     1.418   .     A
C3     C400    1.530   1_554 S
C4     C25     1.420   .     A
C4     C399    1.530   .     S
C5     C7      1.434   .     S
C5     O62     1.293   .     A
C5     O64     1.287   .     A
C6     O63     1.288   .     A
C6     C8      1.432   .     S
C6     O65     1.291   .     A
C7     C140    1.331   1_455 S
C7     H167    1.087   1_455 S
C8     C73     1.331   .     S
C8     H112    1.084   .     S
C9     C20     1.403   .     A
C9     C11     1.391   .     A
C9     H48     1.083   .     S
C10    H49     1.083   .     S
C10    C21     1.404   .     A
C10    C13     1.391   .     A
C11    H50     1.083   .     S
C11    C14     1.403   .     A
C12    C15     1.455   .     S
C12    O59     1.299   .     A
C12    O61     1.291   .     A
C13    C15     1.400   .     A
C13    H51     1.083   .     S
C14    C16     1.404   .     A
C15    C17     1.400   .     A
C16    H52     1.083   .     S
C16    C18     1.390   .     A
C17    C19     1.389   .     A
C17    H53     1.084   .     S
C18    C20     1.402   .     A
C18    H54     1.083   .     S
C19    H36     1.083   .     S
C19    C21     1.403   .     A
C20    C219    1.467   1_545 S
C21    C218    1.467   .     S
C22    H43     1.108   .     S
C22    H42     1.115   .     S
C22    H41     1.106   .     S
C22    O66     1.412   .     S
C23    C26     1.436   .     A
C23    Cl31    1.771   .     S
C24    H45     1.114   .     S
C24    H44     1.107   .     S
C24    O58     1.410   .     S
C24    H47     1.109   .     S
C25    C27     1.436   .     A
C25    Cl32    1.771   .     S
C26    N55     1.379   .     A
C26    O66     1.391   .     S
C27    N56     1.375   .     A
C27    O58     1.391   .     S
C28    C30     1.404   .     A
C28    H37     1.080   .     S
C28    N55     1.363   .     A
C29    H38     1.081   .     S
C29    N56     1.360   .     A
C30    H39     1.081   .     S
Cu33   N56     2.019   .     S
Cu33   Cu34    2.688   .     S
Cu33   O65     1.959   .     S
Cu33   O57     1.956   .     S
Cu33   O61     1.951   .     S
Cu33   O62     1.962   .     S
Cu34   N55     2.019   .     S
Cu34   O60     1.951   .     S
Cu34   O64     1.959   .     S
Cu34   O63     1.962   .     S
Cu34   O59     1.956   .     S
H35    C73     1.087   .     S
H46    C140    1.084   1_455 S
C67    O123    1.299   .     A
C67    O126    1.297   .     A
C67    C80     1.464   .     S
C68    C70     1.411   .     A
C68    H106    1.082   .     S
C68    C95     1.403   .     A
C69    C96     1.409   .     A
C69    C89     1.418   .     A
C69    C466    1.530   1_554 S
C70    C91     1.420   .     A
C70    C465    1.530   .     S
C71    C73     1.434   .     S
C71    O128    1.293   .     A
C71    O130    1.287   .     A
C72    O129    1.288   .     A
C72    C74     1.432   .     S
C72    O131    1.291   .     A
C74    C139    1.331   .     S
C74    H178    1.084   .     S
C75    C86     1.403   .     A
C75    C77     1.391   .     A
C75    H114    1.083   .     S
C76    H115    1.083   .     S
C76    C87     1.404   .     A
C76    C79     1.391   .     A
C77    H116    1.083   .     S
C77    C80     1.403   .     A
C78    C81     1.455   .     S
C78    O125    1.299   .     A
C78    O127    1.291   .     A
C79    C81     1.400   .     A
C79    H117    1.083   .     S
C80    C82     1.404   .     A
C81    C83     1.400   .     A
C82    H118    1.083   .     S
C82    C84     1.390   .     A
C83    C85     1.389   .     A
C83    H119    1.084   .     S
C84    C86     1.402   .     A
C84    H120    1.083   .     S
C85    H102    1.083   .     S
C85    C87     1.403   .     A
C86    C285    1.467   1_545 S
C87    C284    1.467   .     S
C88    H109    1.108   .     S
C88    H108    1.115   .     S
C88    H107    1.106   .     S
C88    O132    1.412   .     S
C89    C92     1.436   .     A
C89    Cl97    1.771   .     S
C90    H111    1.114   .     S
C90    H110    1.107   .     S
C90    O124    1.410   .     S
C90    H113    1.109   .     S
C91    C93     1.436   .     A
C91    Cl98    1.771   .     S
C92    N121    1.379   .     A
C92    O132    1.391   .     S
C93    N122    1.375   .     A
C93    O124    1.391   .     S
C94    C96     1.404   .     A
C94    H103    1.080   .     S
C94    N121    1.363   .     A
C95    H104    1.081   .     S
C95    N122    1.360   .     A
C96    H105    1.081   .     S
Cu99   N122    2.019   .     S
Cu99   Cu100   2.688   .     S
Cu99   O131    1.959   .     S
Cu99   O123    1.956   .     S
Cu99   O127    1.951   .     S
Cu99   O128    1.962   .     S
Cu100  N121    2.019   .     S
Cu100  O126    1.951   .     S
Cu100  O130    1.959   .     S
Cu100  O129    1.962   .     S
Cu100  O125    1.956   .     S
H101   C139    1.087   .     S
C133   O189    1.299   .     A
C133   O192    1.297   .     A
C133   C146    1.464   .     S
C134   C136    1.411   .     A
C134   H172    1.082   .     S
C134   C161    1.403   .     A
C135   C162    1.409   .     A
C135   C155    1.418   .     A
C135   C532    1.530   1_554 S
C136   C157    1.420   .     A
C136   C531    1.530   .     S
C137   C139    1.434   .     S
C137   O194    1.293   .     A
C137   O196    1.287   .     A
C138   O195    1.288   .     A
C138   C140    1.432   .     S
C138   O197    1.291   .     A
C140   C7      1.331   1_655 S
C140   H46     1.084   1_655 S
C141   C152    1.403   .     A
C141   C143    1.391   .     A
C141   H180    1.083   .     S
C142   H181    1.083   .     S
C142   C153    1.404   .     A
C142   C145    1.391   .     A
C143   H182    1.083   .     S
C143   C146    1.403   .     A
C144   C147    1.455   .     S
C144   O191    1.299   .     A
C144   O193    1.291   .     A
C145   C147    1.400   .     A
C145   H183    1.083   .     S
C146   C148    1.404   .     A
C147   C149    1.400   .     A
C148   H184    1.083   .     S
C148   C150    1.390   .     A
C149   C151    1.389   .     A
C149   H185    1.084   .     S
C150   C152    1.402   .     A
C150   H186    1.083   .     S
C151   H168    1.083   .     S
C151   C153    1.403   .     A
C152   C351    1.467   1_545 S
C153   C350    1.467   .     S
C154   H175    1.108   .     S
C154   H174    1.115   .     S
C154   H173    1.106   .     S
C154   O198    1.412   .     S
C155   C158    1.436   .     A
C155   Cl163   1.771   .     S
C156   H177    1.114   .     S
C156   H176    1.107   .     S
C156   O190    1.410   .     S
C156   H179    1.109   .     S
C157   C159    1.436   .     A
C157   Cl164   1.771   .     S
C158   N187    1.379   .     A
C158   O198    1.391   .     S
C159   N188    1.375   .     A
C159   O190    1.391   .     S
C160   C162    1.404   .     A
C160   H169    1.080   .     S
C160   N187    1.363   .     A
C161   H170    1.081   .     S
C161   N188    1.360   .     A
C162   H171    1.081   .     S
Cu165  N188    2.019   .     S
Cu165  Cu166   2.688   .     S
Cu165  O197    1.959   .     S
Cu165  O189    1.956   .     S
Cu165  O193    1.951   .     S
Cu165  O194    1.962   .     S
Cu166  N187    2.019   .     S
Cu166  O192    1.951   .     S
Cu166  O196    1.959   .     S
Cu166  O195    1.962   .     S
Cu166  O191    1.956   .     S
H167   C7      1.087   1_655 S
C199   O255    1.299   .     A
C199   O258    1.297   .     A
C199   C212    1.464   .     S
C200   C202    1.411   .     A
C200   H238    1.082   .     S
C200   C227    1.403   .     A
C201   C228    1.409   .     A
C201   C221    1.418   .     A
C201   C598    1.530   1_554 S
C202   C223    1.420   .     A
C202   C597    1.530   .     S
C203   C205    1.434   .     S
C203   O260    1.293   .     A
C203   O262    1.287   .     A
C204   O261    1.288   .     A
C204   C206    1.432   .     S
C204   O263    1.291   .     A
C205   C338    1.331   1_455 S
C205   H365    1.087   1_455 S
C206   C271    1.331   .     S
C206   H310    1.084   .     S
C207   C218    1.403   .     A
C207   C209    1.391   .     A
C207   H246    1.083   .     S
C208   H247    1.083   .     S
C208   C219    1.404   .     A
C208   C211    1.391   .     A
C209   H248    1.083   .     S
C209   C212    1.403   .     A
C210   C213    1.455   .     S
C210   O257    1.299   .     A
C210   O259    1.291   .     A
C211   C213    1.400   .     A
C211   H249    1.083   .     S
C212   C214    1.404   .     A
C213   C215    1.400   .     A
C214   H250    1.083   .     S
C214   C216    1.390   .     A
C215   C217    1.389   .     A
C215   H251    1.084   .     S
C216   C218    1.402   .     A
C216   H252    1.083   .     S
C217   H234    1.083   .     S
C217   C219    1.403   .     A
C219   C20     1.467   1_565 S
C220   H241    1.108   .     S
C220   H240    1.115   .     S
C220   H239    1.106   .     S
C220   O264    1.412   .     S
C221   C224    1.436   .     A
C221   Cl229   1.771   .     S
C222   H243    1.114   .     S
C222   H242    1.107   .     S
C222   O256    1.410   .     S
C222   H245    1.109   .     S
C223   C225    1.436   .     A
C223   Cl230   1.771   .     S
C224   N253    1.379   .     A
C224   O264    1.391   .     S
C225   N254    1.375   .     A
C225   O256    1.391   .     S
C226   C228    1.404   .     A
C226   H235    1.080   .     S
C226   N253    1.363   .     A
C227   H236    1.081   .     S
C227   N254    1.360   .     A
C228   H237    1.081   .     S
Cu231  N254    2.019   .     S
Cu231  Cu232   2.688   .     S
Cu231  O263    1.959   .     S
Cu231  O255    1.956   .     S
Cu231  O259    1.951   .     S
Cu231  O260    1.962   .     S
Cu232  N253    2.019   .     S
Cu232  O258    1.951   .     S
Cu232  O262    1.959   .     S
Cu232  O261    1.962   .     S
Cu232  O257    1.956   .     S
H233   C271    1.087   .     S
H244   C338    1.084   1_455 S
C265   O321    1.299   .     A
C265   O324    1.297   .     A
C265   C278    1.464   .     S
C266   C268    1.411   .     A
C266   H304    1.082   .     S
C266   C293    1.403   .     A
C267   C294    1.409   .     A
C267   C287    1.418   .     A
C267   C664    1.530   1_554 S
C268   C289    1.420   .     A
C268   C663    1.530   .     S
C269   C271    1.434   .     S
C269   O326    1.293   .     A
C269   O328    1.287   .     A
C270   O327    1.288   .     A
C270   C272    1.432   .     S
C270   O329    1.291   .     A
C272   C337    1.331   .     S
C272   H376    1.084   .     S
C273   C284    1.403   .     A
C273   C275    1.391   .     A
C273   H312    1.083   .     S
C274   H313    1.083   .     S
C274   C285    1.404   .     A
C274   C277    1.391   .     A
C275   H314    1.083   .     S
C275   C278    1.403   .     A
C276   C279    1.455   .     S
C276   O323    1.299   .     A
C276   O325    1.291   .     A
C277   C279    1.400   .     A
C277   H315    1.083   .     S
C278   C280    1.404   .     A
C279   C281    1.400   .     A
C280   H316    1.083   .     S
C280   C282    1.390   .     A
C281   C283    1.389   .     A
C281   H317    1.084   .     S
C282   C284    1.402   .     A
C282   H318    1.083   .     S
C283   H300    1.083   .     S
C283   C285    1.403   .     A
C285   C86     1.467   1_565 S
C286   H307    1.108   .     S
C286   H306    1.115   .     S
C286   H305    1.106   .     S
C286   O330    1.412   .     S
C287   C290    1.436   .     A
C287   Cl295   1.771   .     S
C288   H309    1.114   .     S
C288   H308    1.107   .     S
C288   O322    1.410   .     S
C288   H311    1.109   .     S
C289   C291    1.436   .     A
C289   Cl296   1.771   .     S
C290   N319    1.379   .     A
C290   O330    1.391   .     S
C291   N320    1.375   .     A
C291   O322    1.391   .     S
C292   C294    1.404   .     A
C292   H301    1.080   .     S
C292   N319    1.363   .     A
C293   H302    1.081   .     S
C293   N320    1.360   .     A
C294   H303    1.081   .     S
Cu297  N320    2.019   .     S
Cu297  Cu298   2.688   .     S
Cu297  O329    1.959   .     S
Cu297  O321    1.956   .     S
Cu297  O325    1.951   .     S
Cu297  O326    1.962   .     S
Cu298  N319    2.019   .     S
Cu298  O324    1.951   .     S
Cu298  O328    1.959   .     S
Cu298  O327    1.962   .     S
Cu298  O323    1.956   .     S
H299   C337    1.087   .     S
C331   O387    1.299   .     A
C331   O390    1.297   .     A
C331   C344    1.464   .     S
C332   C334    1.411   .     A
C332   H370    1.082   .     S
C332   C359    1.403   .     A
C333   C360    1.409   .     A
C333   C353    1.418   .     A
C333   C730    1.530   1_554 S
C334   C355    1.420   .     A
C334   C729    1.530   .     S
C335   C337    1.434   .     S
C335   O392    1.293   .     A
C335   O394    1.287   .     A
C336   O393    1.288   .     A
C336   C338    1.432   .     S
C336   O395    1.291   .     A
C338   C205    1.331   1_655 S
C338   H244    1.084   1_655 S
C339   C350    1.403   .     A
C339   C341    1.391   .     A
C339   H378    1.083   .     S
C340   H379    1.083   .     S
C340   C351    1.404   .     A
C340   C343    1.391   .     A
C341   H380    1.083   .     S
C341   C344    1.403   .     A
C342   C345    1.455   .     S
C342   O389    1.299   .     A
C342   O391    1.291   .     A
C343   C345    1.400   .     A
C343   H381    1.083   .     S
C344   C346    1.404   .     A
C345   C347    1.400   .     A
C346   H382    1.083   .     S
C346   C348    1.390   .     A
C347   C349    1.389   .     A
C347   H383    1.084   .     S
C348   C350    1.402   .     A
C348   H384    1.083   .     S
C349   H366    1.083   .     S
C349   C351    1.403   .     A
C351   C152    1.467   1_565 S
C352   H373    1.108   .     S
C352   H372    1.115   .     S
C352   H371    1.106   .     S
C352   O396    1.412   .     S
C353   C356    1.436   .     A
C353   Cl361   1.771   .     S
C354   H375    1.114   .     S
C354   H374    1.107   .     S
C354   O388    1.410   .     S
C354   H377    1.109   .     S
C355   C357    1.436   .     A
C355   Cl362   1.771   .     S
C356   N385    1.379   .     A
C356   O396    1.391   .     S
C357   N386    1.375   .     A
C357   O388    1.391   .     S
C358   C360    1.404   .     A
C358   H367    1.080   .     S
C358   N385    1.363   .     A
C359   H368    1.081   .     S
C359   N386    1.360   .     A
C360   H369    1.081   .     S
Cu363  N386    2.019   .     S
Cu363  Cu364   2.688   .     S
Cu363  O395    1.959   .     S
Cu363  O387    1.956   .     S
Cu363  O391    1.951   .     S
Cu363  O392    1.962   .     S
Cu364  N385    2.019   .     S
Cu364  O390    1.951   .     S
Cu364  O394    1.959   .     S
Cu364  O393    1.962   .     S
Cu364  O389    1.956   .     S
H365   C205    1.087   1_655 S
C397   O453    1.299   .     A
C397   O456    1.297   .     A
C397   C410    1.464   .     S
C398   C400    1.411   .     A
C398   H436    1.082   .     S
C398   C425    1.403   .     A
C399   C426    1.409   .     A
C399   C419    1.418   .     A
C400   C421    1.420   .     A
C400   C3      1.530   1_556 S
C401   C403    1.434   .     S
C401   O458    1.293   .     A
C401   O460    1.287   .     A
C402   O459    1.288   .     A
C402   C404    1.432   .     S
C402   O461    1.291   .     A
C403   C536    1.331   1_455 S
C403   H563    1.087   1_455 S
C404   C469    1.331   .     S
C404   H508    1.084   .     S
C405   C416    1.403   .     A
C405   C407    1.391   .     A
C405   H444    1.083   .     S
C406   H445    1.083   .     S
C406   C417    1.404   .     A
C406   C409    1.391   .     A
C407   H446    1.083   .     S
C407   C410    1.403   .     A
C408   C411    1.455   .     S
C408   O455    1.299   .     A
C408   O457    1.291   .     A
C409   C411    1.400   .     A
C409   H447    1.083   .     S
C410   C412    1.404   .     A
C411   C413    1.400   .     A
C412   H448    1.083   .     S
C412   C414    1.390   .     A
C413   C415    1.389   .     A
C413   H449    1.084   .     S
C414   C416    1.402   .     A
C414   H450    1.083   .     S
C415   H432    1.083   .     S
C415   C417    1.403   .     A
C416   C615    1.467   1_545 S
C417   C614    1.467   .     S
C418   H439    1.108   .     S
C418   H438    1.115   .     S
C418   H437    1.106   .     S
C418   O462    1.412   .     S
C419   C422    1.436   .     A
C419   Cl427   1.771   .     S
C420   H441    1.114   .     S
C420   H440    1.107   .     S
C420   O454    1.410   .     S
C420   H443    1.109   .     S
C421   C423    1.436   .     A
C421   Cl428   1.771   .     S
C422   N451    1.379   .     A
C422   O462    1.391   .     S
C423   N452    1.375   .     A
C423   O454    1.391   .     S
C424   C426    1.404   .     A
C424   H433    1.080   .     S
C424   N451    1.363   .     A
C425   H434    1.081   .     S
C425   N452    1.360   .     A
C426   H435    1.081   .     S
Cu429  N452    2.019   .     S
Cu429  Cu430   2.688   .     S
Cu429  O461    1.959   .     S
Cu429  O453    1.956   .     S
Cu429  O457    1.951   .     S
Cu429  O458    1.962   .     S
Cu430  N451    2.019   .     S
Cu430  O456    1.951   .     S
Cu430  O460    1.959   .     S
Cu430  O459    1.962   .     S
Cu430  O455    1.956   .     S
H431   C469    1.087   .     S
H442   C536    1.084   1_455 S
C463   O519    1.299   .     A
C463   O522    1.297   .     A
C463   C476    1.464   .     S
C464   C466    1.411   .     A
C464   H502    1.082   .     S
C464   C491    1.403   .     A
C465   C492    1.409   .     A
C465   C485    1.418   .     A
C466   C487    1.420   .     A
C466   C69     1.530   1_556 S
C467   C469    1.434   .     S
C467   O524    1.293   .     A
C467   O526    1.287   .     A
C468   O525    1.288   .     A
C468   C470    1.432   .     S
C468   O527    1.291   .     A
C470   C535    1.331   .     S
C470   H574    1.084   .     S
C471   C482    1.403   .     A
C471   C473    1.391   .     A
C471   H510    1.083   .     S
C472   H511    1.083   .     S
C472   C483    1.404   .     A
C472   C475    1.391   .     A
C473   H512    1.083   .     S
C473   C476    1.403   .     A
C474   C477    1.455   .     S
C474   O521    1.299   .     A
C474   O523    1.291   .     A
C475   C477    1.400   .     A
C475   H513    1.083   .     S
C476   C478    1.404   .     A
C477   C479    1.400   .     A
C478   H514    1.083   .     S
C478   C480    1.390   .     A
C479   C481    1.389   .     A
C479   H515    1.084   .     S
C480   C482    1.402   .     A
C480   H516    1.083   .     S
C481   H498    1.083   .     S
C481   C483    1.403   .     A
C482   C681    1.467   1_545 S
C483   C680    1.467   .     S
C484   H505    1.108   .     S
C484   H504    1.115   .     S
C484   H503    1.106   .     S
C484   O528    1.412   .     S
C485   C488    1.436   .     A
C485   Cl493   1.771   .     S
C486   H507    1.114   .     S
C486   H506    1.107   .     S
C486   O520    1.410   .     S
C486   H509    1.109   .     S
C487   C489    1.436   .     A
C487   Cl494   1.771   .     S
C488   N517    1.379   .     A
C488   O528    1.391   .     S
C489   N518    1.375   .     A
C489   O520    1.391   .     S
C490   C492    1.404   .     A
C490   H499    1.080   .     S
C490   N517    1.363   .     A
C491   H500    1.081   .     S
C491   N518    1.360   .     A
C492   H501    1.081   .     S
Cu495  N518    2.019   .     S
Cu495  Cu496   2.688   .     S
Cu495  O527    1.959   .     S
Cu495  O519    1.956   .     S
Cu495  O523    1.951   .     S
Cu495  O524    1.962   .     S
Cu496  N517    2.019   .     S
Cu496  O522    1.951   .     S
Cu496  O526    1.959   .     S
Cu496  O525    1.962   .     S
Cu496  O521    1.956   .     S
H497   C535    1.087   .     S
C529   O585    1.299   .     A
C529   O588    1.297   .     A
C529   C542    1.464   .     S
C530   C532    1.411   .     A
C530   H568    1.082   .     S
C530   C557    1.403   .     A
C531   C558    1.409   .     A
C531   C551    1.418   .     A
C532   C553    1.420   .     A
C532   C135    1.530   1_556 S
C533   C535    1.434   .     S
C533   O590    1.293   .     A
C533   O592    1.287   .     A
C534   O591    1.288   .     A
C534   C536    1.432   .     S
C534   O593    1.291   .     A
C536   C403    1.331   1_655 S
C536   H442    1.084   1_655 S
C537   C548    1.403   .     A
C537   C539    1.391   .     A
C537   H576    1.083   .     S
C538   H577    1.083   .     S
C538   C549    1.404   .     A
C538   C541    1.391   .     A
C539   H578    1.083   .     S
C539   C542    1.403   .     A
C540   C543    1.455   .     S
C540   O587    1.299   .     A
C540   O589    1.291   .     A
C541   C543    1.400   .     A
C541   H579    1.083   .     S
C542   C544    1.404   .     A
C543   C545    1.400   .     A
C544   H580    1.083   .     S
C544   C546    1.390   .     A
C545   C547    1.389   .     A
C545   H581    1.084   .     S
C546   C548    1.402   .     A
C546   H582    1.083   .     S
C547   H564    1.083   .     S
C547   C549    1.403   .     A
C548   C747    1.467   1_545 S
C549   C746    1.467   .     S
C550   H571    1.108   .     S
C550   H570    1.115   .     S
C550   H569    1.106   .     S
C550   O594    1.412   .     S
C551   C554    1.436   .     A
C551   Cl559   1.771   .     S
C552   H573    1.114   .     S
C552   H572    1.107   .     S
C552   O586    1.410   .     S
C552   H575    1.109   .     S
C553   C555    1.436   .     A
C553   Cl560   1.771   .     S
C554   N583    1.379   .     A
C554   O594    1.391   .     S
C555   N584    1.375   .     A
C555   O586    1.391   .     S
C556   C558    1.404   .     A
C556   H565    1.080   .     S
C556   N583    1.363   .     A
C557   H566    1.081   .     S
C557   N584    1.360   .     A
C558   H567    1.081   .     S
Cu561  N584    2.019   .     S
Cu561  Cu562   2.688   .     S
Cu561  O593    1.959   .     S
Cu561  O585    1.956   .     S
Cu561  O589    1.951   .     S
Cu561  O590    1.962   .     S
Cu562  N583    2.019   .     S
Cu562  O588    1.951   .     S
Cu562  O592    1.959   .     S
Cu562  O591    1.962   .     S
Cu562  O587    1.956   .     S
H563   C403    1.087   1_655 S
C595   O651    1.299   .     A
C595   O654    1.297   .     A
C595   C608    1.464   .     S
C596   C598    1.411   .     A
C596   H634    1.082   .     S
C596   C623    1.403   .     A
C597   C624    1.409   .     A
C597   C617    1.418   .     A
C598   C619    1.420   .     A
C598   C201    1.530   1_556 S
C599   C601    1.434   .     S
C599   O656    1.293   .     A
C599   O658    1.287   .     A
C600   O657    1.288   .     A
C600   C602    1.432   .     S
C600   O659    1.291   .     A
C601   C734    1.331   1_455 S
C601   H761    1.087   1_455 S
C602   C667    1.331   .     S
C602   H706    1.084   .     S
C603   C614    1.403   .     A
C603   C605    1.391   .     A
C603   H642    1.083   .     S
C604   H643    1.083   .     S
C604   C615    1.404   .     A
C604   C607    1.391   .     A
C605   H644    1.083   .     S
C605   C608    1.403   .     A
C606   C609    1.455   .     S
C606   O653    1.299   .     A
C606   O655    1.291   .     A
C607   C609    1.400   .     A
C607   H645    1.083   .     S
C608   C610    1.404   .     A
C609   C611    1.400   .     A
C610   H646    1.083   .     S
C610   C612    1.390   .     A
C611   C613    1.389   .     A
C611   H647    1.084   .     S
C612   C614    1.402   .     A
C612   H648    1.083   .     S
C613   H630    1.083   .     S
C613   C615    1.403   .     A
C615   C416    1.467   1_565 S
C616   H637    1.108   .     S
C616   H636    1.115   .     S
C616   H635    1.106   .     S
C616   O660    1.412   .     S
C617   C620    1.436   .     A
C617   Cl625   1.771   .     S
C618   H639    1.114   .     S
C618   H638    1.107   .     S
C618   O652    1.410   .     S
C618   H641    1.109   .     S
C619   C621    1.436   .     A
C619   Cl626   1.771   .     S
C620   N649    1.379   .     A
C620   O660    1.391   .     S
C621   N650    1.375   .     A
C621   O652    1.391   .     S
C622   C624    1.404   .     A
C622   H631    1.080   .     S
C622   N649    1.363   .     A
C623   H632    1.081   .     S
C623   N650    1.360   .     A
C624   H633    1.081   .     S
Cu627  N650    2.019   .     S
Cu627  Cu628   2.688   .     S
Cu627  O659    1.959   .     S
Cu627  O651    1.956   .     S
Cu627  O655    1.951   .     S
Cu627  O656    1.962   .     S
Cu628  N649    2.019   .     S
Cu628  O654    1.951   .     S
Cu628  O658    1.959   .     S
Cu628  O657    1.962   .     S
Cu628  O653    1.956   .     S
H629   C667    1.087   .     S
H640   C734    1.084   1_455 S
C661   O717    1.299   .     A
C661   O720    1.297   .     A
C661   C674    1.464   .     S
C662   C664    1.411   .     A
C662   H700    1.082   .     S
C662   C689    1.403   .     A
C663   C690    1.409   .     A
C663   C683    1.418   .     A
C664   C685    1.420   .     A
C664   C267    1.530   1_556 S
C665   C667    1.434   .     S
C665   O722    1.293   .     A
C665   O724    1.287   .     A
C666   O723    1.288   .     A
C666   C668    1.432   .     S
C666   O725    1.291   .     A
C668   C733    1.331   .     S
C668   H772    1.084   .     S
C669   C680    1.403   .     A
C669   C671    1.391   .     A
C669   H708    1.083   .     S
C670   H709    1.083   .     S
C670   C681    1.404   .     A
C670   C673    1.391   .     A
C671   H710    1.083   .     S
C671   C674    1.403   .     A
C672   C675    1.455   .     S
C672   O719    1.299   .     A
C672   O721    1.291   .     A
C673   C675    1.400   .     A
C673   H711    1.083   .     S
C674   C676    1.404   .     A
C675   C677    1.400   .     A
C676   H712    1.083   .     S
C676   C678    1.390   .     A
C677   C679    1.389   .     A
C677   H713    1.084   .     S
C678   C680    1.402   .     A
C678   H714    1.083   .     S
C679   H696    1.083   .     S
C679   C681    1.403   .     A
C681   C482    1.467   1_565 S
C682   H703    1.108   .     S
C682   H702    1.115   .     S
C682   H701    1.106   .     S
C682   O726    1.412   .     S
C683   C686    1.436   .     A
C683   Cl691   1.771   .     S
C684   H705    1.114   .     S
C684   H704    1.107   .     S
C684   O718    1.410   .     S
C684   H707    1.109   .     S
C685   C687    1.436   .     A
C685   Cl692   1.771   .     S
C686   N715    1.379   .     A
C686   O726    1.391   .     S
C687   N716    1.375   .     A
C687   O718    1.391   .     S
C688   C690    1.404   .     A
C688   H697    1.080   .     S
C688   N715    1.363   .     A
C689   H698    1.081   .     S
C689   N716    1.360   .     A
C690   H699    1.081   .     S
Cu693  N716    2.019   .     S
Cu693  Cu694   2.688   .     S
Cu693  O725    1.959   .     S
Cu693  O717    1.956   .     S
Cu693  O721    1.951   .     S
Cu693  O722    1.962   .     S
Cu694  N715    2.019   .     S
Cu694  O720    1.951   .     S
Cu694  O724    1.959   .     S
Cu694  O723    1.962   .     S
Cu694  O719    1.956   .     S
H695   C733    1.087   .     S
C727   O783    1.299   .     A
C727   O786    1.297   .     A
C727   C740    1.464   .     S
C728   C730    1.411   .     A
C728   H766    1.082   .     S
C728   C755    1.403   .     A
C729   C756    1.409   .     A
C729   C749    1.418   .     A
C730   C751    1.420   .     A
C730   C333    1.530   1_556 S
C731   C733    1.434   .     S
C731   O788    1.293   .     A
C731   O790    1.287   .     A
C732   O789    1.288   .     A
C732   C734    1.432   .     S
C732   O791    1.291   .     A
C734   C601    1.331   1_655 S
C734   H640    1.084   1_655 S
C735   C746    1.403   .     A
C735   C737    1.391   .     A
C735   H774    1.083   .     S
C736   H775    1.083   .     S
C736   C747    1.404   .     A
C736   C739    1.391   .     A
C737   H776    1.083   .     S
C737   C740    1.403   .     A
C738   C741    1.455   .     S
C738   O785    1.299   .     A
C738   O787    1.291   .     A
C739   C741    1.400   .     A
C739   H777    1.083   .     S
C740   C742    1.404   .     A
C741   C743    1.400   .     A
C742   H778    1.083   .     S
C742   C744    1.390   .     A
C743   C745    1.389   .     A
C743   H779    1.084   .     S
C744   C746    1.402   .     A
C744   H780    1.083   .     S
C745   H762    1.083   .     S
C745   C747    1.403   .     A
C747   C548    1.467   1_565 S
C748   H769    1.108   .     S
C748   H768    1.115   .     S
C748   H767    1.106   .     S
C748   O792    1.412   .     S
C749   C752    1.436   .     A
C749   Cl757   1.771   .     S
C750   H771    1.114   .     S
C750   H770    1.107   .     S
C750   O784    1.410   .     S
C750   H773    1.109   .     S
C751   C753    1.436   .     A
C751   Cl758   1.771   .     S
C752   N781    1.379   .     A
C752   O792    1.391   .     S
C753   N782    1.375   .     A
C753   O784    1.391   .     S
C754   C756    1.404   .     A
C754   H763    1.080   .     S
C754   N781    1.363   .     A
C755   H764    1.081   .     S
C755   N782    1.360   .     A
C756   H765    1.081   .     S
Cu759  N782    2.019   .     S
Cu759  Cu760   2.688   .     S
Cu759  O791    1.959   .     S
Cu759  O783    1.956   .     S
Cu759  O787    1.951   .     S
Cu759  O788    1.962   .     S
Cu760  N781    2.019   .     S
Cu760  O786    1.951   .     S
Cu760  O790    1.959   .     S
Cu760  O789    1.962   .     S
Cu760  O785    1.956   .     S
H761   C601    1.087   1_655 S
