data_str_m2_o1_o5_pcu_sym.95
_audit_creation_date              2020-01-03
_audit_creation_method            'Materials Studio'
_symmetry_space_group_name_H-M    'P1'
_symmetry_Int_Tables_number       1
_symmetry_cell_setting            triclinic
loop_
_symmetry_equiv_pos_as_xyz
  x,y,z
_cell_length_a                    32.8705
_cell_length_b                    28.6613
_cell_length_c                    27.2280
_cell_angle_alpha                 89.9913
_cell_angle_beta                  90.9546
_cell_angle_gamma                 90.0016
loop_
_atom_site_label
_atom_site_type_symbol
_atom_site_fract_x
_atom_site_fract_y
_atom_site_fract_z
_atom_site_U_iso_or_equiv
_atom_site_adp_type
_atom_site_occupancy
C1     C     0.08734   0.16675   0.16649   0.00000  Uiso   1.00
C2     C     0.02095   0.20957   0.17148   0.00000  Uiso   1.00
C3     C     0.29066   0.16717   0.16702   0.00000  Uiso   1.00
C4     C     0.04268   0.16715   0.16641   0.00000  Uiso   1.00
C5     C     0.14937   0.02459   0.12866   0.00000  Uiso   1.00
C6     C     0.18492   0.30858   0.20404   0.00000  Uiso   1.00
C7     C     0.18396   0.02459   0.20468   0.00000  Uiso   1.00
C8     C     0.14841   0.30859   0.12930   0.00000  Uiso   1.00
C9     C     0.24600   0.16676   0.16687   0.00000  Uiso   1.00
C10    C     0.16663   0.16667   0.07357   0.00000  Uiso   1.00
C11    C     0.16671   0.16666   0.25977   0.00000  Uiso   1.00
C12    C     0.16665   0.16667   0.02185   0.00000  Uiso   1.00
C13    C     0.16668   0.16666   0.31148   0.00000  Uiso   1.00
C14    C     0.02061   0.12507   0.16149   0.00000  Uiso   1.00
C15    C     0.31241   0.20959   0.16208   0.00000  Uiso   1.00
C16    C     0.31272   0.12507   0.17187   0.00000  Uiso   1.00
Cu17   Cu    0.16667   0.21355   0.16667   0.00000  Uiso   1.00
Cu18   Cu    0.16667   0.11978   0.16667   0.00000  Uiso   1.00
F19    F     0.13257   0.04713   0.08964   0.00000  Uiso   1.00
F20    F     0.20453   0.28579   0.24101   0.00000  Uiso   1.00
F21    F     0.20075   0.04711   0.24371   0.00000  Uiso   1.00
F22    F     0.12880   0.28580   0.09232   0.00000  Uiso   1.00
I23    I     0.04405   0.06221   0.13019   0.00000  Uiso   1.00
I24    I     0.28650   0.27321   0.13340   0.00000  Uiso   1.00
I25    I     0.28928   0.06216   0.20310   0.00000  Uiso   1.00
I26    I     0.04691   0.27306   0.20042   0.00000  Uiso   1.00
N27    N     0.16667   0.28402   0.16667   0.00000  Uiso   1.00
N28    N     0.16667   0.04931   0.16667   0.00000  Uiso   1.00
O29    O     0.10655   0.20625   0.16666   0.00000  Uiso   1.00
O30    O     0.22679   0.12709   0.16667   0.00000  Uiso   1.00
O31    O     0.22679   0.20625   0.16667   0.00000  Uiso   1.00
O32    O     0.10655   0.12709   0.16666   0.00000  Uiso   1.00
O33    O     0.16667   0.20625   0.09613   0.00000  Uiso   1.00
O34    O     0.16667   0.12708   0.23720   0.00000  Uiso   1.00
O35    O     0.16667   0.20625   0.23720   0.00000  Uiso   1.00
O36    O     0.16667   0.12708   0.09613   0.00000  Uiso   1.00
C37    C     0.42067   0.16675   0.16649   0.00000  Uiso   1.00
C38    C     0.35428   0.20957   0.17148   0.00000  Uiso   1.00
C39    C     0.62399   0.16717   0.16702   0.00000  Uiso   1.00
C40    C     0.37602   0.16715   0.16641   0.00000  Uiso   1.00
C41    C     0.48270   0.02459   0.12866   0.00000  Uiso   1.00
C42    C     0.51825   0.30858   0.20404   0.00000  Uiso   1.00
C43    C     0.51730   0.02459   0.20468   0.00000  Uiso   1.00
C44    C     0.48175   0.30859   0.12930   0.00000  Uiso   1.00
C45    C     0.57933   0.16676   0.16687   0.00000  Uiso   1.00
C46    C     0.49996   0.16667   0.07357   0.00000  Uiso   1.00
C47    C     0.50004   0.16666   0.25977   0.00000  Uiso   1.00
C48    C     0.49999   0.16667   0.02185   0.00000  Uiso   1.00
C49    C     0.50002   0.16666   0.31148   0.00000  Uiso   1.00
C50    C     0.35394   0.12507   0.16149   0.00000  Uiso   1.00
C51    C     0.64574   0.20959   0.16208   0.00000  Uiso   1.00
C52    C     0.64606   0.12507   0.17187   0.00000  Uiso   1.00
Cu53   Cu    0.50000   0.21355   0.16667   0.00000  Uiso   1.00
Cu54   Cu    0.50000   0.11978   0.16667   0.00000  Uiso   1.00
F55    F     0.46590   0.04713   0.08964   0.00000  Uiso   1.00
F56    F     0.53787   0.28579   0.24101   0.00000  Uiso   1.00
F57    F     0.53408   0.04711   0.24371   0.00000  Uiso   1.00
F58    F     0.46213   0.28580   0.09232   0.00000  Uiso   1.00
I59    I     0.37738   0.06221   0.13019   0.00000  Uiso   1.00
I60    I     0.61983   0.27321   0.13340   0.00000  Uiso   1.00
I61    I     0.62262   0.06216   0.20310   0.00000  Uiso   1.00
I62    I     0.38024   0.27306   0.20042   0.00000  Uiso   1.00
N63    N     0.50000   0.28402   0.16667   0.00000  Uiso   1.00
N64    N     0.50000   0.04931   0.16667   0.00000  Uiso   1.00
O65    O     0.43988   0.20625   0.16666   0.00000  Uiso   1.00
O66    O     0.56012   0.12709   0.16667   0.00000  Uiso   1.00
O67    O     0.56012   0.20625   0.16667   0.00000  Uiso   1.00
O68    O     0.43988   0.12709   0.16666   0.00000  Uiso   1.00
O69    O     0.50000   0.20625   0.09613   0.00000  Uiso   1.00
O70    O     0.50000   0.12708   0.23720   0.00000  Uiso   1.00
O71    O     0.50000   0.20625   0.23720   0.00000  Uiso   1.00
O72    O     0.50000   0.12708   0.09613   0.00000  Uiso   1.00
C73    C     0.75401   0.16675   0.16649   0.00000  Uiso   1.00
C74    C     0.68762   0.20957   0.17148   0.00000  Uiso   1.00
C75    C     0.95733   0.16717   0.16702   0.00000  Uiso   1.00
C76    C     0.70935   0.16715   0.16641   0.00000  Uiso   1.00
C77    C     0.81603   0.02459   0.12866   0.00000  Uiso   1.00
C78    C     0.85159   0.30858   0.20404   0.00000  Uiso   1.00
C79    C     0.85063   0.02459   0.20468   0.00000  Uiso   1.00
C80    C     0.81508   0.30859   0.12930   0.00000  Uiso   1.00
C81    C     0.91266   0.16676   0.16687   0.00000  Uiso   1.00
C82    C     0.83329   0.16667   0.07357   0.00000  Uiso   1.00
C83    C     0.83338   0.16666   0.25977   0.00000  Uiso   1.00
C84    C     0.83332   0.16667   0.02185   0.00000  Uiso   1.00
C85    C     0.83335   0.16666   0.31148   0.00000  Uiso   1.00
C86    C     0.68728   0.12507   0.16149   0.00000  Uiso   1.00
C87    C     0.97908   0.20959   0.16208   0.00000  Uiso   1.00
C88    C     0.97939   0.12507   0.17187   0.00000  Uiso   1.00
Cu89   Cu    0.83333   0.21355   0.16667   0.00000  Uiso   1.00
Cu90   Cu    0.83333   0.11978   0.16667   0.00000  Uiso   1.00
F91    F     0.79923   0.04713   0.08964   0.00000  Uiso   1.00
F92    F     0.87120   0.28579   0.24101   0.00000  Uiso   1.00
F93    F     0.86741   0.04711   0.24371   0.00000  Uiso   1.00
F94    F     0.79546   0.28580   0.09232   0.00000  Uiso   1.00
I95    I     0.71071   0.06221   0.13019   0.00000  Uiso   1.00
I96    I     0.95317   0.27321   0.13340   0.00000  Uiso   1.00
I97    I     0.95595   0.06216   0.20310   0.00000  Uiso   1.00
I98    I     0.71357   0.27306   0.20042   0.00000  Uiso   1.00
N99    N     0.83333   0.28402   0.16667   0.00000  Uiso   1.00
N100   N     0.83333   0.04931   0.16667   0.00000  Uiso   1.00
O101   O     0.77321   0.20625   0.16666   0.00000  Uiso   1.00
O102   O     0.89345   0.12709   0.16667   0.00000  Uiso   1.00
O103   O     0.89345   0.20625   0.16667   0.00000  Uiso   1.00
O104   O     0.77321   0.12709   0.16666   0.00000  Uiso   1.00
O105   O     0.83333   0.20625   0.09613   0.00000  Uiso   1.00
O106   O     0.83333   0.12708   0.23720   0.00000  Uiso   1.00
O107   O     0.83333   0.20625   0.23720   0.00000  Uiso   1.00
O108   O     0.83333   0.12708   0.09613   0.00000  Uiso   1.00
C109   C     0.08734   0.50009   0.16649   0.00000  Uiso   1.00
C110   C     0.02095   0.54290   0.17148   0.00000  Uiso   1.00
C111   C     0.29066   0.50050   0.16702   0.00000  Uiso   1.00
C112   C     0.04268   0.50049   0.16641   0.00000  Uiso   1.00
C113   C     0.14937   0.35793   0.12866   0.00000  Uiso   1.00
C114   C     0.18492   0.64192   0.20404   0.00000  Uiso   1.00
C115   C     0.18396   0.35792   0.20468   0.00000  Uiso   1.00
C116   C     0.14841   0.64193   0.12930   0.00000  Uiso   1.00
C117   C     0.24600   0.50009   0.16687   0.00000  Uiso   1.00
C118   C     0.16663   0.50000   0.07357   0.00000  Uiso   1.00
C119   C     0.16671   0.50000   0.25977   0.00000  Uiso   1.00
C120   C     0.16665   0.50000   0.02185   0.00000  Uiso   1.00
C121   C     0.16668   0.50000   0.31148   0.00000  Uiso   1.00
C122   C     0.02061   0.45840   0.16149   0.00000  Uiso   1.00
C123   C     0.31241   0.54293   0.16208   0.00000  Uiso   1.00
C124   C     0.31272   0.45840   0.17187   0.00000  Uiso   1.00
Cu125  Cu    0.16667   0.54689   0.16667   0.00000  Uiso   1.00
Cu126  Cu    0.16667   0.45311   0.16667   0.00000  Uiso   1.00
F127   F     0.13257   0.38046   0.08964   0.00000  Uiso   1.00
F128   F     0.20453   0.61912   0.24101   0.00000  Uiso   1.00
F129   F     0.20075   0.38045   0.24371   0.00000  Uiso   1.00
F130   F     0.12880   0.61914   0.09232   0.00000  Uiso   1.00
I131   I     0.04405   0.39554   0.13019   0.00000  Uiso   1.00
I132   I     0.28650   0.60655   0.13340   0.00000  Uiso   1.00
I133   I     0.28928   0.39550   0.20310   0.00000  Uiso   1.00
I134   I     0.04691   0.60639   0.20042   0.00000  Uiso   1.00
N135   N     0.16667   0.61736   0.16667   0.00000  Uiso   1.00
N136   N     0.16667   0.38264   0.16667   0.00000  Uiso   1.00
O137   O     0.10655   0.53958   0.16666   0.00000  Uiso   1.00
O138   O     0.22679   0.46042   0.16667   0.00000  Uiso   1.00
O139   O     0.22679   0.53958   0.16667   0.00000  Uiso   1.00
O140   O     0.10655   0.46042   0.16666   0.00000  Uiso   1.00
O141   O     0.16667   0.53959   0.09613   0.00000  Uiso   1.00
O142   O     0.16667   0.46041   0.23720   0.00000  Uiso   1.00
O143   O     0.16667   0.53959   0.23720   0.00000  Uiso   1.00
O144   O     0.16667   0.46041   0.09613   0.00000  Uiso   1.00
C145   C     0.42067   0.50009   0.16649   0.00000  Uiso   1.00
C146   C     0.35428   0.54290   0.17148   0.00000  Uiso   1.00
C147   C     0.62399   0.50050   0.16702   0.00000  Uiso   1.00
C148   C     0.37602   0.50049   0.16641   0.00000  Uiso   1.00
C149   C     0.48270   0.35793   0.12866   0.00000  Uiso   1.00
C150   C     0.51825   0.64192   0.20404   0.00000  Uiso   1.00
C151   C     0.51730   0.35792   0.20468   0.00000  Uiso   1.00
C152   C     0.48175   0.64193   0.12930   0.00000  Uiso   1.00
C153   C     0.57933   0.50009   0.16687   0.00000  Uiso   1.00
C154   C     0.49996   0.50000   0.07357   0.00000  Uiso   1.00
C155   C     0.50004   0.50000   0.25977   0.00000  Uiso   1.00
C156   C     0.49999   0.50000   0.02185   0.00000  Uiso   1.00
C157   C     0.50002   0.50000   0.31148   0.00000  Uiso   1.00
C158   C     0.35394   0.45840   0.16149   0.00000  Uiso   1.00
C159   C     0.64574   0.54293   0.16208   0.00000  Uiso   1.00
C160   C     0.64606   0.45840   0.17187   0.00000  Uiso   1.00
Cu161  Cu    0.50000   0.54689   0.16667   0.00000  Uiso   1.00
Cu162  Cu    0.50000   0.45311   0.16667   0.00000  Uiso   1.00
F163   F     0.46590   0.38046   0.08964   0.00000  Uiso   1.00
F164   F     0.53787   0.61912   0.24101   0.00000  Uiso   1.00
F165   F     0.53408   0.38045   0.24371   0.00000  Uiso   1.00
F166   F     0.46213   0.61914   0.09232   0.00000  Uiso   1.00
I167   I     0.37738   0.39554   0.13019   0.00000  Uiso   1.00
I168   I     0.61983   0.60655   0.13340   0.00000  Uiso   1.00
I169   I     0.62262   0.39550   0.20310   0.00000  Uiso   1.00
I170   I     0.38024   0.60639   0.20042   0.00000  Uiso   1.00
N171   N     0.50000   0.61736   0.16667   0.00000  Uiso   1.00
N172   N     0.50000   0.38264   0.16667   0.00000  Uiso   1.00
O173   O     0.43988   0.53958   0.16666   0.00000  Uiso   1.00
O174   O     0.56012   0.46042   0.16667   0.00000  Uiso   1.00
O175   O     0.56012   0.53958   0.16667   0.00000  Uiso   1.00
O176   O     0.43988   0.46042   0.16666   0.00000  Uiso   1.00
O177   O     0.50000   0.53959   0.09613   0.00000  Uiso   1.00
O178   O     0.50000   0.46041   0.23720   0.00000  Uiso   1.00
O179   O     0.50000   0.53959   0.23720   0.00000  Uiso   1.00
O180   O     0.50000   0.46041   0.09613   0.00000  Uiso   1.00
C181   C     0.75401   0.50009   0.16649   0.00000  Uiso   1.00
C182   C     0.68762   0.54290   0.17148   0.00000  Uiso   1.00
C183   C     0.95733   0.50050   0.16702   0.00000  Uiso   1.00
C184   C     0.70935   0.50049   0.16641   0.00000  Uiso   1.00
C185   C     0.81603   0.35793   0.12866   0.00000  Uiso   1.00
C186   C     0.85159   0.64192   0.20404   0.00000  Uiso   1.00
C187   C     0.85063   0.35792   0.20468   0.00000  Uiso   1.00
C188   C     0.81508   0.64193   0.12930   0.00000  Uiso   1.00
C189   C     0.91266   0.50009   0.16687   0.00000  Uiso   1.00
C190   C     0.83329   0.50000   0.07357   0.00000  Uiso   1.00
C191   C     0.83338   0.50000   0.25977   0.00000  Uiso   1.00
C192   C     0.83332   0.50000   0.02185   0.00000  Uiso   1.00
C193   C     0.83335   0.50000   0.31148   0.00000  Uiso   1.00
C194   C     0.68728   0.45840   0.16149   0.00000  Uiso   1.00
C195   C     0.97908   0.54293   0.16208   0.00000  Uiso   1.00
C196   C     0.97939   0.45840   0.17187   0.00000  Uiso   1.00
Cu197  Cu    0.83333   0.54689   0.16667   0.00000  Uiso   1.00
Cu198  Cu    0.83333   0.45311   0.16667   0.00000  Uiso   1.00
F199   F     0.79923   0.38046   0.08964   0.00000  Uiso   1.00
F200   F     0.87120   0.61912   0.24101   0.00000  Uiso   1.00
F201   F     0.86741   0.38045   0.24371   0.00000  Uiso   1.00
F202   F     0.79546   0.61914   0.09232   0.00000  Uiso   1.00
I203   I     0.71071   0.39554   0.13019   0.00000  Uiso   1.00
I204   I     0.95317   0.60655   0.13340   0.00000  Uiso   1.00
I205   I     0.95595   0.39550   0.20310   0.00000  Uiso   1.00
I206   I     0.71357   0.60639   0.20042   0.00000  Uiso   1.00
N207   N     0.83333   0.61736   0.16667   0.00000  Uiso   1.00
N208   N     0.83333   0.38264   0.16667   0.00000  Uiso   1.00
O209   O     0.77321   0.53958   0.16666   0.00000  Uiso   1.00
O210   O     0.89345   0.46042   0.16667   0.00000  Uiso   1.00
O211   O     0.89345   0.53958   0.16667   0.00000  Uiso   1.00
O212   O     0.77321   0.46042   0.16666   0.00000  Uiso   1.00
O213   O     0.83333   0.53959   0.09613   0.00000  Uiso   1.00
O214   O     0.83333   0.46041   0.23720   0.00000  Uiso   1.00
O215   O     0.83333   0.53959   0.23720   0.00000  Uiso   1.00
O216   O     0.83333   0.46041   0.09613   0.00000  Uiso   1.00
C217   C     0.08734   0.83342   0.16649   0.00000  Uiso   1.00
C218   C     0.02095   0.87624   0.17148   0.00000  Uiso   1.00
C219   C     0.29066   0.83383   0.16702   0.00000  Uiso   1.00
C220   C     0.04268   0.83382   0.16641   0.00000  Uiso   1.00
C221   C     0.14937   0.69126   0.12866   0.00000  Uiso   1.00
C222   C     0.18492   0.97525   0.20404   0.00000  Uiso   1.00
C223   C     0.18396   0.69125   0.20468   0.00000  Uiso   1.00
C224   C     0.14841   0.97526   0.12930   0.00000  Uiso   1.00
C225   C     0.24600   0.83342   0.16687   0.00000  Uiso   1.00
C226   C     0.16663   0.83334   0.07357   0.00000  Uiso   1.00
C227   C     0.16671   0.83333   0.25977   0.00000  Uiso   1.00
C228   C     0.16665   0.83334   0.02185   0.00000  Uiso   1.00
C229   C     0.16668   0.83333   0.31148   0.00000  Uiso   1.00
C230   C     0.02061   0.79174   0.16149   0.00000  Uiso   1.00
C231   C     0.31241   0.87626   0.16208   0.00000  Uiso   1.00
C232   C     0.31272   0.79173   0.17187   0.00000  Uiso   1.00
Cu233  Cu    0.16667   0.88022   0.16667   0.00000  Uiso   1.00
Cu234  Cu    0.16667   0.78645   0.16667   0.00000  Uiso   1.00
F235   F     0.13257   0.71380   0.08964   0.00000  Uiso   1.00
F236   F     0.20453   0.95245   0.24101   0.00000  Uiso   1.00
F237   F     0.20075   0.71378   0.24371   0.00000  Uiso   1.00
F238   F     0.12880   0.95247   0.09232   0.00000  Uiso   1.00
I239   I     0.04405   0.72887   0.13019   0.00000  Uiso   1.00
I240   I     0.28650   0.93988   0.13340   0.00000  Uiso   1.00
I241   I     0.28928   0.72883   0.20310   0.00000  Uiso   1.00
I242   I     0.04691   0.93973   0.20042   0.00000  Uiso   1.00
N243   N     0.16667   0.95069   0.16667   0.00000  Uiso   1.00
N244   N     0.16667   0.71598   0.16667   0.00000  Uiso   1.00
O245   O     0.10655   0.87291   0.16666   0.00000  Uiso   1.00
O246   O     0.22679   0.79375   0.16667   0.00000  Uiso   1.00
O247   O     0.22679   0.87291   0.16667   0.00000  Uiso   1.00
O248   O     0.10655   0.79375   0.16666   0.00000  Uiso   1.00
O249   O     0.16667   0.87292   0.09613   0.00000  Uiso   1.00
O250   O     0.16667   0.79375   0.23720   0.00000  Uiso   1.00
O251   O     0.16667   0.87292   0.23720   0.00000  Uiso   1.00
O252   O     0.16667   0.79375   0.09613   0.00000  Uiso   1.00
C253   C     0.42067   0.83342   0.16649   0.00000  Uiso   1.00
C254   C     0.35428   0.87624   0.17148   0.00000  Uiso   1.00
C255   C     0.62399   0.83383   0.16702   0.00000  Uiso   1.00
C256   C     0.37602   0.83382   0.16641   0.00000  Uiso   1.00
C257   C     0.48270   0.69126   0.12866   0.00000  Uiso   1.00
C258   C     0.51825   0.97525   0.20404   0.00000  Uiso   1.00
C259   C     0.51730   0.69125   0.20468   0.00000  Uiso   1.00
C260   C     0.48175   0.97526   0.12930   0.00000  Uiso   1.00
C261   C     0.57933   0.83342   0.16687   0.00000  Uiso   1.00
C262   C     0.49996   0.83334   0.07357   0.00000  Uiso   1.00
C263   C     0.50004   0.83333   0.25977   0.00000  Uiso   1.00
C264   C     0.49999   0.83334   0.02185   0.00000  Uiso   1.00
C265   C     0.50002   0.83333   0.31148   0.00000  Uiso   1.00
C266   C     0.35394   0.79174   0.16149   0.00000  Uiso   1.00
C267   C     0.64574   0.87626   0.16208   0.00000  Uiso   1.00
C268   C     0.64606   0.79173   0.17187   0.00000  Uiso   1.00
Cu269  Cu    0.50000   0.88022   0.16667   0.00000  Uiso   1.00
Cu270  Cu    0.50000   0.78645   0.16667   0.00000  Uiso   1.00
F271   F     0.46590   0.71380   0.08964   0.00000  Uiso   1.00
F272   F     0.53787   0.95245   0.24101   0.00000  Uiso   1.00
F273   F     0.53408   0.71378   0.24371   0.00000  Uiso   1.00
F274   F     0.46213   0.95247   0.09232   0.00000  Uiso   1.00
I275   I     0.37738   0.72887   0.13019   0.00000  Uiso   1.00
I276   I     0.61983   0.93988   0.13340   0.00000  Uiso   1.00
I277   I     0.62262   0.72883   0.20310   0.00000  Uiso   1.00
I278   I     0.38024   0.93973   0.20042   0.00000  Uiso   1.00
N279   N     0.50000   0.95069   0.16667   0.00000  Uiso   1.00
N280   N     0.50000   0.71598   0.16667   0.00000  Uiso   1.00
O281   O     0.43988   0.87291   0.16666   0.00000  Uiso   1.00
O282   O     0.56012   0.79375   0.16667   0.00000  Uiso   1.00
O283   O     0.56012   0.87291   0.16667   0.00000  Uiso   1.00
O284   O     0.43988   0.79375   0.16666   0.00000  Uiso   1.00
O285   O     0.50000   0.87292   0.09613   0.00000  Uiso   1.00
O286   O     0.50000   0.79375   0.23720   0.00000  Uiso   1.00
O287   O     0.50000   0.87292   0.23720   0.00000  Uiso   1.00
O288   O     0.50000   0.79375   0.09613   0.00000  Uiso   1.00
C289   C     0.75401   0.83342   0.16649   0.00000  Uiso   1.00
C290   C     0.68762   0.87624   0.17148   0.00000  Uiso   1.00
C291   C     0.95733   0.83383   0.16702   0.00000  Uiso   1.00
C292   C     0.70935   0.83382   0.16641   0.00000  Uiso   1.00
C293   C     0.81603   0.69126   0.12866   0.00000  Uiso   1.00
C294   C     0.85159   0.97525   0.20404   0.00000  Uiso   1.00
C295   C     0.85063   0.69125   0.20468   0.00000  Uiso   1.00
C296   C     0.81508   0.97526   0.12930   0.00000  Uiso   1.00
C297   C     0.91266   0.83342   0.16687   0.00000  Uiso   1.00
C298   C     0.83329   0.83334   0.07357   0.00000  Uiso   1.00
C299   C     0.83338   0.83333   0.25977   0.00000  Uiso   1.00
C300   C     0.83332   0.83334   0.02185   0.00000  Uiso   1.00
C301   C     0.83335   0.83333   0.31148   0.00000  Uiso   1.00
C302   C     0.68728   0.79174   0.16149   0.00000  Uiso   1.00
C303   C     0.97908   0.87626   0.16208   0.00000  Uiso   1.00
C304   C     0.97939   0.79173   0.17187   0.00000  Uiso   1.00
Cu305  Cu    0.83333   0.88022   0.16667   0.00000  Uiso   1.00
Cu306  Cu    0.83333   0.78645   0.16667   0.00000  Uiso   1.00
F307   F     0.79923   0.71380   0.08964   0.00000  Uiso   1.00
F308   F     0.87120   0.95245   0.24101   0.00000  Uiso   1.00
F309   F     0.86741   0.71378   0.24371   0.00000  Uiso   1.00
F310   F     0.79546   0.95247   0.09232   0.00000  Uiso   1.00
I311   I     0.71071   0.72887   0.13019   0.00000  Uiso   1.00
I312   I     0.95317   0.93988   0.13340   0.00000  Uiso   1.00
I313   I     0.95595   0.72883   0.20310   0.00000  Uiso   1.00
I314   I     0.71357   0.93973   0.20042   0.00000  Uiso   1.00
N315   N     0.83333   0.95069   0.16667   0.00000  Uiso   1.00
N316   N     0.83333   0.71598   0.16667   0.00000  Uiso   1.00
O317   O     0.77321   0.87291   0.16666   0.00000  Uiso   1.00
O318   O     0.89345   0.79375   0.16667   0.00000  Uiso   1.00
O319   O     0.89345   0.87291   0.16667   0.00000  Uiso   1.00
O320   O     0.77321   0.79375   0.16666   0.00000  Uiso   1.00
O321   O     0.83333   0.87292   0.09613   0.00000  Uiso   1.00
O322   O     0.83333   0.79375   0.23720   0.00000  Uiso   1.00
O323   O     0.83333   0.87292   0.23720   0.00000  Uiso   1.00
O324   O     0.83333   0.79375   0.09613   0.00000  Uiso   1.00
C325   C     0.08734   0.16675   0.49983   0.00000  Uiso   1.00
C326   C     0.02095   0.20957   0.50482   0.00000  Uiso   1.00
C327   C     0.29066   0.16717   0.50035   0.00000  Uiso   1.00
C328   C     0.04268   0.16715   0.49975   0.00000  Uiso   1.00
C329   C     0.14937   0.02459   0.46199   0.00000  Uiso   1.00
C330   C     0.18492   0.30858   0.53737   0.00000  Uiso   1.00
C331   C     0.18396   0.02459   0.53801   0.00000  Uiso   1.00
C332   C     0.14841   0.30859   0.46263   0.00000  Uiso   1.00
C333   C     0.24600   0.16676   0.50020   0.00000  Uiso   1.00
C334   C     0.16663   0.16667   0.40690   0.00000  Uiso   1.00
C335   C     0.16671   0.16666   0.59310   0.00000  Uiso   1.00
C336   C     0.16665   0.16667   0.35519   0.00000  Uiso   1.00
C337   C     0.16668   0.16666   0.64481   0.00000  Uiso   1.00
C338   C     0.02061   0.12507   0.49483   0.00000  Uiso   1.00
C339   C     0.31241   0.20959   0.49542   0.00000  Uiso   1.00
C340   C     0.31272   0.12507   0.50521   0.00000  Uiso   1.00
Cu341  Cu    0.16667   0.21355   0.50000   0.00000  Uiso   1.00
Cu342  Cu    0.16667   0.11978   0.50000   0.00000  Uiso   1.00
F343   F     0.13257   0.04713   0.42297   0.00000  Uiso   1.00
F344   F     0.20453   0.28579   0.57435   0.00000  Uiso   1.00
F345   F     0.20075   0.04711   0.57704   0.00000  Uiso   1.00
F346   F     0.12880   0.28580   0.42565   0.00000  Uiso   1.00
I347   I     0.04405   0.06221   0.46352   0.00000  Uiso   1.00
I348   I     0.28650   0.27321   0.46673   0.00000  Uiso   1.00
I349   I     0.28928   0.06216   0.53644   0.00000  Uiso   1.00
I350   I     0.04691   0.27306   0.53376   0.00000  Uiso   1.00
N351   N     0.16667   0.28402   0.50000   0.00000  Uiso   1.00
N352   N     0.16667   0.04931   0.50000   0.00000  Uiso   1.00
O353   O     0.10655   0.20625   0.50000   0.00000  Uiso   1.00
O354   O     0.22679   0.12709   0.50000   0.00000  Uiso   1.00
O355   O     0.22679   0.20625   0.50000   0.00000  Uiso   1.00
O356   O     0.10655   0.12709   0.50000   0.00000  Uiso   1.00
O357   O     0.16667   0.20625   0.42946   0.00000  Uiso   1.00
O358   O     0.16667   0.12708   0.57054   0.00000  Uiso   1.00
O359   O     0.16667   0.20625   0.57054   0.00000  Uiso   1.00
O360   O     0.16667   0.12708   0.42946   0.00000  Uiso   1.00
C361   C     0.42067   0.16675   0.49983   0.00000  Uiso   1.00
C362   C     0.35428   0.20957   0.50482   0.00000  Uiso   1.00
C363   C     0.62399   0.16717   0.50035   0.00000  Uiso   1.00
C364   C     0.37602   0.16715   0.49975   0.00000  Uiso   1.00
C365   C     0.48270   0.02459   0.46199   0.00000  Uiso   1.00
C366   C     0.51825   0.30858   0.53737   0.00000  Uiso   1.00
C367   C     0.51730   0.02459   0.53801   0.00000  Uiso   1.00
C368   C     0.48175   0.30859   0.46263   0.00000  Uiso   1.00
C369   C     0.57933   0.16676   0.50020   0.00000  Uiso   1.00
C370   C     0.49996   0.16667   0.40690   0.00000  Uiso   1.00
C371   C     0.50004   0.16666   0.59310   0.00000  Uiso   1.00
C372   C     0.49999   0.16667   0.35519   0.00000  Uiso   1.00
C373   C     0.50002   0.16666   0.64481   0.00000  Uiso   1.00
C374   C     0.35394   0.12507   0.49483   0.00000  Uiso   1.00
C375   C     0.64574   0.20959   0.49542   0.00000  Uiso   1.00
C376   C     0.64606   0.12507   0.50521   0.00000  Uiso   1.00
Cu377  Cu    0.50000   0.21355   0.50000   0.00000  Uiso   1.00
Cu378  Cu    0.50000   0.11978   0.50000   0.00000  Uiso   1.00
F379   F     0.46590   0.04713   0.42297   0.00000  Uiso   1.00
F380   F     0.53787   0.28579   0.57435   0.00000  Uiso   1.00
F381   F     0.53408   0.04711   0.57704   0.00000  Uiso   1.00
F382   F     0.46213   0.28580   0.42565   0.00000  Uiso   1.00
I383   I     0.37738   0.06221   0.46352   0.00000  Uiso   1.00
I384   I     0.61983   0.27321   0.46673   0.00000  Uiso   1.00
I385   I     0.62262   0.06216   0.53644   0.00000  Uiso   1.00
I386   I     0.38024   0.27306   0.53376   0.00000  Uiso   1.00
N387   N     0.50000   0.28402   0.50000   0.00000  Uiso   1.00
N388   N     0.50000   0.04931   0.50000   0.00000  Uiso   1.00
O389   O     0.43988   0.20625   0.50000   0.00000  Uiso   1.00
O390   O     0.56012   0.12709   0.50000   0.00000  Uiso   1.00
O391   O     0.56012   0.20625   0.50000   0.00000  Uiso   1.00
O392   O     0.43988   0.12709   0.50000   0.00000  Uiso   1.00
O393   O     0.50000   0.20625   0.42946   0.00000  Uiso   1.00
O394   O     0.50000   0.12708   0.57054   0.00000  Uiso   1.00
O395   O     0.50000   0.20625   0.57054   0.00000  Uiso   1.00
O396   O     0.50000   0.12708   0.42946   0.00000  Uiso   1.00
C397   C     0.75401   0.16675   0.49983   0.00000  Uiso   1.00
C398   C     0.68762   0.20957   0.50482   0.00000  Uiso   1.00
C399   C     0.95733   0.16717   0.50035   0.00000  Uiso   1.00
C400   C     0.70935   0.16715   0.49975   0.00000  Uiso   1.00
C401   C     0.81603   0.02459   0.46199   0.00000  Uiso   1.00
C402   C     0.85159   0.30858   0.53737   0.00000  Uiso   1.00
C403   C     0.85063   0.02459   0.53801   0.00000  Uiso   1.00
C404   C     0.81508   0.30859   0.46263   0.00000  Uiso   1.00
C405   C     0.91266   0.16676   0.50020   0.00000  Uiso   1.00
C406   C     0.83329   0.16667   0.40690   0.00000  Uiso   1.00
C407   C     0.83338   0.16666   0.59310   0.00000  Uiso   1.00
C408   C     0.83332   0.16667   0.35519   0.00000  Uiso   1.00
C409   C     0.83335   0.16666   0.64481   0.00000  Uiso   1.00
C410   C     0.68728   0.12507   0.49483   0.00000  Uiso   1.00
C411   C     0.97908   0.20959   0.49542   0.00000  Uiso   1.00
C412   C     0.97939   0.12507   0.50521   0.00000  Uiso   1.00
Cu413  Cu    0.83333   0.21355   0.50000   0.00000  Uiso   1.00
Cu414  Cu    0.83333   0.11978   0.50000   0.00000  Uiso   1.00
F415   F     0.79923   0.04713   0.42297   0.00000  Uiso   1.00
F416   F     0.87120   0.28579   0.57435   0.00000  Uiso   1.00
F417   F     0.86741   0.04711   0.57704   0.00000  Uiso   1.00
F418   F     0.79546   0.28580   0.42565   0.00000  Uiso   1.00
I419   I     0.71071   0.06221   0.46352   0.00000  Uiso   1.00
I420   I     0.95317   0.27321   0.46673   0.00000  Uiso   1.00
I421   I     0.95595   0.06216   0.53644   0.00000  Uiso   1.00
I422   I     0.71357   0.27306   0.53376   0.00000  Uiso   1.00
N423   N     0.83333   0.28402   0.50000   0.00000  Uiso   1.00
N424   N     0.83333   0.04931   0.50000   0.00000  Uiso   1.00
O425   O     0.77321   0.20625   0.50000   0.00000  Uiso   1.00
O426   O     0.89345   0.12709   0.50000   0.00000  Uiso   1.00
O427   O     0.89345   0.20625   0.50000   0.00000  Uiso   1.00
O428   O     0.77321   0.12709   0.50000   0.00000  Uiso   1.00
O429   O     0.83333   0.20625   0.42946   0.00000  Uiso   1.00
O430   O     0.83333   0.12708   0.57054   0.00000  Uiso   1.00
O431   O     0.83333   0.20625   0.57054   0.00000  Uiso   1.00
O432   O     0.83333   0.12708   0.42946   0.00000  Uiso   1.00
C433   C     0.08734   0.50009   0.49983   0.00000  Uiso   1.00
C434   C     0.02095   0.54290   0.50482   0.00000  Uiso   1.00
C435   C     0.29066   0.50050   0.50035   0.00000  Uiso   1.00
C436   C     0.04268   0.50049   0.49975   0.00000  Uiso   1.00
C437   C     0.14937   0.35793   0.46199   0.00000  Uiso   1.00
C438   C     0.18492   0.64192   0.53737   0.00000  Uiso   1.00
C439   C     0.18396   0.35792   0.53801   0.00000  Uiso   1.00
C440   C     0.14841   0.64193   0.46263   0.00000  Uiso   1.00
C441   C     0.24600   0.50009   0.50020   0.00000  Uiso   1.00
C442   C     0.16663   0.50000   0.40690   0.00000  Uiso   1.00
C443   C     0.16671   0.50000   0.59310   0.00000  Uiso   1.00
C444   C     0.16665   0.50000   0.35519   0.00000  Uiso   1.00
C445   C     0.16668   0.50000   0.64481   0.00000  Uiso   1.00
C446   C     0.02061   0.45840   0.49483   0.00000  Uiso   1.00
C447   C     0.31241   0.54293   0.49542   0.00000  Uiso   1.00
C448   C     0.31272   0.45840   0.50521   0.00000  Uiso   1.00
Cu449  Cu    0.16667   0.54689   0.50000   0.00000  Uiso   1.00
Cu450  Cu    0.16667   0.45311   0.50000   0.00000  Uiso   1.00
F451   F     0.13257   0.38046   0.42297   0.00000  Uiso   1.00
F452   F     0.20453   0.61912   0.57435   0.00000  Uiso   1.00
F453   F     0.20075   0.38045   0.57704   0.00000  Uiso   1.00
F454   F     0.12880   0.61914   0.42565   0.00000  Uiso   1.00
I455   I     0.04405   0.39554   0.46352   0.00000  Uiso   1.00
I456   I     0.28650   0.60655   0.46673   0.00000  Uiso   1.00
I457   I     0.28928   0.39550   0.53644   0.00000  Uiso   1.00
I458   I     0.04691   0.60639   0.53376   0.00000  Uiso   1.00
N459   N     0.16667   0.61736   0.50000   0.00000  Uiso   1.00
N460   N     0.16667   0.38264   0.50000   0.00000  Uiso   1.00
O461   O     0.10655   0.53958   0.50000   0.00000  Uiso   1.00
O462   O     0.22679   0.46042   0.50000   0.00000  Uiso   1.00
O463   O     0.22679   0.53958   0.50000   0.00000  Uiso   1.00
O464   O     0.10655   0.46042   0.50000   0.00000  Uiso   1.00
O465   O     0.16667   0.53959   0.42946   0.00000  Uiso   1.00
O466   O     0.16667   0.46041   0.57054   0.00000  Uiso   1.00
O467   O     0.16667   0.53959   0.57054   0.00000  Uiso   1.00
O468   O     0.16667   0.46041   0.42946   0.00000  Uiso   1.00
C469   C     0.42067   0.50009   0.49983   0.00000  Uiso   1.00
C470   C     0.35428   0.54290   0.50482   0.00000  Uiso   1.00
C471   C     0.62399   0.50050   0.50035   0.00000  Uiso   1.00
C472   C     0.37602   0.50049   0.49975   0.00000  Uiso   1.00
C473   C     0.48270   0.35793   0.46199   0.00000  Uiso   1.00
C474   C     0.51825   0.64192   0.53737   0.00000  Uiso   1.00
C475   C     0.51730   0.35792   0.53801   0.00000  Uiso   1.00
C476   C     0.48175   0.64193   0.46263   0.00000  Uiso   1.00
C477   C     0.57933   0.50009   0.50020   0.00000  Uiso   1.00
C478   C     0.49996   0.50000   0.40690   0.00000  Uiso   1.00
C479   C     0.50004   0.50000   0.59310   0.00000  Uiso   1.00
C480   C     0.49999   0.50000   0.35519   0.00000  Uiso   1.00
C481   C     0.50002   0.50000   0.64481   0.00000  Uiso   1.00
C482   C     0.35394   0.45840   0.49483   0.00000  Uiso   1.00
C483   C     0.64574   0.54293   0.49542   0.00000  Uiso   1.00
C484   C     0.64606   0.45840   0.50521   0.00000  Uiso   1.00
Cu485  Cu    0.50000   0.54689   0.50000   0.00000  Uiso   1.00
Cu486  Cu    0.50000   0.45311   0.50000   0.00000  Uiso   1.00
F487   F     0.46590   0.38046   0.42297   0.00000  Uiso   1.00
F488   F     0.53787   0.61912   0.57435   0.00000  Uiso   1.00
F489   F     0.53408   0.38045   0.57704   0.00000  Uiso   1.00
F490   F     0.46213   0.61914   0.42565   0.00000  Uiso   1.00
I491   I     0.37738   0.39554   0.46352   0.00000  Uiso   1.00
I492   I     0.61983   0.60655   0.46673   0.00000  Uiso   1.00
I493   I     0.62262   0.39550   0.53644   0.00000  Uiso   1.00
I494   I     0.38024   0.60639   0.53376   0.00000  Uiso   1.00
N495   N     0.50000   0.61736   0.50000   0.00000  Uiso   1.00
N496   N     0.50000   0.38264   0.50000   0.00000  Uiso   1.00
O497   O     0.43988   0.53958   0.50000   0.00000  Uiso   1.00
O498   O     0.56012   0.46042   0.50000   0.00000  Uiso   1.00
O499   O     0.56012   0.53958   0.50000   0.00000  Uiso   1.00
O500   O     0.43988   0.46042   0.50000   0.00000  Uiso   1.00
O501   O     0.50000   0.53959   0.42946   0.00000  Uiso   1.00
O502   O     0.50000   0.46041   0.57054   0.00000  Uiso   1.00
O503   O     0.50000   0.53959   0.57054   0.00000  Uiso   1.00
O504   O     0.50000   0.46041   0.42946   0.00000  Uiso   1.00
C505   C     0.75401   0.50009   0.49983   0.00000  Uiso   1.00
C506   C     0.68762   0.54290   0.50482   0.00000  Uiso   1.00
C507   C     0.95733   0.50050   0.50035   0.00000  Uiso   1.00
C508   C     0.70935   0.50049   0.49975   0.00000  Uiso   1.00
C509   C     0.81603   0.35793   0.46199   0.00000  Uiso   1.00
C510   C     0.85159   0.64192   0.53737   0.00000  Uiso   1.00
C511   C     0.85063   0.35792   0.53801   0.00000  Uiso   1.00
C512   C     0.81508   0.64193   0.46263   0.00000  Uiso   1.00
C513   C     0.91266   0.50009   0.50020   0.00000  Uiso   1.00
C514   C     0.83329   0.50000   0.40690   0.00000  Uiso   1.00
C515   C     0.83338   0.50000   0.59310   0.00000  Uiso   1.00
C516   C     0.83332   0.50000   0.35519   0.00000  Uiso   1.00
C517   C     0.83335   0.50000   0.64481   0.00000  Uiso   1.00
C518   C     0.68728   0.45840   0.49483   0.00000  Uiso   1.00
C519   C     0.97908   0.54293   0.49542   0.00000  Uiso   1.00
C520   C     0.97939   0.45840   0.50521   0.00000  Uiso   1.00
Cu521  Cu    0.83333   0.54689   0.50000   0.00000  Uiso   1.00
Cu522  Cu    0.83333   0.45311   0.50000   0.00000  Uiso   1.00
F523   F     0.79923   0.38046   0.42297   0.00000  Uiso   1.00
F524   F     0.87120   0.61912   0.57435   0.00000  Uiso   1.00
F525   F     0.86741   0.38045   0.57704   0.00000  Uiso   1.00
F526   F     0.79546   0.61914   0.42565   0.00000  Uiso   1.00
I527   I     0.71071   0.39554   0.46352   0.00000  Uiso   1.00
I528   I     0.95317   0.60655   0.46673   0.00000  Uiso   1.00
I529   I     0.95595   0.39550   0.53644   0.00000  Uiso   1.00
I530   I     0.71357   0.60639   0.53376   0.00000  Uiso   1.00
N531   N     0.83333   0.61736   0.50000   0.00000  Uiso   1.00
N532   N     0.83333   0.38264   0.50000   0.00000  Uiso   1.00
O533   O     0.77321   0.53958   0.50000   0.00000  Uiso   1.00
O534   O     0.89345   0.46042   0.50000   0.00000  Uiso   1.00
O535   O     0.89345   0.53958   0.50000   0.00000  Uiso   1.00
O536   O     0.77321   0.46042   0.50000   0.00000  Uiso   1.00
O537   O     0.83333   0.53959   0.42946   0.00000  Uiso   1.00
O538   O     0.83333   0.46041   0.57054   0.00000  Uiso   1.00
O539   O     0.83333   0.53959   0.57054   0.00000  Uiso   1.00
O540   O     0.83333   0.46041   0.42946   0.00000  Uiso   1.00
C541   C     0.08734   0.83342   0.49983   0.00000  Uiso   1.00
C542   C     0.02095   0.87624   0.50482   0.00000  Uiso   1.00
C543   C     0.29066   0.83383   0.50035   0.00000  Uiso   1.00
C544   C     0.04268   0.83382   0.49975   0.00000  Uiso   1.00
C545   C     0.14937   0.69126   0.46199   0.00000  Uiso   1.00
C546   C     0.18492   0.97525   0.53737   0.00000  Uiso   1.00
C547   C     0.18396   0.69125   0.53801   0.00000  Uiso   1.00
C548   C     0.14841   0.97526   0.46263   0.00000  Uiso   1.00
C549   C     0.24600   0.83342   0.50020   0.00000  Uiso   1.00
C550   C     0.16663   0.83334   0.40690   0.00000  Uiso   1.00
C551   C     0.16671   0.83333   0.59310   0.00000  Uiso   1.00
C552   C     0.16665   0.83334   0.35519   0.00000  Uiso   1.00
C553   C     0.16668   0.83333   0.64481   0.00000  Uiso   1.00
C554   C     0.02061   0.79174   0.49483   0.00000  Uiso   1.00
C555   C     0.31241   0.87626   0.49542   0.00000  Uiso   1.00
C556   C     0.31272   0.79173   0.50521   0.00000  Uiso   1.00
Cu557  Cu    0.16667   0.88022   0.50000   0.00000  Uiso   1.00
Cu558  Cu    0.16667   0.78645   0.50000   0.00000  Uiso   1.00
F559   F     0.13257   0.71380   0.42297   0.00000  Uiso   1.00
F560   F     0.20453   0.95245   0.57435   0.00000  Uiso   1.00
F561   F     0.20075   0.71378   0.57704   0.00000  Uiso   1.00
F562   F     0.12880   0.95247   0.42565   0.00000  Uiso   1.00
I563   I     0.04405   0.72887   0.46352   0.00000  Uiso   1.00
I564   I     0.28650   0.93988   0.46673   0.00000  Uiso   1.00
I565   I     0.28928   0.72883   0.53644   0.00000  Uiso   1.00
I566   I     0.04691   0.93973   0.53376   0.00000  Uiso   1.00
N567   N     0.16667   0.95069   0.50000   0.00000  Uiso   1.00
N568   N     0.16667   0.71598   0.50000   0.00000  Uiso   1.00
O569   O     0.10655   0.87291   0.50000   0.00000  Uiso   1.00
O570   O     0.22679   0.79375   0.50000   0.00000  Uiso   1.00
O571   O     0.22679   0.87291   0.50000   0.00000  Uiso   1.00
O572   O     0.10655   0.79375   0.50000   0.00000  Uiso   1.00
O573   O     0.16667   0.87292   0.42946   0.00000  Uiso   1.00
O574   O     0.16667   0.79375   0.57054   0.00000  Uiso   1.00
O575   O     0.16667   0.87292   0.57054   0.00000  Uiso   1.00
O576   O     0.16667   0.79375   0.42946   0.00000  Uiso   1.00
C577   C     0.42067   0.83342   0.49983   0.00000  Uiso   1.00
C578   C     0.35428   0.87624   0.50482   0.00000  Uiso   1.00
C579   C     0.62399   0.83383   0.50035   0.00000  Uiso   1.00
C580   C     0.37602   0.83382   0.49975   0.00000  Uiso   1.00
C581   C     0.48270   0.69126   0.46199   0.00000  Uiso   1.00
C582   C     0.51825   0.97525   0.53737   0.00000  Uiso   1.00
C583   C     0.51730   0.69125   0.53801   0.00000  Uiso   1.00
C584   C     0.48175   0.97526   0.46263   0.00000  Uiso   1.00
C585   C     0.57933   0.83342   0.50020   0.00000  Uiso   1.00
C586   C     0.49996   0.83334   0.40690   0.00000  Uiso   1.00
C587   C     0.50004   0.83333   0.59310   0.00000  Uiso   1.00
C588   C     0.49999   0.83334   0.35519   0.00000  Uiso   1.00
C589   C     0.50002   0.83333   0.64481   0.00000  Uiso   1.00
C590   C     0.35394   0.79174   0.49483   0.00000  Uiso   1.00
C591   C     0.64574   0.87626   0.49542   0.00000  Uiso   1.00
C592   C     0.64606   0.79173   0.50521   0.00000  Uiso   1.00
Cu593  Cu    0.50000   0.88022   0.50000   0.00000  Uiso   1.00
Cu594  Cu    0.50000   0.78645   0.50000   0.00000  Uiso   1.00
F595   F     0.46590   0.71380   0.42297   0.00000  Uiso   1.00
F596   F     0.53787   0.95245   0.57435   0.00000  Uiso   1.00
F597   F     0.53408   0.71378   0.57704   0.00000  Uiso   1.00
F598   F     0.46213   0.95247   0.42565   0.00000  Uiso   1.00
I599   I     0.37738   0.72887   0.46352   0.00000  Uiso   1.00
I600   I     0.61983   0.93988   0.46673   0.00000  Uiso   1.00
I601   I     0.62262   0.72883   0.53644   0.00000  Uiso   1.00
I602   I     0.38024   0.93973   0.53376   0.00000  Uiso   1.00
N603   N     0.50000   0.95069   0.50000   0.00000  Uiso   1.00
N604   N     0.50000   0.71598   0.50000   0.00000  Uiso   1.00
O605   O     0.43988   0.87291   0.50000   0.00000  Uiso   1.00
O606   O     0.56012   0.79375   0.50000   0.00000  Uiso   1.00
O607   O     0.56012   0.87291   0.50000   0.00000  Uiso   1.00
O608   O     0.43988   0.79375   0.50000   0.00000  Uiso   1.00
O609   O     0.50000   0.87292   0.42946   0.00000  Uiso   1.00
O610   O     0.50000   0.79375   0.57054   0.00000  Uiso   1.00
O611   O     0.50000   0.87292   0.57054   0.00000  Uiso   1.00
O612   O     0.50000   0.79375   0.42946   0.00000  Uiso   1.00
C613   C     0.75401   0.83342   0.49983   0.00000  Uiso   1.00
C614   C     0.68762   0.87624   0.50482   0.00000  Uiso   1.00
C615   C     0.95733   0.83383   0.50035   0.00000  Uiso   1.00
C616   C     0.70935   0.83382   0.49975   0.00000  Uiso   1.00
C617   C     0.81603   0.69126   0.46199   0.00000  Uiso   1.00
C618   C     0.85159   0.97525   0.53737   0.00000  Uiso   1.00
C619   C     0.85063   0.69125   0.53801   0.00000  Uiso   1.00
C620   C     0.81508   0.97526   0.46263   0.00000  Uiso   1.00
C621   C     0.91266   0.83342   0.50020   0.00000  Uiso   1.00
C622   C     0.83329   0.83334   0.40690   0.00000  Uiso   1.00
C623   C     0.83338   0.83333   0.59310   0.00000  Uiso   1.00
C624   C     0.83332   0.83334   0.35519   0.00000  Uiso   1.00
C625   C     0.83335   0.83333   0.64481   0.00000  Uiso   1.00
C626   C     0.68728   0.79174   0.49483   0.00000  Uiso   1.00
C627   C     0.97908   0.87626   0.49542   0.00000  Uiso   1.00
C628   C     0.97939   0.79173   0.50521   0.00000  Uiso   1.00
Cu629  Cu    0.83333   0.88022   0.50000   0.00000  Uiso   1.00
Cu630  Cu    0.83333   0.78645   0.50000   0.00000  Uiso   1.00
F631   F     0.79923   0.71380   0.42297   0.00000  Uiso   1.00
F632   F     0.87120   0.95245   0.57435   0.00000  Uiso   1.00
F633   F     0.86741   0.71378   0.57704   0.00000  Uiso   1.00
F634   F     0.79546   0.95247   0.42565   0.00000  Uiso   1.00
I635   I     0.71071   0.72887   0.46352   0.00000  Uiso   1.00
I636   I     0.95317   0.93988   0.46673   0.00000  Uiso   1.00
I637   I     0.95595   0.72883   0.53644   0.00000  Uiso   1.00
I638   I     0.71357   0.93973   0.53376   0.00000  Uiso   1.00
N639   N     0.83333   0.95069   0.50000   0.00000  Uiso   1.00
N640   N     0.83333   0.71598   0.50000   0.00000  Uiso   1.00
O641   O     0.77321   0.87291   0.50000   0.00000  Uiso   1.00
O642   O     0.89345   0.79375   0.50000   0.00000  Uiso   1.00
O643   O     0.89345   0.87291   0.50000   0.00000  Uiso   1.00
O644   O     0.77321   0.79375   0.50000   0.00000  Uiso   1.00
O645   O     0.83333   0.87292   0.42946   0.00000  Uiso   1.00
O646   O     0.83333   0.79375   0.57054   0.00000  Uiso   1.00
O647   O     0.83333   0.87292   0.57054   0.00000  Uiso   1.00
O648   O     0.83333   0.79375   0.42946   0.00000  Uiso   1.00
C649   C     0.08734   0.16675   0.83316   0.00000  Uiso   1.00
C650   C     0.02095   0.20957   0.83815   0.00000  Uiso   1.00
C651   C     0.29066   0.16717   0.83368   0.00000  Uiso   1.00
C652   C     0.04268   0.16715   0.83308   0.00000  Uiso   1.00
C653   C     0.14937   0.02459   0.79532   0.00000  Uiso   1.00
C654   C     0.18492   0.30858   0.87070   0.00000  Uiso   1.00
C655   C     0.18396   0.02459   0.87135   0.00000  Uiso   1.00
C656   C     0.14841   0.30859   0.79597   0.00000  Uiso   1.00
C657   C     0.24600   0.16676   0.83354   0.00000  Uiso   1.00
C658   C     0.16663   0.16667   0.74023   0.00000  Uiso   1.00
C659   C     0.16671   0.16666   0.92643   0.00000  Uiso   1.00
C660   C     0.16665   0.16667   0.68852   0.00000  Uiso   1.00
C661   C     0.16668   0.16666   0.97815   0.00000  Uiso   1.00
C662   C     0.02061   0.12507   0.82816   0.00000  Uiso   1.00
C663   C     0.31241   0.20959   0.82875   0.00000  Uiso   1.00
C664   C     0.31272   0.12507   0.83854   0.00000  Uiso   1.00
Cu665  Cu    0.16667   0.21355   0.83333   0.00000  Uiso   1.00
Cu666  Cu    0.16667   0.11978   0.83333   0.00000  Uiso   1.00
F667   F     0.13257   0.04713   0.75630   0.00000  Uiso   1.00
F668   F     0.20453   0.28579   0.90768   0.00000  Uiso   1.00
F669   F     0.20075   0.04711   0.91037   0.00000  Uiso   1.00
F670   F     0.12880   0.28580   0.75899   0.00000  Uiso   1.00
I671   I     0.04405   0.06221   0.79686   0.00000  Uiso   1.00
I672   I     0.28650   0.27321   0.80007   0.00000  Uiso   1.00
I673   I     0.28928   0.06216   0.86977   0.00000  Uiso   1.00
I674   I     0.04691   0.27306   0.86709   0.00000  Uiso   1.00
N675   N     0.16667   0.28402   0.83333   0.00000  Uiso   1.00
N676   N     0.16667   0.04931   0.83333   0.00000  Uiso   1.00
O677   O     0.10655   0.20625   0.83333   0.00000  Uiso   1.00
O678   O     0.22679   0.12709   0.83334   0.00000  Uiso   1.00
O679   O     0.22679   0.20625   0.83334   0.00000  Uiso   1.00
O680   O     0.10655   0.12709   0.83333   0.00000  Uiso   1.00
O681   O     0.16667   0.20625   0.76280   0.00000  Uiso   1.00
O682   O     0.16667   0.12708   0.90387   0.00000  Uiso   1.00
O683   O     0.16667   0.20625   0.90387   0.00000  Uiso   1.00
O684   O     0.16667   0.12708   0.76280   0.00000  Uiso   1.00
C685   C     0.42067   0.16675   0.83316   0.00000  Uiso   1.00
C686   C     0.35428   0.20957   0.83815   0.00000  Uiso   1.00
C687   C     0.62399   0.16717   0.83368   0.00000  Uiso   1.00
C688   C     0.37602   0.16715   0.83308   0.00000  Uiso   1.00
C689   C     0.48270   0.02459   0.79532   0.00000  Uiso   1.00
C690   C     0.51825   0.30858   0.87070   0.00000  Uiso   1.00
C691   C     0.51730   0.02459   0.87135   0.00000  Uiso   1.00
C692   C     0.48175   0.30859   0.79597   0.00000  Uiso   1.00
C693   C     0.57933   0.16676   0.83354   0.00000  Uiso   1.00
C694   C     0.49996   0.16667   0.74023   0.00000  Uiso   1.00
C695   C     0.50004   0.16666   0.92643   0.00000  Uiso   1.00
C696   C     0.49999   0.16667   0.68852   0.00000  Uiso   1.00
C697   C     0.50002   0.16666   0.97815   0.00000  Uiso   1.00
C698   C     0.35394   0.12507   0.82816   0.00000  Uiso   1.00
C699   C     0.64574   0.20959   0.82875   0.00000  Uiso   1.00
C700   C     0.64606   0.12507   0.83854   0.00000  Uiso   1.00
Cu701  Cu    0.50000   0.21355   0.83333   0.00000  Uiso   1.00
Cu702  Cu    0.50000   0.11978   0.83333   0.00000  Uiso   1.00
F703   F     0.46590   0.04713   0.75630   0.00000  Uiso   1.00
F704   F     0.53787   0.28579   0.90768   0.00000  Uiso   1.00
F705   F     0.53408   0.04711   0.91037   0.00000  Uiso   1.00
F706   F     0.46213   0.28580   0.75899   0.00000  Uiso   1.00
I707   I     0.37738   0.06221   0.79686   0.00000  Uiso   1.00
I708   I     0.61983   0.27321   0.80007   0.00000  Uiso   1.00
I709   I     0.62262   0.06216   0.86977   0.00000  Uiso   1.00
I710   I     0.38024   0.27306   0.86709   0.00000  Uiso   1.00
N711   N     0.50000   0.28402   0.83333   0.00000  Uiso   1.00
N712   N     0.50000   0.04931   0.83333   0.00000  Uiso   1.00
O713   O     0.43988   0.20625   0.83333   0.00000  Uiso   1.00
O714   O     0.56012   0.12709   0.83334   0.00000  Uiso   1.00
O715   O     0.56012   0.20625   0.83334   0.00000  Uiso   1.00
O716   O     0.43988   0.12709   0.83333   0.00000  Uiso   1.00
O717   O     0.50000   0.20625   0.76280   0.00000  Uiso   1.00
O718   O     0.50000   0.12708   0.90387   0.00000  Uiso   1.00
O719   O     0.50000   0.20625   0.90387   0.00000  Uiso   1.00
O720   O     0.50000   0.12708   0.76280   0.00000  Uiso   1.00
C721   C     0.75401   0.16675   0.83316   0.00000  Uiso   1.00
C722   C     0.68762   0.20957   0.83815   0.00000  Uiso   1.00
C723   C     0.95733   0.16717   0.83368   0.00000  Uiso   1.00
C724   C     0.70935   0.16715   0.83308   0.00000  Uiso   1.00
C725   C     0.81603   0.02459   0.79532   0.00000  Uiso   1.00
C726   C     0.85159   0.30858   0.87070   0.00000  Uiso   1.00
C727   C     0.85063   0.02459   0.87135   0.00000  Uiso   1.00
C728   C     0.81508   0.30859   0.79597   0.00000  Uiso   1.00
C729   C     0.91266   0.16676   0.83354   0.00000  Uiso   1.00
C730   C     0.83329   0.16667   0.74023   0.00000  Uiso   1.00
C731   C     0.83338   0.16666   0.92643   0.00000  Uiso   1.00
C732   C     0.83332   0.16667   0.68852   0.00000  Uiso   1.00
C733   C     0.83335   0.16666   0.97815   0.00000  Uiso   1.00
C734   C     0.68728   0.12507   0.82816   0.00000  Uiso   1.00
C735   C     0.97908   0.20959   0.82875   0.00000  Uiso   1.00
C736   C     0.97939   0.12507   0.83854   0.00000  Uiso   1.00
Cu737  Cu    0.83333   0.21355   0.83333   0.00000  Uiso   1.00
Cu738  Cu    0.83333   0.11978   0.83333   0.00000  Uiso   1.00
F739   F     0.79923   0.04713   0.75630   0.00000  Uiso   1.00
F740   F     0.87120   0.28579   0.90768   0.00000  Uiso   1.00
F741   F     0.86741   0.04711   0.91037   0.00000  Uiso   1.00
F742   F     0.79546   0.28580   0.75899   0.00000  Uiso   1.00
I743   I     0.71071   0.06221   0.79686   0.00000  Uiso   1.00
I744   I     0.95317   0.27321   0.80007   0.00000  Uiso   1.00
I745   I     0.95595   0.06216   0.86977   0.00000  Uiso   1.00
I746   I     0.71357   0.27306   0.86709   0.00000  Uiso   1.00
N747   N     0.83333   0.28402   0.83333   0.00000  Uiso   1.00
N748   N     0.83333   0.04931   0.83333   0.00000  Uiso   1.00
O749   O     0.77321   0.20625   0.83333   0.00000  Uiso   1.00
O750   O     0.89345   0.12709   0.83334   0.00000  Uiso   1.00
O751   O     0.89345   0.20625   0.83334   0.00000  Uiso   1.00
O752   O     0.77321   0.12709   0.83333   0.00000  Uiso   1.00
O753   O     0.83333   0.20625   0.76280   0.00000  Uiso   1.00
O754   O     0.83333   0.12708   0.90387   0.00000  Uiso   1.00
O755   O     0.83333   0.20625   0.90387   0.00000  Uiso   1.00
O756   O     0.83333   0.12708   0.76280   0.00000  Uiso   1.00
C757   C     0.08734   0.50009   0.83316   0.00000  Uiso   1.00
C758   C     0.02095   0.54290   0.83815   0.00000  Uiso   1.00
C759   C     0.29066   0.50050   0.83368   0.00000  Uiso   1.00
C760   C     0.04268   0.50049   0.83308   0.00000  Uiso   1.00
C761   C     0.14937   0.35793   0.79532   0.00000  Uiso   1.00
C762   C     0.18492   0.64192   0.87070   0.00000  Uiso   1.00
C763   C     0.18396   0.35792   0.87135   0.00000  Uiso   1.00
C764   C     0.14841   0.64193   0.79597   0.00000  Uiso   1.00
C765   C     0.24600   0.50009   0.83354   0.00000  Uiso   1.00
C766   C     0.16663   0.50000   0.74023   0.00000  Uiso   1.00
C767   C     0.16671   0.50000   0.92643   0.00000  Uiso   1.00
C768   C     0.16665   0.50000   0.68852   0.00000  Uiso   1.00
C769   C     0.16668   0.50000   0.97815   0.00000  Uiso   1.00
C770   C     0.02061   0.45840   0.82816   0.00000  Uiso   1.00
C771   C     0.31241   0.54293   0.82875   0.00000  Uiso   1.00
C772   C     0.31272   0.45840   0.83854   0.00000  Uiso   1.00
Cu773  Cu    0.16667   0.54689   0.83333   0.00000  Uiso   1.00
Cu774  Cu    0.16667   0.45311   0.83333   0.00000  Uiso   1.00
F775   F     0.13257   0.38046   0.75630   0.00000  Uiso   1.00
F776   F     0.20453   0.61912   0.90768   0.00000  Uiso   1.00
F777   F     0.20075   0.38045   0.91037   0.00000  Uiso   1.00
F778   F     0.12880   0.61914   0.75899   0.00000  Uiso   1.00
I779   I     0.04405   0.39554   0.79686   0.00000  Uiso   1.00
I780   I     0.28650   0.60655   0.80007   0.00000  Uiso   1.00
I781   I     0.28928   0.39550   0.86977   0.00000  Uiso   1.00
I782   I     0.04691   0.60639   0.86709   0.00000  Uiso   1.00
N783   N     0.16667   0.61736   0.83333   0.00000  Uiso   1.00
N784   N     0.16667   0.38264   0.83333   0.00000  Uiso   1.00
O785   O     0.10655   0.53958   0.83333   0.00000  Uiso   1.00
O786   O     0.22679   0.46042   0.83334   0.00000  Uiso   1.00
O787   O     0.22679   0.53958   0.83334   0.00000  Uiso   1.00
O788   O     0.10655   0.46042   0.83333   0.00000  Uiso   1.00
O789   O     0.16667   0.53959   0.76280   0.00000  Uiso   1.00
O790   O     0.16667   0.46041   0.90387   0.00000  Uiso   1.00
O791   O     0.16667   0.53959   0.90387   0.00000  Uiso   1.00
O792   O     0.16667   0.46041   0.76280   0.00000  Uiso   1.00
C793   C     0.42067   0.50009   0.83316   0.00000  Uiso   1.00
C794   C     0.35428   0.54290   0.83815   0.00000  Uiso   1.00
C795   C     0.62399   0.50050   0.83368   0.00000  Uiso   1.00
C796   C     0.37602   0.50049   0.83308   0.00000  Uiso   1.00
C797   C     0.48270   0.35793   0.79532   0.00000  Uiso   1.00
C798   C     0.51825   0.64192   0.87070   0.00000  Uiso   1.00
C799   C     0.51730   0.35792   0.87135   0.00000  Uiso   1.00
C800   C     0.48175   0.64193   0.79597   0.00000  Uiso   1.00
C801   C     0.57933   0.50009   0.83354   0.00000  Uiso   1.00
C802   C     0.49996   0.50000   0.74023   0.00000  Uiso   1.00
C803   C     0.50004   0.50000   0.92643   0.00000  Uiso   1.00
C804   C     0.49999   0.50000   0.68852   0.00000  Uiso   1.00
C805   C     0.50002   0.50000   0.97815   0.00000  Uiso   1.00
C806   C     0.35394   0.45840   0.82816   0.00000  Uiso   1.00
C807   C     0.64574   0.54293   0.82875   0.00000  Uiso   1.00
C808   C     0.64606   0.45840   0.83854   0.00000  Uiso   1.00
Cu809  Cu    0.50000   0.54689   0.83333   0.00000  Uiso   1.00
Cu810  Cu    0.50000   0.45311   0.83333   0.00000  Uiso   1.00
F811   F     0.46590   0.38046   0.75630   0.00000  Uiso   1.00
F812   F     0.53787   0.61912   0.90768   0.00000  Uiso   1.00
F813   F     0.53408   0.38045   0.91037   0.00000  Uiso   1.00
F814   F     0.46213   0.61914   0.75899   0.00000  Uiso   1.00
I815   I     0.37738   0.39554   0.79686   0.00000  Uiso   1.00
I816   I     0.61983   0.60655   0.80007   0.00000  Uiso   1.00
I817   I     0.62262   0.39550   0.86977   0.00000  Uiso   1.00
I818   I     0.38024   0.60639   0.86709   0.00000  Uiso   1.00
N819   N     0.50000   0.61736   0.83333   0.00000  Uiso   1.00
N820   N     0.50000   0.38264   0.83333   0.00000  Uiso   1.00
O821   O     0.43988   0.53958   0.83333   0.00000  Uiso   1.00
O822   O     0.56012   0.46042   0.83334   0.00000  Uiso   1.00
O823   O     0.56012   0.53958   0.83334   0.00000  Uiso   1.00
O824   O     0.43988   0.46042   0.83333   0.00000  Uiso   1.00
O825   O     0.50000   0.53959   0.76280   0.00000  Uiso   1.00
O826   O     0.50000   0.46041   0.90387   0.00000  Uiso   1.00
O827   O     0.50000   0.53959   0.90387   0.00000  Uiso   1.00
O828   O     0.50000   0.46041   0.76280   0.00000  Uiso   1.00
C829   C     0.75401   0.50009   0.83316   0.00000  Uiso   1.00
C830   C     0.68762   0.54290   0.83815   0.00000  Uiso   1.00
C831   C     0.95733   0.50050   0.83368   0.00000  Uiso   1.00
C832   C     0.70935   0.50049   0.83308   0.00000  Uiso   1.00
C833   C     0.81603   0.35793   0.79532   0.00000  Uiso   1.00
C834   C     0.85159   0.64192   0.87070   0.00000  Uiso   1.00
C835   C     0.85063   0.35792   0.87135   0.00000  Uiso   1.00
C836   C     0.81508   0.64193   0.79597   0.00000  Uiso   1.00
C837   C     0.91266   0.50009   0.83354   0.00000  Uiso   1.00
C838   C     0.83329   0.50000   0.74023   0.00000  Uiso   1.00
C839   C     0.83338   0.50000   0.92643   0.00000  Uiso   1.00
C840   C     0.83332   0.50000   0.68852   0.00000  Uiso   1.00
C841   C     0.83335   0.50000   0.97815   0.00000  Uiso   1.00
C842   C     0.68728   0.45840   0.82816   0.00000  Uiso   1.00
C843   C     0.97908   0.54293   0.82875   0.00000  Uiso   1.00
C844   C     0.97939   0.45840   0.83854   0.00000  Uiso   1.00
Cu845  Cu    0.83333   0.54689   0.83333   0.00000  Uiso   1.00
Cu846  Cu    0.83333   0.45311   0.83333   0.00000  Uiso   1.00
F847   F     0.79923   0.38046   0.75630   0.00000  Uiso   1.00
F848   F     0.87120   0.61912   0.90768   0.00000  Uiso   1.00
F849   F     0.86741   0.38045   0.91037   0.00000  Uiso   1.00
F850   F     0.79546   0.61914   0.75899   0.00000  Uiso   1.00
I851   I     0.71071   0.39554   0.79686   0.00000  Uiso   1.00
I852   I     0.95317   0.60655   0.80007   0.00000  Uiso   1.00
I853   I     0.95595   0.39550   0.86977   0.00000  Uiso   1.00
I854   I     0.71357   0.60639   0.86709   0.00000  Uiso   1.00
N855   N     0.83333   0.61736   0.83333   0.00000  Uiso   1.00
N856   N     0.83333   0.38264   0.83333   0.00000  Uiso   1.00
O857   O     0.77321   0.53958   0.83333   0.00000  Uiso   1.00
O858   O     0.89345   0.46042   0.83334   0.00000  Uiso   1.00
O859   O     0.89345   0.53958   0.83334   0.00000  Uiso   1.00
O860   O     0.77321   0.46042   0.83333   0.00000  Uiso   1.00
O861   O     0.83333   0.53959   0.76280   0.00000  Uiso   1.00
O862   O     0.83333   0.46041   0.90387   0.00000  Uiso   1.00
O863   O     0.83333   0.53959   0.90387   0.00000  Uiso   1.00
O864   O     0.83333   0.46041   0.76280   0.00000  Uiso   1.00
C865   C     0.08734   0.83342   0.83316   0.00000  Uiso   1.00
C866   C     0.02095   0.87624   0.83815   0.00000  Uiso   1.00
C867   C     0.29066   0.83383   0.83368   0.00000  Uiso   1.00
C868   C     0.04268   0.83382   0.83308   0.00000  Uiso   1.00
C869   C     0.14937   0.69126   0.79532   0.00000  Uiso   1.00
C870   C     0.18492   0.97525   0.87070   0.00000  Uiso   1.00
C871   C     0.18396   0.69125   0.87135   0.00000  Uiso   1.00
C872   C     0.14841   0.97526   0.79597   0.00000  Uiso   1.00
C873   C     0.24600   0.83342   0.83354   0.00000  Uiso   1.00
C874   C     0.16663   0.83334   0.74023   0.00000  Uiso   1.00
C875   C     0.16671   0.83333   0.92643   0.00000  Uiso   1.00
C876   C     0.16665   0.83334   0.68852   0.00000  Uiso   1.00
C877   C     0.16668   0.83333   0.97815   0.00000  Uiso   1.00
C878   C     0.02061   0.79174   0.82816   0.00000  Uiso   1.00
C879   C     0.31241   0.87626   0.82875   0.00000  Uiso   1.00
C880   C     0.31272   0.79173   0.83854   0.00000  Uiso   1.00
Cu881  Cu    0.16667   0.88022   0.83333   0.00000  Uiso   1.00
Cu882  Cu    0.16667   0.78645   0.83333   0.00000  Uiso   1.00
F883   F     0.13257   0.71380   0.75630   0.00000  Uiso   1.00
F884   F     0.20453   0.95245   0.90768   0.00000  Uiso   1.00
F885   F     0.20075   0.71378   0.91037   0.00000  Uiso   1.00
F886   F     0.12880   0.95247   0.75899   0.00000  Uiso   1.00
I887   I     0.04405   0.72887   0.79686   0.00000  Uiso   1.00
I888   I     0.28650   0.93988   0.80007   0.00000  Uiso   1.00
I889   I     0.28928   0.72883   0.86977   0.00000  Uiso   1.00
I890   I     0.04691   0.93973   0.86709   0.00000  Uiso   1.00
N891   N     0.16667   0.95069   0.83333   0.00000  Uiso   1.00
N892   N     0.16667   0.71598   0.83333   0.00000  Uiso   1.00
O893   O     0.10655   0.87291   0.83333   0.00000  Uiso   1.00
O894   O     0.22679   0.79375   0.83334   0.00000  Uiso   1.00
O895   O     0.22679   0.87291   0.83334   0.00000  Uiso   1.00
O896   O     0.10655   0.79375   0.83333   0.00000  Uiso   1.00
O897   O     0.16667   0.87292   0.76280   0.00000  Uiso   1.00
O898   O     0.16667   0.79375   0.90387   0.00000  Uiso   1.00
O899   O     0.16667   0.87292   0.90387   0.00000  Uiso   1.00
O900   O     0.16667   0.79375   0.76280   0.00000  Uiso   1.00
C901   C     0.42067   0.83342   0.83316   0.00000  Uiso   1.00
C902   C     0.35428   0.87624   0.83815   0.00000  Uiso   1.00
C903   C     0.62399   0.83383   0.83368   0.00000  Uiso   1.00
C904   C     0.37602   0.83382   0.83308   0.00000  Uiso   1.00
C905   C     0.48270   0.69126   0.79532   0.00000  Uiso   1.00
C906   C     0.51825   0.97525   0.87070   0.00000  Uiso   1.00
C907   C     0.51730   0.69125   0.87135   0.00000  Uiso   1.00
C908   C     0.48175   0.97526   0.79597   0.00000  Uiso   1.00
C909   C     0.57933   0.83342   0.83354   0.00000  Uiso   1.00
C910   C     0.49996   0.83334   0.74023   0.00000  Uiso   1.00
C911   C     0.50004   0.83333   0.92643   0.00000  Uiso   1.00
C912   C     0.49999   0.83334   0.68852   0.00000  Uiso   1.00
C913   C     0.50002   0.83333   0.97815   0.00000  Uiso   1.00
C914   C     0.35394   0.79174   0.82816   0.00000  Uiso   1.00
C915   C     0.64574   0.87626   0.82875   0.00000  Uiso   1.00
C916   C     0.64606   0.79173   0.83854   0.00000  Uiso   1.00
Cu917  Cu    0.50000   0.88022   0.83333   0.00000  Uiso   1.00
Cu918  Cu    0.50000   0.78645   0.83333   0.00000  Uiso   1.00
F919   F     0.46590   0.71380   0.75630   0.00000  Uiso   1.00
F920   F     0.53787   0.95245   0.90768   0.00000  Uiso   1.00
F921   F     0.53408   0.71378   0.91037   0.00000  Uiso   1.00
F922   F     0.46213   0.95247   0.75899   0.00000  Uiso   1.00
I923   I     0.37738   0.72887   0.79686   0.00000  Uiso   1.00
I924   I     0.61983   0.93988   0.80007   0.00000  Uiso   1.00
I925   I     0.62262   0.72883   0.86977   0.00000  Uiso   1.00
I926   I     0.38024   0.93973   0.86709   0.00000  Uiso   1.00
N927   N     0.50000   0.95069   0.83333   0.00000  Uiso   1.00
N928   N     0.50000   0.71598   0.83333   0.00000  Uiso   1.00
O929   O     0.43988   0.87291   0.83333   0.00000  Uiso   1.00
O930   O     0.56012   0.79375   0.83334   0.00000  Uiso   1.00
O931   O     0.56012   0.87291   0.83334   0.00000  Uiso   1.00
O932   O     0.43988   0.79375   0.83333   0.00000  Uiso   1.00
O933   O     0.50000   0.87292   0.76280   0.00000  Uiso   1.00
O934   O     0.50000   0.79375   0.90387   0.00000  Uiso   1.00
O935   O     0.50000   0.87292   0.90387   0.00000  Uiso   1.00
O936   O     0.50000   0.79375   0.76280   0.00000  Uiso   1.00
C937   C     0.75401   0.83342   0.83316   0.00000  Uiso   1.00
C938   C     0.68762   0.87624   0.83815   0.00000  Uiso   1.00
C939   C     0.95733   0.83383   0.83368   0.00000  Uiso   1.00
C940   C     0.70935   0.83382   0.83308   0.00000  Uiso   1.00
C941   C     0.81603   0.69126   0.79532   0.00000  Uiso   1.00
C942   C     0.85159   0.97525   0.87070   0.00000  Uiso   1.00
C943   C     0.85063   0.69125   0.87135   0.00000  Uiso   1.00
C944   C     0.81508   0.97526   0.79597   0.00000  Uiso   1.00
C945   C     0.91266   0.83342   0.83354   0.00000  Uiso   1.00
C946   C     0.83329   0.83334   0.74023   0.00000  Uiso   1.00
C947   C     0.83338   0.83333   0.92643   0.00000  Uiso   1.00
C948   C     0.83332   0.83334   0.68852   0.00000  Uiso   1.00
C949   C     0.83335   0.83333   0.97815   0.00000  Uiso   1.00
C950   C     0.68728   0.79174   0.82816   0.00000  Uiso   1.00
C951   C     0.97908   0.87626   0.82875   0.00000  Uiso   1.00
C952   C     0.97939   0.79173   0.83854   0.00000  Uiso   1.00
Cu953  Cu    0.83333   0.88022   0.83333   0.00000  Uiso   1.00
Cu954  Cu    0.83333   0.78645   0.83333   0.00000  Uiso   1.00
F955   F     0.79923   0.71380   0.75630   0.00000  Uiso   1.00
F956   F     0.87120   0.95245   0.90768   0.00000  Uiso   1.00
F957   F     0.86741   0.71378   0.91037   0.00000  Uiso   1.00
F958   F     0.79546   0.95247   0.75899   0.00000  Uiso   1.00
I959   I     0.71071   0.72887   0.79686   0.00000  Uiso   1.00
I960   I     0.95317   0.93988   0.80007   0.00000  Uiso   1.00
I961   I     0.95595   0.72883   0.86977   0.00000  Uiso   1.00
I962   I     0.71357   0.93973   0.86709   0.00000  Uiso   1.00
N963   N     0.83333   0.95069   0.83333   0.00000  Uiso   1.00
N964   N     0.83333   0.71598   0.83333   0.00000  Uiso   1.00
O965   O     0.77321   0.87291   0.83333   0.00000  Uiso   1.00
O966   O     0.89345   0.79375   0.83334   0.00000  Uiso   1.00
O967   O     0.89345   0.87291   0.83334   0.00000  Uiso   1.00
O968   O     0.77321   0.79375   0.83333   0.00000  Uiso   1.00
O969   O     0.83333   0.87292   0.76280   0.00000  Uiso   1.00
O970   O     0.83333   0.79375   0.90387   0.00000  Uiso   1.00
O971   O     0.83333   0.87292   0.90387   0.00000  Uiso   1.00
O972   O     0.83333   0.79375   0.76280   0.00000  Uiso   1.00
loop_
_geom_bond_atom_site_label_1
_geom_bond_atom_site_label_2
_geom_bond_distance
_geom_bond_site_symmetry_2
_ccdc_geom_bond_type
C1     C4      1.468   .     S
C1     O29     1.296   .     A
C1     O32     1.300   .     A
C2     C4      1.418   .     A
C2     I26     2.154   .     S
C2     C87     1.396   1_455 S
C3     C15     1.418   .     A
C3     C9      1.468   .     S
C3     C16     1.413   .     A
C4     C14     1.413   .     A
C5     F19     1.353   .     S
C5     N28     1.370   .     A
C5     C224    1.414   1_545 S
C6     N27     1.368   .     A
C6     F20     1.355   .     S
C6     C115    1.414   .     S
C7     F21     1.353   .     S
C7     N28     1.370   .     A
C7     C222    1.414   1_545 S
C8     F22     1.355   .     S
C8     N27     1.368   .     A
C8     C113    1.414   .     S
C9     O30     1.301   .     A
C9     O31     1.296   .     A
C10    C12     1.408   .     S
C10    O33     1.290   .     A
C10    O36     1.290   .     A
C11    C13     1.408   .     S
C11    O35     1.290   .     A
C11    O34     1.290   .     A
C12    C661    1.190   1_554 S
C13    C336    1.190   .     S
C14    I23     2.142   .     S
C14    C88     1.389   1_455 S
C15    I24     2.154   .     S
C15    C38     1.396   .     S
C16    I25     2.142   .     S
C16    C50     1.389   .     S
Cu17   O29     1.987   .     S
Cu17   Cu18    2.688   .     S
Cu17   O33     1.932   .     S
Cu17   O31     1.987   .     S
Cu17   N27     2.020   .     S
Cu17   O35     1.932   .     S
Cu18   O30     1.987   .     S
Cu18   O34     1.932   .     S
Cu18   O32     1.987   .     S
Cu18   N28     2.020   .     S
Cu18   O36     1.932   .     S
C37    C40     1.468   .     S
C37    O65     1.296   .     A
C37    O68     1.300   .     A
C38    C40     1.418   .     A
C38    I62     2.154   .     S
C39    C51     1.418   .     A
C39    C45     1.468   .     S
C39    C52     1.413   .     A
C40    C50     1.413   .     A
C41    F55     1.353   .     S
C41    N64     1.370   .     A
C41    C260    1.414   1_545 S
C42    N63     1.368   .     A
C42    F56     1.355   .     S
C42    C151    1.414   .     S
C43    F57     1.353   .     S
C43    N64     1.370   .     A
C43    C258    1.414   1_545 S
C44    F58     1.355   .     S
C44    N63     1.368   .     A
C44    C149    1.414   .     S
C45    O66     1.301   .     A
C45    O67     1.296   .     A
C46    C48     1.408   .     S
C46    O69     1.290   .     A
C46    O72     1.290   .     A
C47    C49     1.408   .     S
C47    O71     1.290   .     A
C47    O70     1.290   .     A
C48    C697    1.190   1_554 S
C49    C372    1.190   .     S
C50    I59     2.142   .     S
C51    I60     2.154   .     S
C51    C74     1.396   .     S
C52    I61     2.142   .     S
C52    C86     1.389   .     S
Cu53   O65     1.987   .     S
Cu53   Cu54    2.688   .     S
Cu53   O69     1.932   .     S
Cu53   O67     1.987   .     S
Cu53   N63     2.020   .     S
Cu53   O71     1.932   .     S
Cu54   O66     1.987   .     S
Cu54   O70     1.932   .     S
Cu54   O68     1.987   .     S
Cu54   N64     2.020   .     S
Cu54   O72     1.932   .     S
C73    C76     1.468   .     S
C73    O101    1.296   .     A
C73    O104    1.300   .     A
C74    C76     1.418   .     A
C74    I98     2.154   .     S
C75    C87     1.418   .     A
C75    C81     1.468   .     S
C75    C88     1.413   .     A
C76    C86     1.413   .     A
C77    F91     1.353   .     S
C77    N100    1.370   .     A
C77    C296    1.414   1_545 S
C78    N99     1.368   .     A
C78    F92     1.355   .     S
C78    C187    1.414   .     S
C79    F93     1.353   .     S
C79    N100    1.370   .     A
C79    C294    1.414   1_545 S
C80    F94     1.355   .     S
C80    N99     1.368   .     A
C80    C185    1.414   .     S
C81    O102    1.301   .     A
C81    O103    1.296   .     A
C82    C84     1.408   .     S
C82    O105    1.290   .     A
C82    O108    1.290   .     A
C83    C85     1.408   .     S
C83    O107    1.290   .     A
C83    O106    1.290   .     A
C84    C733    1.190   1_554 S
C85    C408    1.190   .     S
C86    I95     2.142   .     S
C87    I96     2.154   .     S
C87    C2      1.396   1_655 S
C88    I97     2.142   .     S
C88    C14     1.389   1_655 S
Cu89   O101    1.987   .     S
Cu89   Cu90    2.688   .     S
Cu89   O105    1.932   .     S
Cu89   O103    1.987   .     S
Cu89   N99     2.020   .     S
Cu89   O107    1.932   .     S
Cu90   O102    1.987   .     S
Cu90   O106    1.932   .     S
Cu90   O104    1.987   .     S
Cu90   N100    2.020   .     S
Cu90   O108    1.932   .     S
C109   C112    1.468   .     S
C109   O137    1.296   .     A
C109   O140    1.300   .     A
C110   C112    1.418   .     A
C110   I134    2.154   .     S
C110   C195    1.396   1_455 S
C111   C123    1.418   .     A
C111   C117    1.468   .     S
C111   C124    1.413   .     A
C112   C122    1.413   .     A
C113   F127    1.353   .     S
C113   N136    1.370   .     A
C114   N135    1.368   .     A
C114   F128    1.355   .     S
C114   C223    1.414   .     S
C115   F129    1.353   .     S
C115   N136    1.370   .     A
C116   F130    1.355   .     S
C116   N135    1.368   .     A
C116   C221    1.414   .     S
C117   O138    1.301   .     A
C117   O139    1.296   .     A
C118   C120    1.408   .     S
C118   O141    1.290   .     A
C118   O144    1.290   .     A
C119   C121    1.408   .     S
C119   O143    1.290   .     A
C119   O142    1.290   .     A
C120   C769    1.190   1_554 S
C121   C444    1.190   .     S
C122   I131    2.142   .     S
C122   C196    1.389   1_455 S
C123   I132    2.154   .     S
C123   C146    1.396   .     S
C124   I133    2.142   .     S
C124   C158    1.389   .     S
Cu125  O137    1.987   .     S
Cu125  Cu126   2.688   .     S
Cu125  O141    1.932   .     S
Cu125  O139    1.987   .     S
Cu125  N135    2.020   .     S
Cu125  O143    1.932   .     S
Cu126  O138    1.987   .     S
Cu126  O142    1.932   .     S
Cu126  O140    1.987   .     S
Cu126  N136    2.020   .     S
Cu126  O144    1.932   .     S
C145   C148    1.468   .     S
C145   O173    1.296   .     A
C145   O176    1.300   .     A
C146   C148    1.418   .     A
C146   I170    2.154   .     S
C147   C159    1.418   .     A
C147   C153    1.468   .     S
C147   C160    1.413   .     A
C148   C158    1.413   .     A
C149   F163    1.353   .     S
C149   N172    1.370   .     A
C150   N171    1.368   .     A
C150   F164    1.355   .     S
C150   C259    1.414   .     S
C151   F165    1.353   .     S
C151   N172    1.370   .     A
C152   F166    1.355   .     S
C152   N171    1.368   .     A
C152   C257    1.414   .     S
C153   O174    1.301   .     A
C153   O175    1.296   .     A
C154   C156    1.408   .     S
C154   O177    1.290   .     A
C154   O180    1.290   .     A
C155   C157    1.408   .     S
C155   O179    1.290   .     A
C155   O178    1.290   .     A
C156   C805    1.190   1_554 S
C157   C480    1.190   .     S
C158   I167    2.142   .     S
C159   I168    2.154   .     S
C159   C182    1.396   .     S
C160   I169    2.142   .     S
C160   C194    1.389   .     S
Cu161  O173    1.987   .     S
Cu161  Cu162   2.688   .     S
Cu161  O177    1.932   .     S
Cu161  O175    1.987   .     S
Cu161  N171    2.020   .     S
Cu161  O179    1.932   .     S
Cu162  O174    1.987   .     S
Cu162  O178    1.932   .     S
Cu162  O176    1.987   .     S
Cu162  N172    2.020   .     S
Cu162  O180    1.932   .     S
C181   C184    1.468   .     S
C181   O209    1.296   .     A
C181   O212    1.300   .     A
C182   C184    1.418   .     A
C182   I206    2.154   .     S
C183   C195    1.418   .     A
C183   C189    1.468   .     S
C183   C196    1.413   .     A
C184   C194    1.413   .     A
C185   F199    1.353   .     S
C185   N208    1.370   .     A
C186   N207    1.368   .     A
C186   F200    1.355   .     S
C186   C295    1.414   .     S
C187   F201    1.353   .     S
C187   N208    1.370   .     A
C188   F202    1.355   .     S
C188   N207    1.368   .     A
C188   C293    1.414   .     S
C189   O210    1.301   .     A
C189   O211    1.296   .     A
C190   C192    1.408   .     S
C190   O213    1.290   .     A
C190   O216    1.290   .     A
C191   C193    1.408   .     S
C191   O215    1.290   .     A
C191   O214    1.290   .     A
C192   C841    1.190   1_554 S
C193   C516    1.190   .     S
C194   I203    2.142   .     S
C195   I204    2.154   .     S
C195   C110    1.396   1_655 S
C196   I205    2.142   .     S
C196   C122    1.389   1_655 S
Cu197  O209    1.987   .     S
Cu197  Cu198   2.688   .     S
Cu197  O213    1.932   .     S
Cu197  O211    1.987   .     S
Cu197  N207    2.020   .     S
Cu197  O215    1.932   .     S
Cu198  O210    1.987   .     S
Cu198  O214    1.932   .     S
Cu198  O212    1.987   .     S
Cu198  N208    2.020   .     S
Cu198  O216    1.932   .     S
C217   C220    1.468   .     S
C217   O245    1.296   .     A
C217   O248    1.300   .     A
C218   C220    1.418   .     A
C218   I242    2.154   .     S
C218   C303    1.396   1_455 S
C219   C231    1.418   .     A
C219   C225    1.468   .     S
C219   C232    1.413   .     A
C220   C230    1.413   .     A
C221   F235    1.353   .     S
C221   N244    1.370   .     A
C222   N243    1.368   .     A
C222   F236    1.355   .     S
C222   C7      1.414   1_565 S
C223   F237    1.353   .     S
C223   N244    1.370   .     A
C224   F238    1.355   .     S
C224   N243    1.368   .     A
C224   C5      1.414   1_565 S
C225   O246    1.301   .     A
C225   O247    1.296   .     A
C226   C228    1.408   .     S
C226   O249    1.290   .     A
C226   O252    1.290   .     A
C227   C229    1.408   .     S
C227   O251    1.290   .     A
C227   O250    1.290   .     A
C228   C877    1.190   1_554 S
C229   C552    1.190   .     S
C230   I239    2.142   .     S
C230   C304    1.389   1_455 S
C231   I240    2.154   .     S
C231   C254    1.396   .     S
C232   I241    2.142   .     S
C232   C266    1.389   .     S
Cu233  O245    1.987   .     S
Cu233  Cu234   2.688   .     S
Cu233  O249    1.932   .     S
Cu233  O247    1.987   .     S
Cu233  N243    2.020   .     S
Cu233  O251    1.932   .     S
Cu234  O246    1.987   .     S
Cu234  O250    1.932   .     S
Cu234  O248    1.987   .     S
Cu234  N244    2.020   .     S
Cu234  O252    1.932   .     S
C253   C256    1.468   .     S
C253   O281    1.296   .     A
C253   O284    1.300   .     A
C254   C256    1.418   .     A
C254   I278    2.154   .     S
C255   C267    1.418   .     A
C255   C261    1.468   .     S
C255   C268    1.413   .     A
C256   C266    1.413   .     A
C257   F271    1.353   .     S
C257   N280    1.370   .     A
C258   N279    1.368   .     A
C258   F272    1.355   .     S
C258   C43     1.414   1_565 S
C259   F273    1.353   .     S
C259   N280    1.370   .     A
C260   F274    1.355   .     S
C260   N279    1.368   .     A
C260   C41     1.414   1_565 S
C261   O282    1.301   .     A
C261   O283    1.296   .     A
C262   C264    1.408   .     S
C262   O285    1.290   .     A
C262   O288    1.290   .     A
C263   C265    1.408   .     S
C263   O287    1.290   .     A
C263   O286    1.290   .     A
C264   C913    1.190   1_554 S
C265   C588    1.190   .     S
C266   I275    2.142   .     S
C267   I276    2.154   .     S
C267   C290    1.396   .     S
C268   I277    2.142   .     S
C268   C302    1.389   .     S
Cu269  O281    1.987   .     S
Cu269  Cu270   2.688   .     S
Cu269  O285    1.932   .     S
Cu269  O283    1.987   .     S
Cu269  N279    2.020   .     S
Cu269  O287    1.932   .     S
Cu270  O282    1.987   .     S
Cu270  O286    1.932   .     S
Cu270  O284    1.987   .     S
Cu270  N280    2.020   .     S
Cu270  O288    1.932   .     S
C289   C292    1.468   .     S
C289   O317    1.296   .     A
C289   O320    1.300   .     A
C290   C292    1.418   .     A
C290   I314    2.154   .     S
C291   C303    1.418   .     A
C291   C297    1.468   .     S
C291   C304    1.413   .     A
C292   C302    1.413   .     A
C293   F307    1.353   .     S
C293   N316    1.370   .     A
C294   N315    1.368   .     A
C294   F308    1.355   .     S
C294   C79     1.414   1_565 S
C295   F309    1.353   .     S
C295   N316    1.370   .     A
C296   F310    1.355   .     S
C296   N315    1.368   .     A
C296   C77     1.414   1_565 S
C297   O318    1.301   .     A
C297   O319    1.296   .     A
C298   C300    1.408   .     S
C298   O321    1.290   .     A
C298   O324    1.290   .     A
C299   C301    1.408   .     S
C299   O323    1.290   .     A
C299   O322    1.290   .     A
C300   C949    1.190   1_554 S
C301   C624    1.190   .     S
C302   I311    2.142   .     S
C303   I312    2.154   .     S
C303   C218    1.396   1_655 S
C304   I313    2.142   .     S
C304   C230    1.389   1_655 S
Cu305  O317    1.987   .     S
Cu305  Cu306   2.688   .     S
Cu305  O321    1.932   .     S
Cu305  O319    1.987   .     S
Cu305  N315    2.020   .     S
Cu305  O323    1.932   .     S
Cu306  O318    1.987   .     S
Cu306  O322    1.932   .     S
Cu306  O320    1.987   .     S
Cu306  N316    2.020   .     S
Cu306  O324    1.932   .     S
C325   C328    1.468   .     S
C325   O353    1.296   .     A
C325   O356    1.300   .     A
C326   C328    1.418   .     A
C326   I350    2.154   .     S
C326   C411    1.396   1_455 S
C327   C339    1.418   .     A
C327   C333    1.468   .     S
C327   C340    1.413   .     A
C328   C338    1.413   .     A
C329   F343    1.353   .     S
C329   N352    1.370   .     A
C329   C548    1.414   1_545 S
C330   N351    1.368   .     A
C330   F344    1.355   .     S
C330   C439    1.414   .     S
C331   F345    1.353   .     S
C331   N352    1.370   .     A
C331   C546    1.414   1_545 S
C332   F346    1.355   .     S
C332   N351    1.368   .     A
C332   C437    1.414   .     S
C333   O354    1.301   .     A
C333   O355    1.296   .     A
C334   C336    1.408   .     S
C334   O357    1.290   .     A
C334   O360    1.290   .     A
C335   C337    1.408   .     S
C335   O359    1.290   .     A
C335   O358    1.290   .     A
C337   C660    1.190   .     S
C338   I347    2.142   .     S
C338   C412    1.389   1_455 S
C339   I348    2.154   .     S
C339   C362    1.396   .     S
C340   I349    2.142   .     S
C340   C374    1.389   .     S
Cu341  O353    1.987   .     S
Cu341  Cu342   2.688   .     S
Cu341  O357    1.932   .     S
Cu341  O355    1.987   .     S
Cu341  N351    2.020   .     S
Cu341  O359    1.932   .     S
Cu342  O354    1.987   .     S
Cu342  O358    1.932   .     S
Cu342  O356    1.987   .     S
Cu342  N352    2.020   .     S
Cu342  O360    1.932   .     S
C361   C364    1.468   .     S
C361   O389    1.296   .     A
C361   O392    1.300   .     A
C362   C364    1.418   .     A
C362   I386    2.154   .     S
C363   C375    1.418   .     A
C363   C369    1.468   .     S
C363   C376    1.413   .     A
C364   C374    1.413   .     A
C365   F379    1.353   .     S
C365   N388    1.370   .     A
C365   C584    1.414   1_545 S
C366   N387    1.368   .     A
C366   F380    1.355   .     S
C366   C475    1.414   .     S
C367   F381    1.353   .     S
C367   N388    1.370   .     A
C367   C582    1.414   1_545 S
C368   F382    1.355   .     S
C368   N387    1.368   .     A
C368   C473    1.414   .     S
C369   O390    1.301   .     A
C369   O391    1.296   .     A
C370   C372    1.408   .     S
C370   O393    1.290   .     A
C370   O396    1.290   .     A
C371   C373    1.408   .     S
C371   O395    1.290   .     A
C371   O394    1.290   .     A
C373   C696    1.190   .     S
C374   I383    2.142   .     S
C375   I384    2.154   .     S
C375   C398    1.396   .     S
C376   I385    2.142   .     S
C376   C410    1.389   .     S
Cu377  O389    1.987   .     S
Cu377  Cu378   2.688   .     S
Cu377  O393    1.932   .     S
Cu377  O391    1.987   .     S
Cu377  N387    2.020   .     S
Cu377  O395    1.932   .     S
Cu378  O390    1.987   .     S
Cu378  O394    1.932   .     S
Cu378  O392    1.987   .     S
Cu378  N388    2.020   .     S
Cu378  O396    1.932   .     S
C397   C400    1.468   .     S
C397   O425    1.296   .     A
C397   O428    1.300   .     A
C398   C400    1.418   .     A
C398   I422    2.154   .     S
C399   C411    1.418   .     A
C399   C405    1.468   .     S
C399   C412    1.413   .     A
C400   C410    1.413   .     A
C401   F415    1.353   .     S
C401   N424    1.370   .     A
C401   C620    1.414   1_545 S
C402   N423    1.368   .     A
C402   F416    1.355   .     S
C402   C511    1.414   .     S
C403   F417    1.353   .     S
C403   N424    1.370   .     A
C403   C618    1.414   1_545 S
C404   F418    1.355   .     S
C404   N423    1.368   .     A
C404   C509    1.414   .     S
C405   O426    1.301   .     A
C405   O427    1.296   .     A
C406   C408    1.408   .     S
C406   O429    1.290   .     A
C406   O432    1.290   .     A
C407   C409    1.408   .     S
C407   O431    1.290   .     A
C407   O430    1.290   .     A
C409   C732    1.190   .     S
C410   I419    2.142   .     S
C411   I420    2.154   .     S
C411   C326    1.396   1_655 S
C412   I421    2.142   .     S
C412   C338    1.389   1_655 S
Cu413  O425    1.987   .     S
Cu413  Cu414   2.688   .     S
Cu413  O429    1.932   .     S
Cu413  O427    1.987   .     S
Cu413  N423    2.020   .     S
Cu413  O431    1.932   .     S
Cu414  O426    1.987   .     S
Cu414  O430    1.932   .     S
Cu414  O428    1.987   .     S
Cu414  N424    2.020   .     S
Cu414  O432    1.932   .     S
C433   C436    1.468   .     S
C433   O461    1.296   .     A
C433   O464    1.300   .     A
C434   C436    1.418   .     A
C434   I458    2.154   .     S
C434   C519    1.396   1_455 S
C435   C447    1.418   .     A
C435   C441    1.468   .     S
C435   C448    1.413   .     A
C436   C446    1.413   .     A
C437   F451    1.353   .     S
C437   N460    1.370   .     A
C438   N459    1.368   .     A
C438   F452    1.355   .     S
C438   C547    1.414   .     S
C439   F453    1.353   .     S
C439   N460    1.370   .     A
C440   F454    1.355   .     S
C440   N459    1.368   .     A
C440   C545    1.414   .     S
C441   O462    1.301   .     A
C441   O463    1.296   .     A
C442   C444    1.408   .     S
C442   O465    1.290   .     A
C442   O468    1.290   .     A
C443   C445    1.408   .     S
C443   O467    1.290   .     A
C443   O466    1.290   .     A
C445   C768    1.190   .     S
C446   I455    2.142   .     S
C446   C520    1.389   1_455 S
C447   I456    2.154   .     S
C447   C470    1.396   .     S
C448   I457    2.142   .     S
C448   C482    1.389   .     S
Cu449  O461    1.987   .     S
Cu449  Cu450   2.688   .     S
Cu449  O465    1.932   .     S
Cu449  O463    1.987   .     S
Cu449  N459    2.020   .     S
Cu449  O467    1.932   .     S
Cu450  O462    1.987   .     S
Cu450  O466    1.932   .     S
Cu450  O464    1.987   .     S
Cu450  N460    2.020   .     S
Cu450  O468    1.932   .     S
C469   C472    1.468   .     S
C469   O497    1.296   .     A
C469   O500    1.300   .     A
C470   C472    1.418   .     A
C470   I494    2.154   .     S
C471   C483    1.418   .     A
C471   C477    1.468   .     S
C471   C484    1.413   .     A
C472   C482    1.413   .     A
C473   F487    1.353   .     S
C473   N496    1.370   .     A
C474   N495    1.368   .     A
C474   F488    1.355   .     S
C474   C583    1.414   .     S
C475   F489    1.353   .     S
C475   N496    1.370   .     A
C476   F490    1.355   .     S
C476   N495    1.368   .     A
C476   C581    1.414   .     S
C477   O498    1.301   .     A
C477   O499    1.296   .     A
C478   C480    1.408   .     S
C478   O501    1.290   .     A
C478   O504    1.290   .     A
C479   C481    1.408   .     S
C479   O503    1.290   .     A
C479   O502    1.290   .     A
C481   C804    1.190   .     S
C482   I491    2.142   .     S
C483   I492    2.154   .     S
C483   C506    1.396   .     S
C484   I493    2.142   .     S
C484   C518    1.389   .     S
Cu485  O497    1.987   .     S
Cu485  Cu486   2.688   .     S
Cu485  O501    1.932   .     S
Cu485  O499    1.987   .     S
Cu485  N495    2.020   .     S
Cu485  O503    1.932   .     S
Cu486  O498    1.987   .     S
Cu486  O502    1.932   .     S
Cu486  O500    1.987   .     S
Cu486  N496    2.020   .     S
Cu486  O504    1.932   .     S
C505   C508    1.468   .     S
C505   O533    1.296   .     A
C505   O536    1.300   .     A
C506   C508    1.418   .     A
C506   I530    2.154   .     S
C507   C519    1.418   .     A
C507   C513    1.468   .     S
C507   C520    1.413   .     A
C508   C518    1.413   .     A
C509   F523    1.353   .     S
C509   N532    1.370   .     A
C510   N531    1.368   .     A
C510   F524    1.355   .     S
C510   C619    1.414   .     S
C511   F525    1.353   .     S
C511   N532    1.370   .     A
C512   F526    1.355   .     S
C512   N531    1.368   .     A
C512   C617    1.414   .     S
C513   O534    1.301   .     A
C513   O535    1.296   .     A
C514   C516    1.408   .     S
C514   O537    1.290   .     A
C514   O540    1.290   .     A
C515   C517    1.408   .     S
C515   O539    1.290   .     A
C515   O538    1.290   .     A
C517   C840    1.190   .     S
C518   I527    2.142   .     S
C519   I528    2.154   .     S
C519   C434    1.396   1_655 S
C520   I529    2.142   .     S
C520   C446    1.389   1_655 S
Cu521  O533    1.987   .     S
Cu521  Cu522   2.688   .     S
Cu521  O537    1.932   .     S
Cu521  O535    1.987   .     S
Cu521  N531    2.020   .     S
Cu521  O539    1.932   .     S
Cu522  O534    1.987   .     S
Cu522  O538    1.932   .     S
Cu522  O536    1.987   .     S
Cu522  N532    2.020   .     S
Cu522  O540    1.932   .     S
C541   C544    1.468   .     S
C541   O569    1.296   .     A
C541   O572    1.300   .     A
C542   C544    1.418   .     A
C542   I566    2.154   .     S
C542   C627    1.396   1_455 S
C543   C555    1.418   .     A
C543   C549    1.468   .     S
C543   C556    1.413   .     A
C544   C554    1.413   .     A
C545   F559    1.353   .     S
C545   N568    1.370   .     A
C546   N567    1.368   .     A
C546   F560    1.355   .     S
C546   C331    1.414   1_565 S
C547   F561    1.353   .     S
C547   N568    1.370   .     A
C548   F562    1.355   .     S
C548   N567    1.368   .     A
C548   C329    1.414   1_565 S
C549   O570    1.301   .     A
C549   O571    1.296   .     A
C550   C552    1.408   .     S
C550   O573    1.290   .     A
C550   O576    1.290   .     A
C551   C553    1.408   .     S
C551   O575    1.290   .     A
C551   O574    1.290   .     A
C553   C876    1.190   .     S
C554   I563    2.142   .     S
C554   C628    1.389   1_455 S
C555   I564    2.154   .     S
C555   C578    1.396   .     S
C556   I565    2.142   .     S
C556   C590    1.389   .     S
Cu557  O569    1.987   .     S
Cu557  Cu558   2.688   .     S
Cu557  O573    1.932   .     S
Cu557  O571    1.987   .     S
Cu557  N567    2.020   .     S
Cu557  O575    1.932   .     S
Cu558  O570    1.987   .     S
Cu558  O574    1.932   .     S
Cu558  O572    1.987   .     S
Cu558  N568    2.020   .     S
Cu558  O576    1.932   .     S
C577   C580    1.468   .     S
C577   O605    1.296   .     A
C577   O608    1.300   .     A
C578   C580    1.418   .     A
C578   I602    2.154   .     S
C579   C591    1.418   .     A
C579   C585    1.468   .     S
C579   C592    1.413   .     A
C580   C590    1.413   .     A
C581   F595    1.353   .     S
C581   N604    1.370   .     A
C582   N603    1.368   .     A
C582   F596    1.355   .     S
C582   C367    1.414   1_565 S
C583   F597    1.353   .     S
C583   N604    1.370   .     A
C584   F598    1.355   .     S
C584   N603    1.368   .     A
C584   C365    1.414   1_565 S
C585   O606    1.301   .     A
C585   O607    1.296   .     A
C586   C588    1.408   .     S
C586   O609    1.290   .     A
C586   O612    1.290   .     A
C587   C589    1.408   .     S
C587   O611    1.290   .     A
C587   O610    1.290   .     A
C589   C912    1.190   .     S
C590   I599    2.142   .     S
C591   I600    2.154   .     S
C591   C614    1.396   .     S
C592   I601    2.142   .     S
C592   C626    1.389   .     S
Cu593  O605    1.987   .     S
Cu593  Cu594   2.688   .     S
Cu593  O609    1.932   .     S
Cu593  O607    1.987   .     S
Cu593  N603    2.020   .     S
Cu593  O611    1.932   .     S
Cu594  O606    1.987   .     S
Cu594  O610    1.932   .     S
Cu594  O608    1.987   .     S
Cu594  N604    2.020   .     S
Cu594  O612    1.932   .     S
C613   C616    1.468   .     S
C613   O641    1.296   .     A
C613   O644    1.300   .     A
C614   C616    1.418   .     A
C614   I638    2.154   .     S
C615   C627    1.418   .     A
C615   C621    1.468   .     S
C615   C628    1.413   .     A
C616   C626    1.413   .     A
C617   F631    1.353   .     S
C617   N640    1.370   .     A
C618   N639    1.368   .     A
C618   F632    1.355   .     S
C618   C403    1.414   1_565 S
C619   F633    1.353   .     S
C619   N640    1.370   .     A
C620   F634    1.355   .     S
C620   N639    1.368   .     A
C620   C401    1.414   1_565 S
C621   O642    1.301   .     A
C621   O643    1.296   .     A
C622   C624    1.408   .     S
C622   O645    1.290   .     A
C622   O648    1.290   .     A
C623   C625    1.408   .     S
C623   O647    1.290   .     A
C623   O646    1.290   .     A
C625   C948    1.190   .     S
C626   I635    2.142   .     S
C627   I636    2.154   .     S
C627   C542    1.396   1_655 S
C628   I637    2.142   .     S
C628   C554    1.389   1_655 S
Cu629  O641    1.987   .     S
Cu629  Cu630   2.688   .     S
Cu629  O645    1.932   .     S
Cu629  O643    1.987   .     S
Cu629  N639    2.020   .     S
Cu629  O647    1.932   .     S
Cu630  O642    1.987   .     S
Cu630  O646    1.932   .     S
Cu630  O644    1.987   .     S
Cu630  N640    2.020   .     S
Cu630  O648    1.932   .     S
C649   C652    1.468   .     S
C649   O677    1.296   .     A
C649   O680    1.300   .     A
C650   C652    1.418   .     A
C650   I674    2.154   .     S
C650   C735    1.396   1_455 S
C651   C663    1.418   .     A
C651   C657    1.468   .     S
C651   C664    1.413   .     A
C652   C662    1.413   .     A
C653   F667    1.353   .     S
C653   N676    1.370   .     A
C653   C872    1.414   1_545 S
C654   N675    1.368   .     A
C654   F668    1.355   .     S
C654   C763    1.414   .     S
C655   F669    1.353   .     S
C655   N676    1.370   .     A
C655   C870    1.414   1_545 S
C656   F670    1.355   .     S
C656   N675    1.368   .     A
C656   C761    1.414   .     S
C657   O678    1.301   .     A
C657   O679    1.296   .     A
C658   C660    1.408   .     S
C658   O681    1.290   .     A
C658   O684    1.290   .     A
C659   C661    1.408   .     S
C659   O683    1.290   .     A
C659   O682    1.290   .     A
C661   C12     1.190   1_556 S
C662   I671    2.142   .     S
C662   C736    1.389   1_455 S
C663   I672    2.154   .     S
C663   C686    1.396   .     S
C664   I673    2.142   .     S
C664   C698    1.389   .     S
Cu665  O677    1.987   .     S
Cu665  Cu666   2.688   .     S
Cu665  O681    1.932   .     S
Cu665  O679    1.987   .     S
Cu665  N675    2.020   .     S
Cu665  O683    1.932   .     S
Cu666  O678    1.987   .     S
Cu666  O682    1.932   .     S
Cu666  O680    1.987   .     S
Cu666  N676    2.020   .     S
Cu666  O684    1.932   .     S
C685   C688    1.468   .     S
C685   O713    1.296   .     A
C685   O716    1.300   .     A
C686   C688    1.418   .     A
C686   I710    2.154   .     S
C687   C699    1.418   .     A
C687   C693    1.468   .     S
C687   C700    1.413   .     A
C688   C698    1.413   .     A
C689   F703    1.353   .     S
C689   N712    1.370   .     A
C689   C908    1.414   1_545 S
C690   N711    1.368   .     A
C690   F704    1.355   .     S
C690   C799    1.414   .     S
C691   F705    1.353   .     S
C691   N712    1.370   .     A
C691   C906    1.414   1_545 S
C692   F706    1.355   .     S
C692   N711    1.368   .     A
C692   C797    1.414   .     S
C693   O714    1.301   .     A
C693   O715    1.296   .     A
C694   C696    1.408   .     S
C694   O717    1.290   .     A
C694   O720    1.290   .     A
C695   C697    1.408   .     S
C695   O719    1.290   .     A
C695   O718    1.290   .     A
C697   C48     1.190   1_556 S
C698   I707    2.142   .     S
C699   I708    2.154   .     S
C699   C722    1.396   .     S
C700   I709    2.142   .     S
C700   C734    1.389   .     S
Cu701  O713    1.987   .     S
Cu701  Cu702   2.688   .     S
Cu701  O717    1.932   .     S
Cu701  O715    1.987   .     S
Cu701  N711    2.020   .     S
Cu701  O719    1.932   .     S
Cu702  O714    1.987   .     S
Cu702  O718    1.932   .     S
Cu702  O716    1.987   .     S
Cu702  N712    2.020   .     S
Cu702  O720    1.932   .     S
C721   C724    1.468   .     S
C721   O749    1.296   .     A
C721   O752    1.300   .     A
C722   C724    1.418   .     A
C722   I746    2.154   .     S
C723   C735    1.418   .     A
C723   C729    1.468   .     S
C723   C736    1.413   .     A
C724   C734    1.413   .     A
C725   F739    1.353   .     S
C725   N748    1.370   .     A
C725   C944    1.414   1_545 S
C726   N747    1.368   .     A
C726   F740    1.355   .     S
C726   C835    1.414   .     S
C727   F741    1.353   .     S
C727   N748    1.370   .     A
C727   C942    1.414   1_545 S
C728   F742    1.355   .     S
C728   N747    1.368   .     A
C728   C833    1.414   .     S
C729   O750    1.301   .     A
C729   O751    1.296   .     A
C730   C732    1.408   .     S
C730   O753    1.290   .     A
C730   O756    1.290   .     A
C731   C733    1.408   .     S
C731   O755    1.290   .     A
C731   O754    1.290   .     A
C733   C84     1.190   1_556 S
C734   I743    2.142   .     S
C735   I744    2.154   .     S
C735   C650    1.396   1_655 S
C736   I745    2.142   .     S
C736   C662    1.389   1_655 S
Cu737  O749    1.987   .     S
Cu737  Cu738   2.688   .     S
Cu737  O753    1.932   .     S
Cu737  O751    1.987   .     S
Cu737  N747    2.020   .     S
Cu737  O755    1.932   .     S
Cu738  O750    1.987   .     S
Cu738  O754    1.932   .     S
Cu738  O752    1.987   .     S
Cu738  N748    2.020   .     S
Cu738  O756    1.932   .     S
C757   C760    1.468   .     S
C757   O785    1.296   .     A
C757   O788    1.300   .     A
C758   C760    1.418   .     A
C758   I782    2.154   .     S
C758   C843    1.396   1_455 S
C759   C771    1.418   .     A
C759   C765    1.468   .     S
C759   C772    1.413   .     A
C760   C770    1.413   .     A
C761   F775    1.353   .     S
C761   N784    1.370   .     A
C762   N783    1.368   .     A
C762   F776    1.355   .     S
C762   C871    1.414   .     S
C763   F777    1.353   .     S
C763   N784    1.370   .     A
C764   F778    1.355   .     S
C764   N783    1.368   .     A
C764   C869    1.414   .     S
C765   O786    1.301   .     A
C765   O787    1.296   .     A
C766   C768    1.408   .     S
C766   O789    1.290   .     A
C766   O792    1.290   .     A
C767   C769    1.408   .     S
C767   O791    1.290   .     A
C767   O790    1.290   .     A
C769   C120    1.190   1_556 S
C770   I779    2.142   .     S
C770   C844    1.389   1_455 S
C771   I780    2.154   .     S
C771   C794    1.396   .     S
C772   I781    2.142   .     S
C772   C806    1.389   .     S
Cu773  O785    1.987   .     S
Cu773  Cu774   2.688   .     S
Cu773  O789    1.932   .     S
Cu773  O787    1.987   .     S
Cu773  N783    2.020   .     S
Cu773  O791    1.932   .     S
Cu774  O786    1.987   .     S
Cu774  O790    1.932   .     S
Cu774  O788    1.987   .     S
Cu774  N784    2.020   .     S
Cu774  O792    1.932   .     S
C793   C796    1.468   .     S
C793   O821    1.296   .     A
C793   O824    1.300   .     A
C794   C796    1.418   .     A
C794   I818    2.154   .     S
C795   C807    1.418   .     A
C795   C801    1.468   .     S
C795   C808    1.413   .     A
C796   C806    1.413   .     A
C797   F811    1.353   .     S
C797   N820    1.370   .     A
C798   N819    1.368   .     A
C798   F812    1.355   .     S
C798   C907    1.414   .     S
C799   F813    1.353   .     S
C799   N820    1.370   .     A
C800   F814    1.355   .     S
C800   N819    1.368   .     A
C800   C905    1.414   .     S
C801   O822    1.301   .     A
C801   O823    1.296   .     A
C802   C804    1.408   .     S
C802   O825    1.290   .     A
C802   O828    1.290   .     A
C803   C805    1.408   .     S
C803   O827    1.290   .     A
C803   O826    1.290   .     A
C805   C156    1.190   1_556 S
C806   I815    2.142   .     S
C807   I816    2.154   .     S
C807   C830    1.396   .     S
C808   I817    2.142   .     S
C808   C842    1.389   .     S
Cu809  O821    1.987   .     S
Cu809  Cu810   2.688   .     S
Cu809  O825    1.932   .     S
Cu809  O823    1.987   .     S
Cu809  N819    2.020   .     S
Cu809  O827    1.932   .     S
Cu810  O822    1.987   .     S
Cu810  O826    1.932   .     S
Cu810  O824    1.987   .     S
Cu810  N820    2.020   .     S
Cu810  O828    1.932   .     S
C829   C832    1.468   .     S
C829   O857    1.296   .     A
C829   O860    1.300   .     A
C830   C832    1.418   .     A
C830   I854    2.154   .     S
C831   C843    1.418   .     A
C831   C837    1.468   .     S
C831   C844    1.413   .     A
C832   C842    1.413   .     A
C833   F847    1.353   .     S
C833   N856    1.370   .     A
C834   N855    1.368   .     A
C834   F848    1.355   .     S
C834   C943    1.414   .     S
C835   F849    1.353   .     S
C835   N856    1.370   .     A
C836   F850    1.355   .     S
C836   N855    1.368   .     A
C836   C941    1.414   .     S
C837   O858    1.301   .     A
C837   O859    1.296   .     A
C838   C840    1.408   .     S
C838   O861    1.290   .     A
C838   O864    1.290   .     A
C839   C841    1.408   .     S
C839   O863    1.290   .     A
C839   O862    1.290   .     A
C841   C192    1.190   1_556 S
C842   I851    2.142   .     S
C843   I852    2.154   .     S
C843   C758    1.396   1_655 S
C844   I853    2.142   .     S
C844   C770    1.389   1_655 S
Cu845  O857    1.987   .     S
Cu845  Cu846   2.688   .     S
Cu845  O861    1.932   .     S
Cu845  O859    1.987   .     S
Cu845  N855    2.020   .     S
Cu845  O863    1.932   .     S
Cu846  O858    1.987   .     S
Cu846  O862    1.932   .     S
Cu846  O860    1.987   .     S
Cu846  N856    2.020   .     S
Cu846  O864    1.932   .     S
C865   C868    1.468   .     S
C865   O893    1.296   .     A
C865   O896    1.300   .     A
C866   C868    1.418   .     A
C866   I890    2.154   .     S
C866   C951    1.396   1_455 S
C867   C879    1.418   .     A
C867   C873    1.468   .     S
C867   C880    1.413   .     A
C868   C878    1.413   .     A
C869   F883    1.353   .     S
C869   N892    1.370   .     A
C870   N891    1.368   .     A
C870   F884    1.355   .     S
C870   C655    1.414   1_565 S
C871   F885    1.353   .     S
C871   N892    1.370   .     A
C872   F886    1.355   .     S
C872   N891    1.368   .     A
C872   C653    1.414   1_565 S
C873   O894    1.301   .     A
C873   O895    1.296   .     A
C874   C876    1.408   .     S
C874   O897    1.290   .     A
C874   O900    1.290   .     A
C875   C877    1.408   .     S
C875   O899    1.290   .     A
C875   O898    1.290   .     A
C877   C228    1.190   1_556 S
C878   I887    2.142   .     S
C878   C952    1.389   1_455 S
C879   I888    2.154   .     S
C879   C902    1.396   .     S
C880   I889    2.142   .     S
C880   C914    1.389   .     S
Cu881  O893    1.987   .     S
Cu881  Cu882   2.688   .     S
Cu881  O897    1.932   .     S
Cu881  O895    1.987   .     S
Cu881  N891    2.020   .     S
Cu881  O899    1.932   .     S
Cu882  O894    1.987   .     S
Cu882  O898    1.932   .     S
Cu882  O896    1.987   .     S
Cu882  N892    2.020   .     S
Cu882  O900    1.932   .     S
C901   C904    1.468   .     S
C901   O929    1.296   .     A
C901   O932    1.300   .     A
C902   C904    1.418   .     A
C902   I926    2.154   .     S
C903   C915    1.418   .     A
C903   C909    1.468   .     S
C903   C916    1.413   .     A
C904   C914    1.413   .     A
C905   F919    1.353   .     S
C905   N928    1.370   .     A
C906   N927    1.368   .     A
C906   F920    1.355   .     S
C906   C691    1.414   1_565 S
C907   F921    1.353   .     S
C907   N928    1.370   .     A
C908   F922    1.355   .     S
C908   N927    1.368   .     A
C908   C689    1.414   1_565 S
C909   O930    1.301   .     A
C909   O931    1.296   .     A
C910   C912    1.408   .     S
C910   O933    1.290   .     A
C910   O936    1.290   .     A
C911   C913    1.408   .     S
C911   O935    1.290   .     A
C911   O934    1.290   .     A
C913   C264    1.190   1_556 S
C914   I923    2.142   .     S
C915   I924    2.154   .     S
C915   C938    1.396   .     S
C916   I925    2.142   .     S
C916   C950    1.389   .     S
Cu917  O929    1.987   .     S
Cu917  Cu918   2.688   .     S
Cu917  O933    1.932   .     S
Cu917  O931    1.987   .     S
Cu917  N927    2.020   .     S
Cu917  O935    1.932   .     S
Cu918  O930    1.987   .     S
Cu918  O934    1.932   .     S
Cu918  O932    1.987   .     S
Cu918  N928    2.020   .     S
Cu918  O936    1.932   .     S
C937   C940    1.468   .     S
C937   O965    1.296   .     A
C937   O968    1.300   .     A
C938   C940    1.418   .     A
C938   I962    2.154   .     S
C939   C951    1.418   .     A
C939   C945    1.468   .     S
C939   C952    1.413   .     A
C940   C950    1.413   .     A
C941   F955    1.353   .     S
C941   N964    1.370   .     A
C942   N963    1.368   .     A
C942   F956    1.355   .     S
C942   C727    1.414   1_565 S
C943   F957    1.353   .     S
C943   N964    1.370   .     A
C944   F958    1.355   .     S
C944   N963    1.368   .     A
C944   C725    1.414   1_565 S
C945   O966    1.301   .     A
C945   O967    1.296   .     A
C946   C948    1.408   .     S
C946   O969    1.290   .     A
C946   O972    1.290   .     A
C947   C949    1.408   .     S
C947   O971    1.290   .     A
C947   O970    1.290   .     A
C949   C300    1.190   1_556 S
C950   I959    2.142   .     S
C951   I960    2.154   .     S
C951   C866    1.396   1_655 S
C952   I961    2.142   .     S
C952   C878    1.389   1_655 S
Cu953  O965    1.987   .     S
Cu953  Cu954   2.688   .     S
Cu953  O969    1.932   .     S
Cu953  O967    1.987   .     S
Cu953  N963    2.020   .     S
Cu953  O971    1.932   .     S
Cu954  O966    1.987   .     S
Cu954  O970    1.932   .     S
Cu954  O968    1.987   .     S
Cu954  N964    2.020   .     S
Cu954  O972    1.932   .     S
