data_str_m2_o1_o10_pcu_sym.220
_audit_creation_date              2020-01-03
_audit_creation_method            'Materials Studio'
_symmetry_space_group_name_H-M    'P1'
_symmetry_Int_Tables_number       1
_symmetry_cell_setting            triclinic
loop_
_symmetry_equiv_pos_as_xyz
  x,y,z
_cell_length_a                    26.1860
_cell_length_b                    32.4348
_cell_length_c                    28.7272
_cell_angle_alpha                 89.4070
_cell_angle_beta                  97.4928
_cell_angle_gamma                 91.0748
loop_
_atom_site_label
_atom_site_type_symbol
_atom_site_fract_x
_atom_site_fract_y
_atom_site_fract_z
_atom_site_U_iso_or_equiv
_atom_site_adp_type
_atom_site_occupancy
O1     O     0.16666   0.10655   0.20625   0.00000  Uiso   1.00
O2     O     0.16667   0.22678   0.12709   0.00000  Uiso   1.00
O3     O     0.16666   0.10654   0.12706   0.00000  Uiso   1.00
O4     O     0.16667   0.22679   0.20628   0.00000  Uiso   1.00
C5     C     0.16660   0.08743   0.16679   0.00000  Uiso   1.00
C6     C     0.16673   0.24591   0.16654   0.00000  Uiso   1.00
O7     O     0.09161   0.16667   0.19712   0.00000  Uiso   1.00
O8     O     0.24172   0.16666   0.13621   0.00000  Uiso   1.00
O9     O     0.09161   0.16666   0.11793   0.00000  Uiso   1.00
O10    O     0.24172   0.16667   0.21540   0.00000  Uiso   1.00
C11    C     0.06803   0.16642   0.15471   0.00000  Uiso   1.00
C12    C     0.26531   0.16690   0.17862   0.00000  Uiso   1.00
Cu13   Cu    0.16667   0.16667   0.21355   0.00000  Uiso   1.00
Cu14   Cu    0.16667   0.16666   0.11978   0.00000  Uiso   1.00
N15    N     0.16668   0.16668   0.28403   0.00000  Uiso   1.00
N16    N     0.16665   0.16666   0.04931   0.00000  Uiso   1.00
C17    C     0.01281   0.16555   0.14815   0.00000  Uiso   1.00
C18    C     0.32053   0.16777   0.18518   0.00000  Uiso   1.00
H19    H     0.32649   0.16276   0.11257   0.00000  Uiso   1.00
H20    H     0.00684   0.17056   0.22076   0.00000  Uiso   1.00
C21    C     0.15002   0.02152   0.12521   0.00000  Uiso   1.00
C22    C     0.18330   0.31182   0.20812   0.00000  Uiso   1.00
H23    H     0.13659   0.03781   0.09295   0.00000  Uiso   1.00
H24    H     0.19673   0.29552   0.24038   0.00000  Uiso   1.00
C25    C     0.15002   0.31217   0.12508   0.00000  Uiso   1.00
C26    C     0.18330   0.02117   0.20825   0.00000  Uiso   1.00
H27    H     0.13621   0.29613   0.09289   0.00000  Uiso   1.00
H28    H     0.19710   0.03720   0.24045   0.00000  Uiso   1.00
C29    C     0.16678   0.29055   0.16649   0.00000  Uiso   1.00
C30    C     0.16654   0.04279   0.16685   0.00000  Uiso   1.00
C31    C     0.14121   0.13657   0.02248   0.00000  Uiso   1.00
C32    C     0.19212   0.19676   0.31085   0.00000  Uiso   1.00
H33    H     0.12055   0.11261   0.03918   0.00000  Uiso   1.00
H34    H     0.21279   0.22072   0.29416   0.00000  Uiso   1.00
C35    C     0.14094   0.13636   0.30644   0.00000  Uiso   1.00
C36    C     0.19241   0.19696   0.02690   0.00000  Uiso   1.00
N37    N     0.11356   0.10359   0.28075   0.00000  Uiso   1.00
O38    O     0.06770   0.11019   0.25906   0.00000  Uiso   1.00
O39    O     0.12664   0.06579   0.29120   0.00000  Uiso   1.00
N40    N     0.21984   0.22970   0.05260   0.00000  Uiso   1.00
O41    O     0.20671   0.26751   0.04226   0.00000  Uiso   1.00
O42    O     0.26576   0.22308   0.07415   0.00000  Uiso   1.00
O43    O     0.50000   0.10655   0.20625   0.00000  Uiso   1.00
O44    O     0.50000   0.22678   0.12709   0.00000  Uiso   1.00
O45    O     0.50000   0.10654   0.12706   0.00000  Uiso   1.00
O46    O     0.50000   0.22679   0.20628   0.00000  Uiso   1.00
C47    C     0.49993   0.08743   0.16679   0.00000  Uiso   1.00
C48    C     0.50006   0.24591   0.16654   0.00000  Uiso   1.00
O49    O     0.42495   0.16667   0.19712   0.00000  Uiso   1.00
O50    O     0.57505   0.16666   0.13621   0.00000  Uiso   1.00
O51    O     0.42494   0.16666   0.11793   0.00000  Uiso   1.00
O52    O     0.57506   0.16667   0.21540   0.00000  Uiso   1.00
C53    C     0.40136   0.16642   0.15471   0.00000  Uiso   1.00
C54    C     0.59864   0.16690   0.17862   0.00000  Uiso   1.00
Cu55   Cu    0.50000   0.16667   0.21355   0.00000  Uiso   1.00
Cu56   Cu    0.50000   0.16666   0.11978   0.00000  Uiso   1.00
N57    N     0.50001   0.16668   0.28403   0.00000  Uiso   1.00
N58    N     0.49999   0.16666   0.04931   0.00000  Uiso   1.00
C59    C     0.34614   0.16555   0.14815   0.00000  Uiso   1.00
C60    C     0.65386   0.16777   0.18518   0.00000  Uiso   1.00
H61    H     0.65983   0.16276   0.11257   0.00000  Uiso   1.00
H62    H     0.34017   0.17056   0.22076   0.00000  Uiso   1.00
C63    C     0.48335   0.02152   0.12521   0.00000  Uiso   1.00
C64    C     0.51663   0.31182   0.20812   0.00000  Uiso   1.00
H65    H     0.46993   0.03781   0.09295   0.00000  Uiso   1.00
H66    H     0.53006   0.29552   0.24038   0.00000  Uiso   1.00
C67    C     0.48335   0.31217   0.12508   0.00000  Uiso   1.00
C68    C     0.51663   0.02117   0.20825   0.00000  Uiso   1.00
H69    H     0.46954   0.29613   0.09289   0.00000  Uiso   1.00
H70    H     0.53043   0.03720   0.24045   0.00000  Uiso   1.00
C71    C     0.50012   0.29055   0.16649   0.00000  Uiso   1.00
C72    C     0.49987   0.04279   0.16685   0.00000  Uiso   1.00
C73    C     0.47455   0.13657   0.02248   0.00000  Uiso   1.00
C74    C     0.52546   0.19676   0.31085   0.00000  Uiso   1.00
H75    H     0.45389   0.11261   0.03918   0.00000  Uiso   1.00
H76    H     0.54612   0.22072   0.29416   0.00000  Uiso   1.00
C77    C     0.47427   0.13636   0.30644   0.00000  Uiso   1.00
C78    C     0.52574   0.19696   0.02690   0.00000  Uiso   1.00
N79    N     0.44690   0.10359   0.28075   0.00000  Uiso   1.00
O80    O     0.40104   0.11019   0.25906   0.00000  Uiso   1.00
O81    O     0.45997   0.06579   0.29120   0.00000  Uiso   1.00
N82    N     0.55317   0.22970   0.05260   0.00000  Uiso   1.00
O83    O     0.54005   0.26751   0.04226   0.00000  Uiso   1.00
O84    O     0.59910   0.22308   0.07415   0.00000  Uiso   1.00
O85    O     0.83333   0.10655   0.20625   0.00000  Uiso   1.00
O86    O     0.83334   0.22678   0.12709   0.00000  Uiso   1.00
O87    O     0.83333   0.10654   0.12706   0.00000  Uiso   1.00
O88    O     0.83334   0.22679   0.20628   0.00000  Uiso   1.00
C89    C     0.83327   0.08743   0.16679   0.00000  Uiso   1.00
C90    C     0.83340   0.24591   0.16654   0.00000  Uiso   1.00
O91    O     0.75828   0.16667   0.19712   0.00000  Uiso   1.00
O92    O     0.90839   0.16666   0.13621   0.00000  Uiso   1.00
O93    O     0.75828   0.16666   0.11793   0.00000  Uiso   1.00
O94    O     0.90839   0.16667   0.21540   0.00000  Uiso   1.00
C95    C     0.73469   0.16642   0.15471   0.00000  Uiso   1.00
C96    C     0.93197   0.16690   0.17862   0.00000  Uiso   1.00
Cu97   Cu    0.83333   0.16667   0.21355   0.00000  Uiso   1.00
Cu98   Cu    0.83333   0.16666   0.11978   0.00000  Uiso   1.00
N99    N     0.83335   0.16668   0.28403   0.00000  Uiso   1.00
N100   N     0.83332   0.16666   0.04931   0.00000  Uiso   1.00
C101   C     0.67947   0.16555   0.14815   0.00000  Uiso   1.00
C102   C     0.98719   0.16777   0.18518   0.00000  Uiso   1.00
H103   H     0.99316   0.16276   0.11257   0.00000  Uiso   1.00
H104   H     0.67351   0.17056   0.22076   0.00000  Uiso   1.00
C105   C     0.81669   0.02152   0.12521   0.00000  Uiso   1.00
C106   C     0.84996   0.31182   0.20812   0.00000  Uiso   1.00
H107   H     0.80326   0.03781   0.09295   0.00000  Uiso   1.00
H108   H     0.86339   0.29552   0.24038   0.00000  Uiso   1.00
C109   C     0.81668   0.31217   0.12508   0.00000  Uiso   1.00
C110   C     0.84997   0.02117   0.20825   0.00000  Uiso   1.00
H111   H     0.80288   0.29613   0.09289   0.00000  Uiso   1.00
H112   H     0.86377   0.03720   0.24045   0.00000  Uiso   1.00
C113   C     0.83345   0.29055   0.16649   0.00000  Uiso   1.00
C114   C     0.83320   0.04279   0.16685   0.00000  Uiso   1.00
C115   C     0.80788   0.13657   0.02248   0.00000  Uiso   1.00
C116   C     0.85879   0.19676   0.31085   0.00000  Uiso   1.00
H117   H     0.78722   0.11261   0.03918   0.00000  Uiso   1.00
H118   H     0.87946   0.22072   0.29416   0.00000  Uiso   1.00
C119   C     0.80761   0.13636   0.30644   0.00000  Uiso   1.00
C120   C     0.85907   0.19696   0.02690   0.00000  Uiso   1.00
N121   N     0.78023   0.10359   0.28075   0.00000  Uiso   1.00
O122   O     0.73437   0.11019   0.25906   0.00000  Uiso   1.00
O123   O     0.79331   0.06579   0.29120   0.00000  Uiso   1.00
N124   N     0.88651   0.22970   0.05260   0.00000  Uiso   1.00
O125   O     0.87338   0.26751   0.04226   0.00000  Uiso   1.00
O126   O     0.93243   0.22308   0.07415   0.00000  Uiso   1.00
O127   O     0.16666   0.43989   0.20625   0.00000  Uiso   1.00
O128   O     0.16667   0.56011   0.12709   0.00000  Uiso   1.00
O129   O     0.16666   0.43988   0.12706   0.00000  Uiso   1.00
O130   O     0.16667   0.56012   0.20628   0.00000  Uiso   1.00
C131   C     0.16660   0.42076   0.16679   0.00000  Uiso   1.00
C132   C     0.16673   0.57924   0.16654   0.00000  Uiso   1.00
O133   O     0.09161   0.50000   0.19712   0.00000  Uiso   1.00
O134   O     0.24172   0.50000   0.13621   0.00000  Uiso   1.00
O135   O     0.09161   0.49999   0.11793   0.00000  Uiso   1.00
O136   O     0.24172   0.50001   0.21540   0.00000  Uiso   1.00
C137   C     0.06803   0.49976   0.15471   0.00000  Uiso   1.00
C138   C     0.26531   0.50024   0.17862   0.00000  Uiso   1.00
Cu139  Cu    0.16667   0.50001   0.21355   0.00000  Uiso   1.00
Cu140  Cu    0.16667   0.49999   0.11978   0.00000  Uiso   1.00
N141   N     0.16668   0.50001   0.28403   0.00000  Uiso   1.00
N142   N     0.16665   0.49999   0.04931   0.00000  Uiso   1.00
C143   C     0.01281   0.49889   0.14815   0.00000  Uiso   1.00
C144   C     0.32053   0.50110   0.18518   0.00000  Uiso   1.00
H145   H     0.32649   0.49609   0.11257   0.00000  Uiso   1.00
H146   H     0.00684   0.50389   0.22076   0.00000  Uiso   1.00
C147   C     0.15002   0.35485   0.12521   0.00000  Uiso   1.00
C148   C     0.18330   0.64515   0.20812   0.00000  Uiso   1.00
H149   H     0.13659   0.37115   0.09295   0.00000  Uiso   1.00
H150   H     0.19673   0.62885   0.24038   0.00000  Uiso   1.00
C151   C     0.15002   0.64550   0.12508   0.00000  Uiso   1.00
C152   C     0.18330   0.35450   0.20825   0.00000  Uiso   1.00
H153   H     0.13621   0.62947   0.09289   0.00000  Uiso   1.00
H154   H     0.19710   0.37053   0.24045   0.00000  Uiso   1.00
C155   C     0.16678   0.62388   0.16649   0.00000  Uiso   1.00
C156   C     0.16654   0.37612   0.16685   0.00000  Uiso   1.00
C157   C     0.14121   0.46991   0.02248   0.00000  Uiso   1.00
C158   C     0.19212   0.53009   0.31085   0.00000  Uiso   1.00
H159   H     0.12055   0.44595   0.03918   0.00000  Uiso   1.00
H160   H     0.21279   0.55405   0.29416   0.00000  Uiso   1.00
C161   C     0.14094   0.46969   0.30644   0.00000  Uiso   1.00
C162   C     0.19241   0.53030   0.02690   0.00000  Uiso   1.00
N163   N     0.11356   0.43692   0.28075   0.00000  Uiso   1.00
O164   O     0.06770   0.44352   0.25906   0.00000  Uiso   1.00
O165   O     0.12664   0.39912   0.29120   0.00000  Uiso   1.00
N166   N     0.21984   0.56304   0.05260   0.00000  Uiso   1.00
O167   O     0.20671   0.60085   0.04226   0.00000  Uiso   1.00
O168   O     0.26576   0.55641   0.07415   0.00000  Uiso   1.00
O169   O     0.50000   0.43989   0.20625   0.00000  Uiso   1.00
O170   O     0.50000   0.56011   0.12709   0.00000  Uiso   1.00
O171   O     0.50000   0.43988   0.12706   0.00000  Uiso   1.00
O172   O     0.50000   0.56012   0.20628   0.00000  Uiso   1.00
C173   C     0.49993   0.42076   0.16679   0.00000  Uiso   1.00
C174   C     0.50006   0.57924   0.16654   0.00000  Uiso   1.00
O175   O     0.42495   0.50000   0.19712   0.00000  Uiso   1.00
O176   O     0.57505   0.50000   0.13621   0.00000  Uiso   1.00
O177   O     0.42494   0.49999   0.11793   0.00000  Uiso   1.00
O178   O     0.57506   0.50001   0.21540   0.00000  Uiso   1.00
C179   C     0.40136   0.49976   0.15471   0.00000  Uiso   1.00
C180   C     0.59864   0.50024   0.17862   0.00000  Uiso   1.00
Cu181  Cu    0.50000   0.50001   0.21355   0.00000  Uiso   1.00
Cu182  Cu    0.50000   0.49999   0.11978   0.00000  Uiso   1.00
N183   N     0.50001   0.50001   0.28403   0.00000  Uiso   1.00
N184   N     0.49999   0.49999   0.04931   0.00000  Uiso   1.00
C185   C     0.34614   0.49889   0.14815   0.00000  Uiso   1.00
C186   C     0.65386   0.50110   0.18518   0.00000  Uiso   1.00
H187   H     0.65983   0.49609   0.11257   0.00000  Uiso   1.00
H188   H     0.34017   0.50389   0.22076   0.00000  Uiso   1.00
C189   C     0.48335   0.35485   0.12521   0.00000  Uiso   1.00
C190   C     0.51663   0.64515   0.20812   0.00000  Uiso   1.00
H191   H     0.46993   0.37115   0.09295   0.00000  Uiso   1.00
H192   H     0.53006   0.62885   0.24038   0.00000  Uiso   1.00
C193   C     0.48335   0.64550   0.12508   0.00000  Uiso   1.00
C194   C     0.51663   0.35450   0.20825   0.00000  Uiso   1.00
H195   H     0.46954   0.62947   0.09289   0.00000  Uiso   1.00
H196   H     0.53043   0.37053   0.24045   0.00000  Uiso   1.00
C197   C     0.50012   0.62388   0.16649   0.00000  Uiso   1.00
C198   C     0.49987   0.37612   0.16685   0.00000  Uiso   1.00
C199   C     0.47455   0.46991   0.02248   0.00000  Uiso   1.00
C200   C     0.52546   0.53009   0.31085   0.00000  Uiso   1.00
H201   H     0.45389   0.44595   0.03918   0.00000  Uiso   1.00
H202   H     0.54612   0.55405   0.29416   0.00000  Uiso   1.00
C203   C     0.47427   0.46969   0.30644   0.00000  Uiso   1.00
C204   C     0.52574   0.53030   0.02690   0.00000  Uiso   1.00
N205   N     0.44690   0.43692   0.28075   0.00000  Uiso   1.00
O206   O     0.40104   0.44352   0.25906   0.00000  Uiso   1.00
O207   O     0.45997   0.39912   0.29120   0.00000  Uiso   1.00
N208   N     0.55317   0.56304   0.05260   0.00000  Uiso   1.00
O209   O     0.54005   0.60085   0.04226   0.00000  Uiso   1.00
O210   O     0.59910   0.55641   0.07415   0.00000  Uiso   1.00
O211   O     0.83333   0.43989   0.20625   0.00000  Uiso   1.00
O212   O     0.83334   0.56011   0.12709   0.00000  Uiso   1.00
O213   O     0.83333   0.43988   0.12706   0.00000  Uiso   1.00
O214   O     0.83334   0.56012   0.20628   0.00000  Uiso   1.00
C215   C     0.83327   0.42076   0.16679   0.00000  Uiso   1.00
C216   C     0.83340   0.57924   0.16654   0.00000  Uiso   1.00
O217   O     0.75828   0.50000   0.19712   0.00000  Uiso   1.00
O218   O     0.90839   0.50000   0.13621   0.00000  Uiso   1.00
O219   O     0.75828   0.49999   0.11793   0.00000  Uiso   1.00
O220   O     0.90839   0.50001   0.21540   0.00000  Uiso   1.00
C221   C     0.73469   0.49976   0.15471   0.00000  Uiso   1.00
C222   C     0.93197   0.50024   0.17862   0.00000  Uiso   1.00
Cu223  Cu    0.83333   0.50001   0.21355   0.00000  Uiso   1.00
Cu224  Cu    0.83333   0.49999   0.11978   0.00000  Uiso   1.00
N225   N     0.83335   0.50001   0.28403   0.00000  Uiso   1.00
N226   N     0.83332   0.49999   0.04931   0.00000  Uiso   1.00
C227   C     0.67947   0.49889   0.14815   0.00000  Uiso   1.00
C228   C     0.98719   0.50110   0.18518   0.00000  Uiso   1.00
H229   H     0.99316   0.49609   0.11257   0.00000  Uiso   1.00
H230   H     0.67351   0.50389   0.22076   0.00000  Uiso   1.00
C231   C     0.81669   0.35485   0.12521   0.00000  Uiso   1.00
C232   C     0.84996   0.64515   0.20812   0.00000  Uiso   1.00
H233   H     0.80326   0.37115   0.09295   0.00000  Uiso   1.00
H234   H     0.86339   0.62885   0.24038   0.00000  Uiso   1.00
C235   C     0.81668   0.64550   0.12508   0.00000  Uiso   1.00
C236   C     0.84997   0.35450   0.20825   0.00000  Uiso   1.00
H237   H     0.80288   0.62947   0.09289   0.00000  Uiso   1.00
H238   H     0.86377   0.37053   0.24045   0.00000  Uiso   1.00
C239   C     0.83345   0.62388   0.16649   0.00000  Uiso   1.00
C240   C     0.83320   0.37612   0.16685   0.00000  Uiso   1.00
C241   C     0.80788   0.46991   0.02248   0.00000  Uiso   1.00
C242   C     0.85879   0.53009   0.31085   0.00000  Uiso   1.00
H243   H     0.78722   0.44595   0.03918   0.00000  Uiso   1.00
H244   H     0.87946   0.55405   0.29416   0.00000  Uiso   1.00
C245   C     0.80761   0.46969   0.30644   0.00000  Uiso   1.00
C246   C     0.85907   0.53030   0.02690   0.00000  Uiso   1.00
N247   N     0.78023   0.43692   0.28075   0.00000  Uiso   1.00
O248   O     0.73437   0.44352   0.25906   0.00000  Uiso   1.00
O249   O     0.79331   0.39912   0.29120   0.00000  Uiso   1.00
N250   N     0.88651   0.56304   0.05260   0.00000  Uiso   1.00
O251   O     0.87338   0.60085   0.04226   0.00000  Uiso   1.00
O252   O     0.93243   0.55641   0.07415   0.00000  Uiso   1.00
O253   O     0.16666   0.77322   0.20625   0.00000  Uiso   1.00
O254   O     0.16667   0.89345   0.12709   0.00000  Uiso   1.00
O255   O     0.16666   0.77321   0.12706   0.00000  Uiso   1.00
O256   O     0.16667   0.89346   0.20628   0.00000  Uiso   1.00
C257   C     0.16660   0.75409   0.16679   0.00000  Uiso   1.00
C258   C     0.16673   0.91257   0.16654   0.00000  Uiso   1.00
O259   O     0.09161   0.83334   0.19712   0.00000  Uiso   1.00
O260   O     0.24172   0.83333   0.13621   0.00000  Uiso   1.00
O261   O     0.09161   0.83333   0.11793   0.00000  Uiso   1.00
O262   O     0.24172   0.83334   0.21540   0.00000  Uiso   1.00
C263   C     0.06803   0.83309   0.15471   0.00000  Uiso   1.00
C264   C     0.26531   0.83357   0.17862   0.00000  Uiso   1.00
Cu265  Cu    0.16667   0.83334   0.21355   0.00000  Uiso   1.00
Cu266  Cu    0.16667   0.83333   0.11978   0.00000  Uiso   1.00
N267   N     0.16668   0.83334   0.28403   0.00000  Uiso   1.00
N268   N     0.16665   0.83332   0.04931   0.00000  Uiso   1.00
C269   C     0.01281   0.83222   0.14815   0.00000  Uiso   1.00
C270   C     0.32053   0.83444   0.18518   0.00000  Uiso   1.00
H271   H     0.32649   0.82943   0.11257   0.00000  Uiso   1.00
H272   H     0.00684   0.83723   0.22076   0.00000  Uiso   1.00
C273   C     0.15002   0.68818   0.12521   0.00000  Uiso   1.00
C274   C     0.18330   0.97848   0.20812   0.00000  Uiso   1.00
H275   H     0.13659   0.70448   0.09295   0.00000  Uiso   1.00
H276   H     0.19673   0.96219   0.24038   0.00000  Uiso   1.00
C277   C     0.15002   0.97883   0.12508   0.00000  Uiso   1.00
C278   C     0.18330   0.68783   0.20825   0.00000  Uiso   1.00
H279   H     0.13621   0.96280   0.09289   0.00000  Uiso   1.00
H280   H     0.19710   0.70387   0.24045   0.00000  Uiso   1.00
C281   C     0.16678   0.95721   0.16649   0.00000  Uiso   1.00
C282   C     0.16654   0.70945   0.16685   0.00000  Uiso   1.00
C283   C     0.14121   0.80324   0.02248   0.00000  Uiso   1.00
C284   C     0.19212   0.86343   0.31085   0.00000  Uiso   1.00
H285   H     0.12055   0.77928   0.03918   0.00000  Uiso   1.00
H286   H     0.21279   0.88738   0.29416   0.00000  Uiso   1.00
C287   C     0.14094   0.80303   0.30644   0.00000  Uiso   1.00
C288   C     0.19241   0.86363   0.02690   0.00000  Uiso   1.00
N289   N     0.11356   0.77025   0.28075   0.00000  Uiso   1.00
O290   O     0.06770   0.77685   0.25906   0.00000  Uiso   1.00
O291   O     0.12664   0.73245   0.29120   0.00000  Uiso   1.00
N292   N     0.21984   0.89637   0.05260   0.00000  Uiso   1.00
O293   O     0.20671   0.93418   0.04226   0.00000  Uiso   1.00
O294   O     0.26576   0.88975   0.07415   0.00000  Uiso   1.00
O295   O     0.50000   0.77322   0.20625   0.00000  Uiso   1.00
O296   O     0.50000   0.89345   0.12709   0.00000  Uiso   1.00
O297   O     0.50000   0.77321   0.12706   0.00000  Uiso   1.00
O298   O     0.50000   0.89346   0.20628   0.00000  Uiso   1.00
C299   C     0.49993   0.75409   0.16679   0.00000  Uiso   1.00
C300   C     0.50006   0.91257   0.16654   0.00000  Uiso   1.00
O301   O     0.42495   0.83334   0.19712   0.00000  Uiso   1.00
O302   O     0.57505   0.83333   0.13621   0.00000  Uiso   1.00
O303   O     0.42494   0.83333   0.11793   0.00000  Uiso   1.00
O304   O     0.57506   0.83334   0.21540   0.00000  Uiso   1.00
C305   C     0.40136   0.83309   0.15471   0.00000  Uiso   1.00
C306   C     0.59864   0.83357   0.17862   0.00000  Uiso   1.00
Cu307  Cu    0.50000   0.83334   0.21355   0.00000  Uiso   1.00
Cu308  Cu    0.50000   0.83333   0.11978   0.00000  Uiso   1.00
N309   N     0.50001   0.83334   0.28403   0.00000  Uiso   1.00
N310   N     0.49999   0.83332   0.04931   0.00000  Uiso   1.00
C311   C     0.34614   0.83222   0.14815   0.00000  Uiso   1.00
C312   C     0.65386   0.83444   0.18518   0.00000  Uiso   1.00
H313   H     0.65983   0.82943   0.11257   0.00000  Uiso   1.00
H314   H     0.34017   0.83723   0.22076   0.00000  Uiso   1.00
C315   C     0.48335   0.68818   0.12521   0.00000  Uiso   1.00
C316   C     0.51663   0.97848   0.20812   0.00000  Uiso   1.00
H317   H     0.46993   0.70448   0.09295   0.00000  Uiso   1.00
H318   H     0.53006   0.96219   0.24038   0.00000  Uiso   1.00
C319   C     0.48335   0.97883   0.12508   0.00000  Uiso   1.00
C320   C     0.51663   0.68783   0.20825   0.00000  Uiso   1.00
H321   H     0.46954   0.96280   0.09289   0.00000  Uiso   1.00
H322   H     0.53043   0.70387   0.24045   0.00000  Uiso   1.00
C323   C     0.50012   0.95721   0.16649   0.00000  Uiso   1.00
C324   C     0.49987   0.70945   0.16685   0.00000  Uiso   1.00
C325   C     0.47455   0.80324   0.02248   0.00000  Uiso   1.00
C326   C     0.52546   0.86343   0.31085   0.00000  Uiso   1.00
H327   H     0.45389   0.77928   0.03918   0.00000  Uiso   1.00
H328   H     0.54612   0.88738   0.29416   0.00000  Uiso   1.00
C329   C     0.47427   0.80303   0.30644   0.00000  Uiso   1.00
C330   C     0.52574   0.86363   0.02690   0.00000  Uiso   1.00
N331   N     0.44690   0.77025   0.28075   0.00000  Uiso   1.00
O332   O     0.40104   0.77685   0.25906   0.00000  Uiso   1.00
O333   O     0.45997   0.73245   0.29120   0.00000  Uiso   1.00
N334   N     0.55317   0.89637   0.05260   0.00000  Uiso   1.00
O335   O     0.54005   0.93418   0.04226   0.00000  Uiso   1.00
O336   O     0.59910   0.88975   0.07415   0.00000  Uiso   1.00
O337   O     0.83333   0.77322   0.20625   0.00000  Uiso   1.00
O338   O     0.83334   0.89345   0.12709   0.00000  Uiso   1.00
O339   O     0.83333   0.77321   0.12706   0.00000  Uiso   1.00
O340   O     0.83334   0.89346   0.20628   0.00000  Uiso   1.00
C341   C     0.83327   0.75409   0.16679   0.00000  Uiso   1.00
C342   C     0.83340   0.91257   0.16654   0.00000  Uiso   1.00
O343   O     0.75828   0.83334   0.19712   0.00000  Uiso   1.00
O344   O     0.90839   0.83333   0.13621   0.00000  Uiso   1.00
O345   O     0.75828   0.83333   0.11793   0.00000  Uiso   1.00
O346   O     0.90839   0.83334   0.21540   0.00000  Uiso   1.00
C347   C     0.73469   0.83309   0.15471   0.00000  Uiso   1.00
C348   C     0.93197   0.83357   0.17862   0.00000  Uiso   1.00
Cu349  Cu    0.83333   0.83334   0.21355   0.00000  Uiso   1.00
Cu350  Cu    0.83333   0.83333   0.11978   0.00000  Uiso   1.00
N351   N     0.83335   0.83334   0.28403   0.00000  Uiso   1.00
N352   N     0.83332   0.83332   0.04931   0.00000  Uiso   1.00
C353   C     0.67947   0.83222   0.14815   0.00000  Uiso   1.00
C354   C     0.98719   0.83444   0.18518   0.00000  Uiso   1.00
H355   H     0.99316   0.82943   0.11257   0.00000  Uiso   1.00
H356   H     0.67351   0.83723   0.22076   0.00000  Uiso   1.00
C357   C     0.81669   0.68818   0.12521   0.00000  Uiso   1.00
C358   C     0.84996   0.97848   0.20812   0.00000  Uiso   1.00
H359   H     0.80326   0.70448   0.09295   0.00000  Uiso   1.00
H360   H     0.86339   0.96219   0.24038   0.00000  Uiso   1.00
C361   C     0.81668   0.97883   0.12508   0.00000  Uiso   1.00
C362   C     0.84997   0.68783   0.20825   0.00000  Uiso   1.00
H363   H     0.80288   0.96280   0.09289   0.00000  Uiso   1.00
H364   H     0.86377   0.70387   0.24045   0.00000  Uiso   1.00
C365   C     0.83345   0.95721   0.16649   0.00000  Uiso   1.00
C366   C     0.83320   0.70945   0.16685   0.00000  Uiso   1.00
C367   C     0.80788   0.80324   0.02248   0.00000  Uiso   1.00
C368   C     0.85879   0.86343   0.31085   0.00000  Uiso   1.00
H369   H     0.78722   0.77928   0.03918   0.00000  Uiso   1.00
H370   H     0.87946   0.88738   0.29416   0.00000  Uiso   1.00
C371   C     0.80761   0.80303   0.30644   0.00000  Uiso   1.00
C372   C     0.85907   0.86363   0.02690   0.00000  Uiso   1.00
N373   N     0.78023   0.77025   0.28075   0.00000  Uiso   1.00
O374   O     0.73437   0.77685   0.25906   0.00000  Uiso   1.00
O375   O     0.79331   0.73245   0.29120   0.00000  Uiso   1.00
N376   N     0.88651   0.89637   0.05260   0.00000  Uiso   1.00
O377   O     0.87338   0.93418   0.04226   0.00000  Uiso   1.00
O378   O     0.93243   0.88975   0.07415   0.00000  Uiso   1.00
O379   O     0.16666   0.10655   0.53958   0.00000  Uiso   1.00
O380   O     0.16667   0.22678   0.46042   0.00000  Uiso   1.00
O381   O     0.16666   0.10654   0.46039   0.00000  Uiso   1.00
O382   O     0.16667   0.22679   0.53961   0.00000  Uiso   1.00
C383   C     0.16660   0.08743   0.50013   0.00000  Uiso   1.00
C384   C     0.16673   0.24591   0.49987   0.00000  Uiso   1.00
O385   O     0.09161   0.16667   0.53046   0.00000  Uiso   1.00
O386   O     0.24172   0.16666   0.46954   0.00000  Uiso   1.00
O387   O     0.09161   0.16666   0.45127   0.00000  Uiso   1.00
O388   O     0.24172   0.16667   0.54873   0.00000  Uiso   1.00
C389   C     0.06803   0.16642   0.48804   0.00000  Uiso   1.00
C390   C     0.26531   0.16690   0.51196   0.00000  Uiso   1.00
Cu391  Cu    0.16667   0.16667   0.54689   0.00000  Uiso   1.00
Cu392  Cu    0.16667   0.16666   0.45311   0.00000  Uiso   1.00
N393   N     0.16668   0.16668   0.61736   0.00000  Uiso   1.00
N394   N     0.16665   0.16666   0.38264   0.00000  Uiso   1.00
C395   C     0.01281   0.16555   0.48149   0.00000  Uiso   1.00
C396   C     0.32053   0.16777   0.51851   0.00000  Uiso   1.00
H397   H     0.32649   0.16276   0.44590   0.00000  Uiso   1.00
H398   H     0.00684   0.17056   0.55410   0.00000  Uiso   1.00
C399   C     0.15002   0.02152   0.45855   0.00000  Uiso   1.00
C400   C     0.18330   0.31182   0.54145   0.00000  Uiso   1.00
H401   H     0.13659   0.03781   0.42628   0.00000  Uiso   1.00
H402   H     0.19673   0.29552   0.57372   0.00000  Uiso   1.00
C403   C     0.15002   0.31217   0.45842   0.00000  Uiso   1.00
C404   C     0.18330   0.02117   0.54159   0.00000  Uiso   1.00
H405   H     0.13621   0.29613   0.42622   0.00000  Uiso   1.00
H406   H     0.19710   0.03720   0.57378   0.00000  Uiso   1.00
C407   C     0.16678   0.29055   0.49982   0.00000  Uiso   1.00
C408   C     0.16654   0.04279   0.50018   0.00000  Uiso   1.00
C409   C     0.14121   0.13657   0.35582   0.00000  Uiso   1.00
C410   C     0.19212   0.19676   0.64418   0.00000  Uiso   1.00
H411   H     0.12055   0.11261   0.37251   0.00000  Uiso   1.00
H412   H     0.21279   0.22072   0.62749   0.00000  Uiso   1.00
C413   C     0.14094   0.13636   0.63977   0.00000  Uiso   1.00
C414   C     0.19241   0.19696   0.36023   0.00000  Uiso   1.00
N415   N     0.11356   0.10359   0.61408   0.00000  Uiso   1.00
O416   O     0.06770   0.11019   0.59239   0.00000  Uiso   1.00
O417   O     0.12664   0.06579   0.62454   0.00000  Uiso   1.00
N418   N     0.21984   0.22970   0.38593   0.00000  Uiso   1.00
O419   O     0.20671   0.26751   0.37559   0.00000  Uiso   1.00
O420   O     0.26576   0.22308   0.40748   0.00000  Uiso   1.00
O421   O     0.50000   0.10655   0.53958   0.00000  Uiso   1.00
O422   O     0.50000   0.22678   0.46042   0.00000  Uiso   1.00
O423   O     0.50000   0.10654   0.46039   0.00000  Uiso   1.00
O424   O     0.50000   0.22679   0.53961   0.00000  Uiso   1.00
C425   C     0.49993   0.08743   0.50013   0.00000  Uiso   1.00
C426   C     0.50006   0.24591   0.49987   0.00000  Uiso   1.00
O427   O     0.42495   0.16667   0.53046   0.00000  Uiso   1.00
O428   O     0.57505   0.16666   0.46954   0.00000  Uiso   1.00
O429   O     0.42494   0.16666   0.45127   0.00000  Uiso   1.00
O430   O     0.57506   0.16667   0.54873   0.00000  Uiso   1.00
C431   C     0.40136   0.16642   0.48804   0.00000  Uiso   1.00
C432   C     0.59864   0.16690   0.51196   0.00000  Uiso   1.00
Cu433  Cu    0.50000   0.16667   0.54689   0.00000  Uiso   1.00
Cu434  Cu    0.50000   0.16666   0.45311   0.00000  Uiso   1.00
N435   N     0.50001   0.16668   0.61736   0.00000  Uiso   1.00
N436   N     0.49999   0.16666   0.38264   0.00000  Uiso   1.00
C437   C     0.34614   0.16555   0.48149   0.00000  Uiso   1.00
C438   C     0.65386   0.16777   0.51851   0.00000  Uiso   1.00
H439   H     0.65983   0.16276   0.44590   0.00000  Uiso   1.00
H440   H     0.34017   0.17056   0.55410   0.00000  Uiso   1.00
C441   C     0.48335   0.02152   0.45855   0.00000  Uiso   1.00
C442   C     0.51663   0.31182   0.54145   0.00000  Uiso   1.00
H443   H     0.46993   0.03781   0.42628   0.00000  Uiso   1.00
H444   H     0.53006   0.29552   0.57372   0.00000  Uiso   1.00
C445   C     0.48335   0.31217   0.45842   0.00000  Uiso   1.00
C446   C     0.51663   0.02117   0.54159   0.00000  Uiso   1.00
H447   H     0.46954   0.29613   0.42622   0.00000  Uiso   1.00
H448   H     0.53043   0.03720   0.57378   0.00000  Uiso   1.00
C449   C     0.50012   0.29055   0.49982   0.00000  Uiso   1.00
C450   C     0.49987   0.04279   0.50018   0.00000  Uiso   1.00
C451   C     0.47455   0.13657   0.35582   0.00000  Uiso   1.00
C452   C     0.52546   0.19676   0.64418   0.00000  Uiso   1.00
H453   H     0.45389   0.11261   0.37251   0.00000  Uiso   1.00
H454   H     0.54612   0.22072   0.62749   0.00000  Uiso   1.00
C455   C     0.47427   0.13636   0.63977   0.00000  Uiso   1.00
C456   C     0.52574   0.19696   0.36023   0.00000  Uiso   1.00
N457   N     0.44690   0.10359   0.61408   0.00000  Uiso   1.00
O458   O     0.40104   0.11019   0.59239   0.00000  Uiso   1.00
O459   O     0.45997   0.06579   0.62454   0.00000  Uiso   1.00
N460   N     0.55317   0.22970   0.38593   0.00000  Uiso   1.00
O461   O     0.54005   0.26751   0.37559   0.00000  Uiso   1.00
O462   O     0.59910   0.22308   0.40748   0.00000  Uiso   1.00
O463   O     0.83333   0.10655   0.53958   0.00000  Uiso   1.00
O464   O     0.83334   0.22678   0.46042   0.00000  Uiso   1.00
O465   O     0.83333   0.10654   0.46039   0.00000  Uiso   1.00
O466   O     0.83334   0.22679   0.53961   0.00000  Uiso   1.00
C467   C     0.83327   0.08743   0.50013   0.00000  Uiso   1.00
C468   C     0.83340   0.24591   0.49987   0.00000  Uiso   1.00
O469   O     0.75828   0.16667   0.53046   0.00000  Uiso   1.00
O470   O     0.90839   0.16666   0.46954   0.00000  Uiso   1.00
O471   O     0.75828   0.16666   0.45127   0.00000  Uiso   1.00
O472   O     0.90839   0.16667   0.54873   0.00000  Uiso   1.00
C473   C     0.73469   0.16642   0.48804   0.00000  Uiso   1.00
C474   C     0.93197   0.16690   0.51196   0.00000  Uiso   1.00
Cu475  Cu    0.83333   0.16667   0.54689   0.00000  Uiso   1.00
Cu476  Cu    0.83333   0.16666   0.45311   0.00000  Uiso   1.00
N477   N     0.83335   0.16668   0.61736   0.00000  Uiso   1.00
N478   N     0.83332   0.16666   0.38264   0.00000  Uiso   1.00
C479   C     0.67947   0.16555   0.48149   0.00000  Uiso   1.00
C480   C     0.98719   0.16777   0.51851   0.00000  Uiso   1.00
H481   H     0.99316   0.16276   0.44590   0.00000  Uiso   1.00
H482   H     0.67351   0.17056   0.55410   0.00000  Uiso   1.00
C483   C     0.81669   0.02152   0.45855   0.00000  Uiso   1.00
C484   C     0.84996   0.31182   0.54145   0.00000  Uiso   1.00
H485   H     0.80326   0.03781   0.42628   0.00000  Uiso   1.00
H486   H     0.86339   0.29552   0.57372   0.00000  Uiso   1.00
C487   C     0.81668   0.31217   0.45842   0.00000  Uiso   1.00
C488   C     0.84997   0.02117   0.54159   0.00000  Uiso   1.00
H489   H     0.80288   0.29613   0.42622   0.00000  Uiso   1.00
H490   H     0.86377   0.03720   0.57378   0.00000  Uiso   1.00
C491   C     0.83345   0.29055   0.49982   0.00000  Uiso   1.00
C492   C     0.83320   0.04279   0.50018   0.00000  Uiso   1.00
C493   C     0.80788   0.13657   0.35582   0.00000  Uiso   1.00
C494   C     0.85879   0.19676   0.64418   0.00000  Uiso   1.00
H495   H     0.78722   0.11261   0.37251   0.00000  Uiso   1.00
H496   H     0.87946   0.22072   0.62749   0.00000  Uiso   1.00
C497   C     0.80761   0.13636   0.63977   0.00000  Uiso   1.00
C498   C     0.85907   0.19696   0.36023   0.00000  Uiso   1.00
N499   N     0.78023   0.10359   0.61408   0.00000  Uiso   1.00
O500   O     0.73437   0.11019   0.59239   0.00000  Uiso   1.00
O501   O     0.79331   0.06579   0.62454   0.00000  Uiso   1.00
N502   N     0.88651   0.22970   0.38593   0.00000  Uiso   1.00
O503   O     0.87338   0.26751   0.37559   0.00000  Uiso   1.00
O504   O     0.93243   0.22308   0.40748   0.00000  Uiso   1.00
O505   O     0.16666   0.43989   0.53958   0.00000  Uiso   1.00
O506   O     0.16667   0.56011   0.46042   0.00000  Uiso   1.00
O507   O     0.16666   0.43988   0.46039   0.00000  Uiso   1.00
O508   O     0.16667   0.56012   0.53961   0.00000  Uiso   1.00
C509   C     0.16660   0.42076   0.50013   0.00000  Uiso   1.00
C510   C     0.16673   0.57924   0.49987   0.00000  Uiso   1.00
O511   O     0.09161   0.50000   0.53046   0.00000  Uiso   1.00
O512   O     0.24172   0.50000   0.46954   0.00000  Uiso   1.00
O513   O     0.09161   0.49999   0.45127   0.00000  Uiso   1.00
O514   O     0.24172   0.50001   0.54873   0.00000  Uiso   1.00
C515   C     0.06803   0.49976   0.48804   0.00000  Uiso   1.00
C516   C     0.26531   0.50024   0.51196   0.00000  Uiso   1.00
Cu517  Cu    0.16667   0.50001   0.54689   0.00000  Uiso   1.00
Cu518  Cu    0.16667   0.49999   0.45311   0.00000  Uiso   1.00
N519   N     0.16668   0.50001   0.61736   0.00000  Uiso   1.00
N520   N     0.16665   0.49999   0.38264   0.00000  Uiso   1.00
C521   C     0.01281   0.49889   0.48149   0.00000  Uiso   1.00
C522   C     0.32053   0.50110   0.51851   0.00000  Uiso   1.00
H523   H     0.32649   0.49609   0.44590   0.00000  Uiso   1.00
H524   H     0.00684   0.50389   0.55410   0.00000  Uiso   1.00
C525   C     0.15002   0.35485   0.45855   0.00000  Uiso   1.00
C526   C     0.18330   0.64515   0.54145   0.00000  Uiso   1.00
H527   H     0.13659   0.37115   0.42628   0.00000  Uiso   1.00
H528   H     0.19673   0.62885   0.57372   0.00000  Uiso   1.00
C529   C     0.15002   0.64550   0.45842   0.00000  Uiso   1.00
C530   C     0.18330   0.35450   0.54159   0.00000  Uiso   1.00
H531   H     0.13621   0.62947   0.42622   0.00000  Uiso   1.00
H532   H     0.19710   0.37053   0.57378   0.00000  Uiso   1.00
C533   C     0.16678   0.62388   0.49982   0.00000  Uiso   1.00
C534   C     0.16654   0.37612   0.50018   0.00000  Uiso   1.00
C535   C     0.14121   0.46991   0.35582   0.00000  Uiso   1.00
C536   C     0.19212   0.53009   0.64418   0.00000  Uiso   1.00
H537   H     0.12055   0.44595   0.37251   0.00000  Uiso   1.00
H538   H     0.21279   0.55405   0.62749   0.00000  Uiso   1.00
C539   C     0.14094   0.46969   0.63977   0.00000  Uiso   1.00
C540   C     0.19241   0.53030   0.36023   0.00000  Uiso   1.00
N541   N     0.11356   0.43692   0.61408   0.00000  Uiso   1.00
O542   O     0.06770   0.44352   0.59239   0.00000  Uiso   1.00
O543   O     0.12664   0.39912   0.62454   0.00000  Uiso   1.00
N544   N     0.21984   0.56304   0.38593   0.00000  Uiso   1.00
O545   O     0.20671   0.60085   0.37559   0.00000  Uiso   1.00
O546   O     0.26576   0.55641   0.40748   0.00000  Uiso   1.00
O547   O     0.50000   0.43989   0.53958   0.00000  Uiso   1.00
O548   O     0.50000   0.56011   0.46042   0.00000  Uiso   1.00
O549   O     0.50000   0.43988   0.46039   0.00000  Uiso   1.00
O550   O     0.50000   0.56012   0.53961   0.00000  Uiso   1.00
C551   C     0.49993   0.42076   0.50013   0.00000  Uiso   1.00
C552   C     0.50006   0.57924   0.49987   0.00000  Uiso   1.00
O553   O     0.42495   0.50000   0.53046   0.00000  Uiso   1.00
O554   O     0.57505   0.50000   0.46954   0.00000  Uiso   1.00
O555   O     0.42494   0.49999   0.45127   0.00000  Uiso   1.00
O556   O     0.57506   0.50001   0.54873   0.00000  Uiso   1.00
C557   C     0.40136   0.49976   0.48804   0.00000  Uiso   1.00
C558   C     0.59864   0.50024   0.51196   0.00000  Uiso   1.00
Cu559  Cu    0.50000   0.50001   0.54689   0.00000  Uiso   1.00
Cu560  Cu    0.50000   0.49999   0.45311   0.00000  Uiso   1.00
N561   N     0.50001   0.50001   0.61736   0.00000  Uiso   1.00
N562   N     0.49999   0.49999   0.38264   0.00000  Uiso   1.00
C563   C     0.34614   0.49889   0.48149   0.00000  Uiso   1.00
C564   C     0.65386   0.50110   0.51851   0.00000  Uiso   1.00
H565   H     0.65983   0.49609   0.44590   0.00000  Uiso   1.00
H566   H     0.34017   0.50389   0.55410   0.00000  Uiso   1.00
C567   C     0.48335   0.35485   0.45855   0.00000  Uiso   1.00
C568   C     0.51663   0.64515   0.54145   0.00000  Uiso   1.00
H569   H     0.46993   0.37115   0.42628   0.00000  Uiso   1.00
H570   H     0.53006   0.62885   0.57372   0.00000  Uiso   1.00
C571   C     0.48335   0.64550   0.45842   0.00000  Uiso   1.00
C572   C     0.51663   0.35450   0.54159   0.00000  Uiso   1.00
H573   H     0.46954   0.62947   0.42622   0.00000  Uiso   1.00
H574   H     0.53043   0.37053   0.57378   0.00000  Uiso   1.00
C575   C     0.50012   0.62388   0.49982   0.00000  Uiso   1.00
C576   C     0.49987   0.37612   0.50018   0.00000  Uiso   1.00
C577   C     0.47455   0.46991   0.35582   0.00000  Uiso   1.00
C578   C     0.52546   0.53009   0.64418   0.00000  Uiso   1.00
H579   H     0.45389   0.44595   0.37251   0.00000  Uiso   1.00
H580   H     0.54612   0.55405   0.62749   0.00000  Uiso   1.00
C581   C     0.47427   0.46969   0.63977   0.00000  Uiso   1.00
C582   C     0.52574   0.53030   0.36023   0.00000  Uiso   1.00
N583   N     0.44690   0.43692   0.61408   0.00000  Uiso   1.00
O584   O     0.40104   0.44352   0.59239   0.00000  Uiso   1.00
O585   O     0.45997   0.39912   0.62454   0.00000  Uiso   1.00
N586   N     0.55317   0.56304   0.38593   0.00000  Uiso   1.00
O587   O     0.54005   0.60085   0.37559   0.00000  Uiso   1.00
O588   O     0.59910   0.55641   0.40748   0.00000  Uiso   1.00
O589   O     0.83333   0.43989   0.53958   0.00000  Uiso   1.00
O590   O     0.83334   0.56011   0.46042   0.00000  Uiso   1.00
O591   O     0.83333   0.43988   0.46039   0.00000  Uiso   1.00
O592   O     0.83334   0.56012   0.53961   0.00000  Uiso   1.00
C593   C     0.83327   0.42076   0.50013   0.00000  Uiso   1.00
C594   C     0.83340   0.57924   0.49987   0.00000  Uiso   1.00
O595   O     0.75828   0.50000   0.53046   0.00000  Uiso   1.00
O596   O     0.90839   0.50000   0.46954   0.00000  Uiso   1.00
O597   O     0.75828   0.49999   0.45127   0.00000  Uiso   1.00
O598   O     0.90839   0.50001   0.54873   0.00000  Uiso   1.00
C599   C     0.73469   0.49976   0.48804   0.00000  Uiso   1.00
C600   C     0.93197   0.50024   0.51196   0.00000  Uiso   1.00
Cu601  Cu    0.83333   0.50001   0.54689   0.00000  Uiso   1.00
Cu602  Cu    0.83333   0.49999   0.45311   0.00000  Uiso   1.00
N603   N     0.83335   0.50001   0.61736   0.00000  Uiso   1.00
N604   N     0.83332   0.49999   0.38264   0.00000  Uiso   1.00
C605   C     0.67947   0.49889   0.48149   0.00000  Uiso   1.00
C606   C     0.98719   0.50110   0.51851   0.00000  Uiso   1.00
H607   H     0.99316   0.49609   0.44590   0.00000  Uiso   1.00
H608   H     0.67351   0.50389   0.55410   0.00000  Uiso   1.00
C609   C     0.81669   0.35485   0.45855   0.00000  Uiso   1.00
C610   C     0.84996   0.64515   0.54145   0.00000  Uiso   1.00
H611   H     0.80326   0.37115   0.42628   0.00000  Uiso   1.00
H612   H     0.86339   0.62885   0.57372   0.00000  Uiso   1.00
C613   C     0.81668   0.64550   0.45842   0.00000  Uiso   1.00
C614   C     0.84997   0.35450   0.54159   0.00000  Uiso   1.00
H615   H     0.80288   0.62947   0.42622   0.00000  Uiso   1.00
H616   H     0.86377   0.37053   0.57378   0.00000  Uiso   1.00
C617   C     0.83345   0.62388   0.49982   0.00000  Uiso   1.00
C618   C     0.83320   0.37612   0.50018   0.00000  Uiso   1.00
C619   C     0.80788   0.46991   0.35582   0.00000  Uiso   1.00
C620   C     0.85879   0.53009   0.64418   0.00000  Uiso   1.00
H621   H     0.78722   0.44595   0.37251   0.00000  Uiso   1.00
H622   H     0.87946   0.55405   0.62749   0.00000  Uiso   1.00
C623   C     0.80761   0.46969   0.63977   0.00000  Uiso   1.00
C624   C     0.85907   0.53030   0.36023   0.00000  Uiso   1.00
N625   N     0.78023   0.43692   0.61408   0.00000  Uiso   1.00
O626   O     0.73437   0.44352   0.59239   0.00000  Uiso   1.00
O627   O     0.79331   0.39912   0.62454   0.00000  Uiso   1.00
N628   N     0.88651   0.56304   0.38593   0.00000  Uiso   1.00
O629   O     0.87338   0.60085   0.37559   0.00000  Uiso   1.00
O630   O     0.93243   0.55641   0.40748   0.00000  Uiso   1.00
O631   O     0.16666   0.77322   0.53958   0.00000  Uiso   1.00
O632   O     0.16667   0.89345   0.46042   0.00000  Uiso   1.00
O633   O     0.16666   0.77321   0.46039   0.00000  Uiso   1.00
O634   O     0.16667   0.89346   0.53961   0.00000  Uiso   1.00
C635   C     0.16660   0.75409   0.50013   0.00000  Uiso   1.00
C636   C     0.16673   0.91257   0.49987   0.00000  Uiso   1.00
O637   O     0.09161   0.83334   0.53046   0.00000  Uiso   1.00
O638   O     0.24172   0.83333   0.46954   0.00000  Uiso   1.00
O639   O     0.09161   0.83333   0.45127   0.00000  Uiso   1.00
O640   O     0.24172   0.83334   0.54873   0.00000  Uiso   1.00
C641   C     0.06803   0.83309   0.48804   0.00000  Uiso   1.00
C642   C     0.26531   0.83357   0.51196   0.00000  Uiso   1.00
Cu643  Cu    0.16667   0.83334   0.54689   0.00000  Uiso   1.00
Cu644  Cu    0.16667   0.83333   0.45311   0.00000  Uiso   1.00
N645   N     0.16668   0.83334   0.61736   0.00000  Uiso   1.00
N646   N     0.16665   0.83332   0.38264   0.00000  Uiso   1.00
C647   C     0.01281   0.83222   0.48149   0.00000  Uiso   1.00
C648   C     0.32053   0.83444   0.51851   0.00000  Uiso   1.00
H649   H     0.32649   0.82943   0.44590   0.00000  Uiso   1.00
H650   H     0.00684   0.83723   0.55410   0.00000  Uiso   1.00
C651   C     0.15002   0.68818   0.45855   0.00000  Uiso   1.00
C652   C     0.18330   0.97848   0.54145   0.00000  Uiso   1.00
H653   H     0.13659   0.70448   0.42628   0.00000  Uiso   1.00
H654   H     0.19673   0.96219   0.57372   0.00000  Uiso   1.00
C655   C     0.15002   0.97883   0.45842   0.00000  Uiso   1.00
C656   C     0.18330   0.68783   0.54159   0.00000  Uiso   1.00
H657   H     0.13621   0.96280   0.42622   0.00000  Uiso   1.00
H658   H     0.19710   0.70387   0.57378   0.00000  Uiso   1.00
C659   C     0.16678   0.95721   0.49982   0.00000  Uiso   1.00
C660   C     0.16654   0.70945   0.50018   0.00000  Uiso   1.00
C661   C     0.14121   0.80324   0.35582   0.00000  Uiso   1.00
C662   C     0.19212   0.86343   0.64418   0.00000  Uiso   1.00
H663   H     0.12055   0.77928   0.37251   0.00000  Uiso   1.00
H664   H     0.21279   0.88738   0.62749   0.00000  Uiso   1.00
C665   C     0.14094   0.80303   0.63977   0.00000  Uiso   1.00
C666   C     0.19241   0.86363   0.36023   0.00000  Uiso   1.00
N667   N     0.11356   0.77025   0.61408   0.00000  Uiso   1.00
O668   O     0.06770   0.77685   0.59239   0.00000  Uiso   1.00
O669   O     0.12664   0.73245   0.62454   0.00000  Uiso   1.00
N670   N     0.21984   0.89637   0.38593   0.00000  Uiso   1.00
O671   O     0.20671   0.93418   0.37559   0.00000  Uiso   1.00
O672   O     0.26576   0.88975   0.40748   0.00000  Uiso   1.00
O673   O     0.50000   0.77322   0.53958   0.00000  Uiso   1.00
O674   O     0.50000   0.89345   0.46042   0.00000  Uiso   1.00
O675   O     0.50000   0.77321   0.46039   0.00000  Uiso   1.00
O676   O     0.50000   0.89346   0.53961   0.00000  Uiso   1.00
C677   C     0.49993   0.75409   0.50013   0.00000  Uiso   1.00
C678   C     0.50006   0.91257   0.49987   0.00000  Uiso   1.00
O679   O     0.42495   0.83334   0.53046   0.00000  Uiso   1.00
O680   O     0.57505   0.83333   0.46954   0.00000  Uiso   1.00
O681   O     0.42494   0.83333   0.45127   0.00000  Uiso   1.00
O682   O     0.57506   0.83334   0.54873   0.00000  Uiso   1.00
C683   C     0.40136   0.83309   0.48804   0.00000  Uiso   1.00
C684   C     0.59864   0.83357   0.51196   0.00000  Uiso   1.00
Cu685  Cu    0.50000   0.83334   0.54689   0.00000  Uiso   1.00
Cu686  Cu    0.50000   0.83333   0.45311   0.00000  Uiso   1.00
N687   N     0.50001   0.83334   0.61736   0.00000  Uiso   1.00
N688   N     0.49999   0.83332   0.38264   0.00000  Uiso   1.00
C689   C     0.34614   0.83222   0.48149   0.00000  Uiso   1.00
C690   C     0.65386   0.83444   0.51851   0.00000  Uiso   1.00
H691   H     0.65983   0.82943   0.44590   0.00000  Uiso   1.00
H692   H     0.34017   0.83723   0.55410   0.00000  Uiso   1.00
C693   C     0.48335   0.68818   0.45855   0.00000  Uiso   1.00
C694   C     0.51663   0.97848   0.54145   0.00000  Uiso   1.00
H695   H     0.46993   0.70448   0.42628   0.00000  Uiso   1.00
H696   H     0.53006   0.96219   0.57372   0.00000  Uiso   1.00
C697   C     0.48335   0.97883   0.45842   0.00000  Uiso   1.00
C698   C     0.51663   0.68783   0.54159   0.00000  Uiso   1.00
H699   H     0.46954   0.96280   0.42622   0.00000  Uiso   1.00
H700   H     0.53043   0.70387   0.57378   0.00000  Uiso   1.00
C701   C     0.50012   0.95721   0.49982   0.00000  Uiso   1.00
C702   C     0.49987   0.70945   0.50018   0.00000  Uiso   1.00
C703   C     0.47455   0.80324   0.35582   0.00000  Uiso   1.00
C704   C     0.52546   0.86343   0.64418   0.00000  Uiso   1.00
H705   H     0.45389   0.77928   0.37251   0.00000  Uiso   1.00
H706   H     0.54612   0.88738   0.62749   0.00000  Uiso   1.00
C707   C     0.47427   0.80303   0.63977   0.00000  Uiso   1.00
C708   C     0.52574   0.86363   0.36023   0.00000  Uiso   1.00
N709   N     0.44690   0.77025   0.61408   0.00000  Uiso   1.00
O710   O     0.40104   0.77685   0.59239   0.00000  Uiso   1.00
O711   O     0.45997   0.73245   0.62454   0.00000  Uiso   1.00
N712   N     0.55317   0.89637   0.38593   0.00000  Uiso   1.00
O713   O     0.54005   0.93418   0.37559   0.00000  Uiso   1.00
O714   O     0.59910   0.88975   0.40748   0.00000  Uiso   1.00
O715   O     0.83333   0.77322   0.53958   0.00000  Uiso   1.00
O716   O     0.83334   0.89345   0.46042   0.00000  Uiso   1.00
O717   O     0.83333   0.77321   0.46039   0.00000  Uiso   1.00
O718   O     0.83334   0.89346   0.53961   0.00000  Uiso   1.00
C719   C     0.83327   0.75409   0.50013   0.00000  Uiso   1.00
C720   C     0.83340   0.91257   0.49987   0.00000  Uiso   1.00
O721   O     0.75828   0.83334   0.53046   0.00000  Uiso   1.00
O722   O     0.90839   0.83333   0.46954   0.00000  Uiso   1.00
O723   O     0.75828   0.83333   0.45127   0.00000  Uiso   1.00
O724   O     0.90839   0.83334   0.54873   0.00000  Uiso   1.00
C725   C     0.73469   0.83309   0.48804   0.00000  Uiso   1.00
C726   C     0.93197   0.83357   0.51196   0.00000  Uiso   1.00
Cu727  Cu    0.83333   0.83334   0.54689   0.00000  Uiso   1.00
Cu728  Cu    0.83333   0.83333   0.45311   0.00000  Uiso   1.00
N729   N     0.83335   0.83334   0.61736   0.00000  Uiso   1.00
N730   N     0.83332   0.83332   0.38264   0.00000  Uiso   1.00
C731   C     0.67947   0.83222   0.48149   0.00000  Uiso   1.00
C732   C     0.98719   0.83444   0.51851   0.00000  Uiso   1.00
H733   H     0.99316   0.82943   0.44590   0.00000  Uiso   1.00
H734   H     0.67351   0.83723   0.55410   0.00000  Uiso   1.00
C735   C     0.81669   0.68818   0.45855   0.00000  Uiso   1.00
C736   C     0.84996   0.97848   0.54145   0.00000  Uiso   1.00
H737   H     0.80326   0.70448   0.42628   0.00000  Uiso   1.00
H738   H     0.86339   0.96219   0.57372   0.00000  Uiso   1.00
C739   C     0.81668   0.97883   0.45842   0.00000  Uiso   1.00
C740   C     0.84997   0.68783   0.54159   0.00000  Uiso   1.00
H741   H     0.80288   0.96280   0.42622   0.00000  Uiso   1.00
H742   H     0.86377   0.70387   0.57378   0.00000  Uiso   1.00
C743   C     0.83345   0.95721   0.49982   0.00000  Uiso   1.00
C744   C     0.83320   0.70945   0.50018   0.00000  Uiso   1.00
C745   C     0.80788   0.80324   0.35582   0.00000  Uiso   1.00
C746   C     0.85879   0.86343   0.64418   0.00000  Uiso   1.00
H747   H     0.78722   0.77928   0.37251   0.00000  Uiso   1.00
H748   H     0.87946   0.88738   0.62749   0.00000  Uiso   1.00
C749   C     0.80761   0.80303   0.63977   0.00000  Uiso   1.00
C750   C     0.85907   0.86363   0.36023   0.00000  Uiso   1.00
N751   N     0.78023   0.77025   0.61408   0.00000  Uiso   1.00
O752   O     0.73437   0.77685   0.59239   0.00000  Uiso   1.00
O753   O     0.79331   0.73245   0.62454   0.00000  Uiso   1.00
N754   N     0.88651   0.89637   0.38593   0.00000  Uiso   1.00
O755   O     0.87338   0.93418   0.37559   0.00000  Uiso   1.00
O756   O     0.93243   0.88975   0.40748   0.00000  Uiso   1.00
O757   O     0.16666   0.10655   0.87291   0.00000  Uiso   1.00
O758   O     0.16667   0.22678   0.79375   0.00000  Uiso   1.00
O759   O     0.16666   0.10654   0.79372   0.00000  Uiso   1.00
O760   O     0.16667   0.22679   0.87294   0.00000  Uiso   1.00
C761   C     0.16660   0.08743   0.83346   0.00000  Uiso   1.00
C762   C     0.16673   0.24591   0.83321   0.00000  Uiso   1.00
O763   O     0.09161   0.16667   0.86379   0.00000  Uiso   1.00
O764   O     0.24172   0.16666   0.80288   0.00000  Uiso   1.00
O765   O     0.09161   0.16666   0.78460   0.00000  Uiso   1.00
O766   O     0.24172   0.16667   0.88207   0.00000  Uiso   1.00
C767   C     0.06803   0.16642   0.82138   0.00000  Uiso   1.00
C768   C     0.26531   0.16690   0.84529   0.00000  Uiso   1.00
Cu769  Cu    0.16667   0.16667   0.88022   0.00000  Uiso   1.00
Cu770  Cu    0.16667   0.16666   0.78645   0.00000  Uiso   1.00
N771   N     0.16668   0.16668   0.95069   0.00000  Uiso   1.00
N772   N     0.16665   0.16666   0.71597   0.00000  Uiso   1.00
C773   C     0.01281   0.16555   0.81482   0.00000  Uiso   1.00
C774   C     0.32053   0.16777   0.85185   0.00000  Uiso   1.00
H775   H     0.32649   0.16276   0.77924   0.00000  Uiso   1.00
H776   H     0.00684   0.17056   0.88743   0.00000  Uiso   1.00
C777   C     0.15002   0.02152   0.79188   0.00000  Uiso   1.00
C778   C     0.18330   0.31182   0.87479   0.00000  Uiso   1.00
H779   H     0.13659   0.03781   0.75962   0.00000  Uiso   1.00
H780   H     0.19673   0.29552   0.90705   0.00000  Uiso   1.00
C781   C     0.15002   0.31217   0.79175   0.00000  Uiso   1.00
C782   C     0.18330   0.02117   0.87492   0.00000  Uiso   1.00
H783   H     0.13621   0.29613   0.75955   0.00000  Uiso   1.00
H784   H     0.19710   0.03720   0.90712   0.00000  Uiso   1.00
C785   C     0.16678   0.29055   0.83315   0.00000  Uiso   1.00
C786   C     0.16654   0.04279   0.83351   0.00000  Uiso   1.00
C787   C     0.14121   0.13657   0.68915   0.00000  Uiso   1.00
C788   C     0.19212   0.19676   0.97752   0.00000  Uiso   1.00
H789   H     0.12055   0.11261   0.70585   0.00000  Uiso   1.00
H790   H     0.21279   0.22072   0.96083   0.00000  Uiso   1.00
C791   C     0.14094   0.13636   0.97310   0.00000  Uiso   1.00
C792   C     0.19241   0.19696   0.69357   0.00000  Uiso   1.00
N793   N     0.11356   0.10359   0.94741   0.00000  Uiso   1.00
O794   O     0.06770   0.11019   0.92572   0.00000  Uiso   1.00
O795   O     0.12664   0.06579   0.95787   0.00000  Uiso   1.00
N796   N     0.21984   0.22970   0.71927   0.00000  Uiso   1.00
O797   O     0.20671   0.26751   0.70893   0.00000  Uiso   1.00
O798   O     0.26576   0.22308   0.74082   0.00000  Uiso   1.00
O799   O     0.50000   0.10655   0.87291   0.00000  Uiso   1.00
O800   O     0.50000   0.22678   0.79375   0.00000  Uiso   1.00
O801   O     0.50000   0.10654   0.79372   0.00000  Uiso   1.00
O802   O     0.50000   0.22679   0.87294   0.00000  Uiso   1.00
C803   C     0.49993   0.08743   0.83346   0.00000  Uiso   1.00
C804   C     0.50006   0.24591   0.83321   0.00000  Uiso   1.00
O805   O     0.42495   0.16667   0.86379   0.00000  Uiso   1.00
O806   O     0.57505   0.16666   0.80288   0.00000  Uiso   1.00
O807   O     0.42494   0.16666   0.78460   0.00000  Uiso   1.00
O808   O     0.57506   0.16667   0.88207   0.00000  Uiso   1.00
C809   C     0.40136   0.16642   0.82138   0.00000  Uiso   1.00
C810   C     0.59864   0.16690   0.84529   0.00000  Uiso   1.00
Cu811  Cu    0.50000   0.16667   0.88022   0.00000  Uiso   1.00
Cu812  Cu    0.50000   0.16666   0.78645   0.00000  Uiso   1.00
N813   N     0.50001   0.16668   0.95069   0.00000  Uiso   1.00
N814   N     0.49999   0.16666   0.71597   0.00000  Uiso   1.00
C815   C     0.34614   0.16555   0.81482   0.00000  Uiso   1.00
C816   C     0.65386   0.16777   0.85185   0.00000  Uiso   1.00
H817   H     0.65983   0.16276   0.77924   0.00000  Uiso   1.00
H818   H     0.34017   0.17056   0.88743   0.00000  Uiso   1.00
C819   C     0.48335   0.02152   0.79188   0.00000  Uiso   1.00
C820   C     0.51663   0.31182   0.87479   0.00000  Uiso   1.00
H821   H     0.46993   0.03781   0.75962   0.00000  Uiso   1.00
H822   H     0.53006   0.29552   0.90705   0.00000  Uiso   1.00
C823   C     0.48335   0.31217   0.79175   0.00000  Uiso   1.00
C824   C     0.51663   0.02117   0.87492   0.00000  Uiso   1.00
H825   H     0.46954   0.29613   0.75955   0.00000  Uiso   1.00
H826   H     0.53043   0.03720   0.90712   0.00000  Uiso   1.00
C827   C     0.50012   0.29055   0.83315   0.00000  Uiso   1.00
C828   C     0.49987   0.04279   0.83351   0.00000  Uiso   1.00
C829   C     0.47455   0.13657   0.68915   0.00000  Uiso   1.00
C830   C     0.52546   0.19676   0.97752   0.00000  Uiso   1.00
H831   H     0.45389   0.11261   0.70585   0.00000  Uiso   1.00
H832   H     0.54612   0.22072   0.96083   0.00000  Uiso   1.00
C833   C     0.47427   0.13636   0.97310   0.00000  Uiso   1.00
C834   C     0.52574   0.19696   0.69357   0.00000  Uiso   1.00
N835   N     0.44690   0.10359   0.94741   0.00000  Uiso   1.00
O836   O     0.40104   0.11019   0.92572   0.00000  Uiso   1.00
O837   O     0.45997   0.06579   0.95787   0.00000  Uiso   1.00
N838   N     0.55317   0.22970   0.71927   0.00000  Uiso   1.00
O839   O     0.54005   0.26751   0.70893   0.00000  Uiso   1.00
O840   O     0.59910   0.22308   0.74082   0.00000  Uiso   1.00
O841   O     0.83333   0.10655   0.87291   0.00000  Uiso   1.00
O842   O     0.83334   0.22678   0.79375   0.00000  Uiso   1.00
O843   O     0.83333   0.10654   0.79372   0.00000  Uiso   1.00
O844   O     0.83334   0.22679   0.87294   0.00000  Uiso   1.00
C845   C     0.83327   0.08743   0.83346   0.00000  Uiso   1.00
C846   C     0.83340   0.24591   0.83321   0.00000  Uiso   1.00
O847   O     0.75828   0.16667   0.86379   0.00000  Uiso   1.00
O848   O     0.90839   0.16666   0.80288   0.00000  Uiso   1.00
O849   O     0.75828   0.16666   0.78460   0.00000  Uiso   1.00
O850   O     0.90839   0.16667   0.88207   0.00000  Uiso   1.00
C851   C     0.73469   0.16642   0.82138   0.00000  Uiso   1.00
C852   C     0.93197   0.16690   0.84529   0.00000  Uiso   1.00
Cu853  Cu    0.83333   0.16667   0.88022   0.00000  Uiso   1.00
Cu854  Cu    0.83333   0.16666   0.78645   0.00000  Uiso   1.00
N855   N     0.83335   0.16668   0.95069   0.00000  Uiso   1.00
N856   N     0.83332   0.16666   0.71597   0.00000  Uiso   1.00
C857   C     0.67947   0.16555   0.81482   0.00000  Uiso   1.00
C858   C     0.98719   0.16777   0.85185   0.00000  Uiso   1.00
H859   H     0.99316   0.16276   0.77924   0.00000  Uiso   1.00
H860   H     0.67351   0.17056   0.88743   0.00000  Uiso   1.00
C861   C     0.81669   0.02152   0.79188   0.00000  Uiso   1.00
C862   C     0.84996   0.31182   0.87479   0.00000  Uiso   1.00
H863   H     0.80326   0.03781   0.75962   0.00000  Uiso   1.00
H864   H     0.86339   0.29552   0.90705   0.00000  Uiso   1.00
C865   C     0.81668   0.31217   0.79175   0.00000  Uiso   1.00
C866   C     0.84997   0.02117   0.87492   0.00000  Uiso   1.00
H867   H     0.80288   0.29613   0.75955   0.00000  Uiso   1.00
H868   H     0.86377   0.03720   0.90712   0.00000  Uiso   1.00
C869   C     0.83345   0.29055   0.83315   0.00000  Uiso   1.00
C870   C     0.83320   0.04279   0.83351   0.00000  Uiso   1.00
C871   C     0.80788   0.13657   0.68915   0.00000  Uiso   1.00
C872   C     0.85879   0.19676   0.97752   0.00000  Uiso   1.00
H873   H     0.78722   0.11261   0.70585   0.00000  Uiso   1.00
H874   H     0.87946   0.22072   0.96083   0.00000  Uiso   1.00
C875   C     0.80761   0.13636   0.97310   0.00000  Uiso   1.00
C876   C     0.85907   0.19696   0.69357   0.00000  Uiso   1.00
N877   N     0.78023   0.10359   0.94741   0.00000  Uiso   1.00
O878   O     0.73437   0.11019   0.92572   0.00000  Uiso   1.00
O879   O     0.79331   0.06579   0.95787   0.00000  Uiso   1.00
N880   N     0.88651   0.22970   0.71927   0.00000  Uiso   1.00
O881   O     0.87338   0.26751   0.70893   0.00000  Uiso   1.00
O882   O     0.93243   0.22308   0.74082   0.00000  Uiso   1.00
O883   O     0.16666   0.43989   0.87291   0.00000  Uiso   1.00
O884   O     0.16667   0.56011   0.79375   0.00000  Uiso   1.00
O885   O     0.16666   0.43988   0.79372   0.00000  Uiso   1.00
O886   O     0.16667   0.56012   0.87294   0.00000  Uiso   1.00
C887   C     0.16660   0.42076   0.83346   0.00000  Uiso   1.00
C888   C     0.16673   0.57924   0.83321   0.00000  Uiso   1.00
O889   O     0.09161   0.50000   0.86379   0.00000  Uiso   1.00
O890   O     0.24172   0.50000   0.80288   0.00000  Uiso   1.00
O891   O     0.09161   0.49999   0.78460   0.00000  Uiso   1.00
O892   O     0.24172   0.50001   0.88207   0.00000  Uiso   1.00
C893   C     0.06803   0.49976   0.82138   0.00000  Uiso   1.00
C894   C     0.26531   0.50024   0.84529   0.00000  Uiso   1.00
Cu895  Cu    0.16667   0.50001   0.88022   0.00000  Uiso   1.00
Cu896  Cu    0.16667   0.49999   0.78645   0.00000  Uiso   1.00
N897   N     0.16668   0.50001   0.95069   0.00000  Uiso   1.00
N898   N     0.16665   0.49999   0.71597   0.00000  Uiso   1.00
C899   C     0.01281   0.49889   0.81482   0.00000  Uiso   1.00
C900   C     0.32053   0.50110   0.85185   0.00000  Uiso   1.00
H901   H     0.32649   0.49609   0.77924   0.00000  Uiso   1.00
H902   H     0.00684   0.50389   0.88743   0.00000  Uiso   1.00
C903   C     0.15002   0.35485   0.79188   0.00000  Uiso   1.00
C904   C     0.18330   0.64515   0.87479   0.00000  Uiso   1.00
H905   H     0.13659   0.37115   0.75962   0.00000  Uiso   1.00
H906   H     0.19673   0.62885   0.90705   0.00000  Uiso   1.00
C907   C     0.15002   0.64550   0.79175   0.00000  Uiso   1.00
C908   C     0.18330   0.35450   0.87492   0.00000  Uiso   1.00
H909   H     0.13621   0.62947   0.75955   0.00000  Uiso   1.00
H910   H     0.19710   0.37053   0.90712   0.00000  Uiso   1.00
C911   C     0.16678   0.62388   0.83315   0.00000  Uiso   1.00
C912   C     0.16654   0.37612   0.83351   0.00000  Uiso   1.00
C913   C     0.14121   0.46991   0.68915   0.00000  Uiso   1.00
C914   C     0.19212   0.53009   0.97752   0.00000  Uiso   1.00
H915   H     0.12055   0.44595   0.70585   0.00000  Uiso   1.00
H916   H     0.21279   0.55405   0.96083   0.00000  Uiso   1.00
C917   C     0.14094   0.46969   0.97310   0.00000  Uiso   1.00
C918   C     0.19241   0.53030   0.69357   0.00000  Uiso   1.00
N919   N     0.11356   0.43692   0.94741   0.00000  Uiso   1.00
O920   O     0.06770   0.44352   0.92572   0.00000  Uiso   1.00
O921   O     0.12664   0.39912   0.95787   0.00000  Uiso   1.00
N922   N     0.21984   0.56304   0.71927   0.00000  Uiso   1.00
O923   O     0.20671   0.60085   0.70893   0.00000  Uiso   1.00
O924   O     0.26576   0.55641   0.74082   0.00000  Uiso   1.00
O925   O     0.50000   0.43989   0.87291   0.00000  Uiso   1.00
O926   O     0.50000   0.56011   0.79375   0.00000  Uiso   1.00
O927   O     0.50000   0.43988   0.79372   0.00000  Uiso   1.00
O928   O     0.50000   0.56012   0.87294   0.00000  Uiso   1.00
C929   C     0.49993   0.42076   0.83346   0.00000  Uiso   1.00
C930   C     0.50006   0.57924   0.83321   0.00000  Uiso   1.00
O931   O     0.42495   0.50000   0.86379   0.00000  Uiso   1.00
O932   O     0.57505   0.50000   0.80288   0.00000  Uiso   1.00
O933   O     0.42494   0.49999   0.78460   0.00000  Uiso   1.00
O934   O     0.57506   0.50001   0.88207   0.00000  Uiso   1.00
C935   C     0.40136   0.49976   0.82138   0.00000  Uiso   1.00
C936   C     0.59864   0.50024   0.84529   0.00000  Uiso   1.00
Cu937  Cu    0.50000   0.50001   0.88022   0.00000  Uiso   1.00
Cu938  Cu    0.50000   0.49999   0.78645   0.00000  Uiso   1.00
N939   N     0.50001   0.50001   0.95069   0.00000  Uiso   1.00
N940   N     0.49999   0.49999   0.71597   0.00000  Uiso   1.00
C941   C     0.34614   0.49889   0.81482   0.00000  Uiso   1.00
C942   C     0.65386   0.50110   0.85185   0.00000  Uiso   1.00
H943   H     0.65983   0.49609   0.77924   0.00000  Uiso   1.00
H944   H     0.34017   0.50389   0.88743   0.00000  Uiso   1.00
C945   C     0.48335   0.35485   0.79188   0.00000  Uiso   1.00
C946   C     0.51663   0.64515   0.87479   0.00000  Uiso   1.00
H947   H     0.46993   0.37115   0.75962   0.00000  Uiso   1.00
H948   H     0.53006   0.62885   0.90705   0.00000  Uiso   1.00
C949   C     0.48335   0.64550   0.79175   0.00000  Uiso   1.00
C950   C     0.51663   0.35450   0.87492   0.00000  Uiso   1.00
H951   H     0.46954   0.62947   0.75955   0.00000  Uiso   1.00
H952   H     0.53043   0.37053   0.90712   0.00000  Uiso   1.00
C953   C     0.50012   0.62388   0.83315   0.00000  Uiso   1.00
C954   C     0.49987   0.37612   0.83351   0.00000  Uiso   1.00
C955   C     0.47455   0.46991   0.68915   0.00000  Uiso   1.00
C956   C     0.52546   0.53009   0.97752   0.00000  Uiso   1.00
H957   H     0.45389   0.44595   0.70585   0.00000  Uiso   1.00
H958   H     0.54612   0.55405   0.96083   0.00000  Uiso   1.00
C959   C     0.47427   0.46969   0.97310   0.00000  Uiso   1.00
C960   C     0.52574   0.53030   0.69357   0.00000  Uiso   1.00
N961   N     0.44690   0.43692   0.94741   0.00000  Uiso   1.00
O962   O     0.40104   0.44352   0.92572   0.00000  Uiso   1.00
O963   O     0.45997   0.39912   0.95787   0.00000  Uiso   1.00
N964   N     0.55317   0.56304   0.71927   0.00000  Uiso   1.00
O965   O     0.54005   0.60085   0.70893   0.00000  Uiso   1.00
O966   O     0.59910   0.55641   0.74082   0.00000  Uiso   1.00
O967   O     0.83333   0.43989   0.87291   0.00000  Uiso   1.00
O968   O     0.83334   0.56011   0.79375   0.00000  Uiso   1.00
O969   O     0.83333   0.43988   0.79372   0.00000  Uiso   1.00
O970   O     0.83334   0.56012   0.87294   0.00000  Uiso   1.00
C971   C     0.83327   0.42076   0.83346   0.00000  Uiso   1.00
C972   C     0.83340   0.57924   0.83321   0.00000  Uiso   1.00
O973   O     0.75828   0.50000   0.86379   0.00000  Uiso   1.00
O974   O     0.90839   0.50000   0.80288   0.00000  Uiso   1.00
O975   O     0.75828   0.49999   0.78460   0.00000  Uiso   1.00
O976   O     0.90839   0.50001   0.88207   0.00000  Uiso   1.00
C977   C     0.73469   0.49976   0.82138   0.00000  Uiso   1.00
C978   C     0.93197   0.50024   0.84529   0.00000  Uiso   1.00
Cu979  Cu    0.83333   0.50001   0.88022   0.00000  Uiso   1.00
Cu980  Cu    0.83333   0.49999   0.78645   0.00000  Uiso   1.00
N981   N     0.83335   0.50001   0.95069   0.00000  Uiso   1.00
N982   N     0.83332   0.49999   0.71597   0.00000  Uiso   1.00
C983   C     0.67947   0.49889   0.81482   0.00000  Uiso   1.00
C984   C     0.98719   0.50110   0.85185   0.00000  Uiso   1.00
H985   H     0.99316   0.49609   0.77924   0.00000  Uiso   1.00
H986   H     0.67351   0.50389   0.88743   0.00000  Uiso   1.00
C987   C     0.81669   0.35485   0.79188   0.00000  Uiso   1.00
C988   C     0.84996   0.64515   0.87479   0.00000  Uiso   1.00
H989   H     0.80326   0.37115   0.75962   0.00000  Uiso   1.00
H990   H     0.86339   0.62885   0.90705   0.00000  Uiso   1.00
C991   C     0.81668   0.64550   0.79175   0.00000  Uiso   1.00
C992   C     0.84997   0.35450   0.87492   0.00000  Uiso   1.00
H993   H     0.80288   0.62947   0.75955   0.00000  Uiso   1.00
H994   H     0.86377   0.37053   0.90712   0.00000  Uiso   1.00
C995   C     0.83345   0.62388   0.83315   0.00000  Uiso   1.00
C996   C     0.83320   0.37612   0.83351   0.00000  Uiso   1.00
C997   C     0.80788   0.46991   0.68915   0.00000  Uiso   1.00
C998   C     0.85879   0.53009   0.97752   0.00000  Uiso   1.00
H999   H     0.78722   0.44595   0.70585   0.00000  Uiso   1.00
H1000  H     0.87946   0.55405   0.96083   0.00000  Uiso   1.00
C1001  C     0.80761   0.46969   0.97310   0.00000  Uiso   1.00
C1002  C     0.85907   0.53030   0.69357   0.00000  Uiso   1.00
N1003  N     0.78023   0.43692   0.94741   0.00000  Uiso   1.00
O1004  O     0.73437   0.44352   0.92572   0.00000  Uiso   1.00
O1005  O     0.79331   0.39912   0.95787   0.00000  Uiso   1.00
N1006  N     0.88651   0.56304   0.71927   0.00000  Uiso   1.00
O1007  O     0.87338   0.60085   0.70893   0.00000  Uiso   1.00
O1008  O     0.93243   0.55641   0.74082   0.00000  Uiso   1.00
O1009  O     0.16666   0.77322   0.87291   0.00000  Uiso   1.00
O1010  O     0.16667   0.89345   0.79375   0.00000  Uiso   1.00
O1011  O     0.16666   0.77321   0.79372   0.00000  Uiso   1.00
O1012  O     0.16667   0.89346   0.87294   0.00000  Uiso   1.00
C1013  C     0.16660   0.75409   0.83346   0.00000  Uiso   1.00
C1014  C     0.16673   0.91257   0.83321   0.00000  Uiso   1.00
O1015  O     0.09161   0.83334   0.86379   0.00000  Uiso   1.00
O1016  O     0.24172   0.83333   0.80288   0.00000  Uiso   1.00
O1017  O     0.09161   0.83333   0.78460   0.00000  Uiso   1.00
O1018  O     0.24172   0.83334   0.88207   0.00000  Uiso   1.00
C1019  C     0.06803   0.83309   0.82138   0.00000  Uiso   1.00
C1020  C     0.26531   0.83357   0.84529   0.00000  Uiso   1.00
Cu1021 Cu    0.16667   0.83334   0.88022   0.00000  Uiso   1.00
Cu1022 Cu    0.16667   0.83333   0.78645   0.00000  Uiso   1.00
N1023  N     0.16668   0.83334   0.95069   0.00000  Uiso   1.00
N1024  N     0.16665   0.83332   0.71597   0.00000  Uiso   1.00
C1025  C     0.01281   0.83222   0.81482   0.00000  Uiso   1.00
C1026  C     0.32053   0.83444   0.85185   0.00000  Uiso   1.00
H1027  H     0.32649   0.82943   0.77924   0.00000  Uiso   1.00
H1028  H     0.00684   0.83723   0.88743   0.00000  Uiso   1.00
C1029  C     0.15002   0.68818   0.79188   0.00000  Uiso   1.00
C1030  C     0.18330   0.97848   0.87479   0.00000  Uiso   1.00
H1031  H     0.13659   0.70448   0.75962   0.00000  Uiso   1.00
H1032  H     0.19673   0.96219   0.90705   0.00000  Uiso   1.00
C1033  C     0.15002   0.97883   0.79175   0.00000  Uiso   1.00
C1034  C     0.18330   0.68783   0.87492   0.00000  Uiso   1.00
H1035  H     0.13621   0.96280   0.75955   0.00000  Uiso   1.00
H1036  H     0.19710   0.70387   0.90712   0.00000  Uiso   1.00
C1037  C     0.16678   0.95721   0.83315   0.00000  Uiso   1.00
C1038  C     0.16654   0.70945   0.83351   0.00000  Uiso   1.00
C1039  C     0.14121   0.80324   0.68915   0.00000  Uiso   1.00
C1040  C     0.19212   0.86343   0.97752   0.00000  Uiso   1.00
H1041  H     0.12055   0.77928   0.70585   0.00000  Uiso   1.00
H1042  H     0.21279   0.88738   0.96083   0.00000  Uiso   1.00
C1043  C     0.14094   0.80303   0.97310   0.00000  Uiso   1.00
C1044  C     0.19241   0.86363   0.69357   0.00000  Uiso   1.00
N1045  N     0.11356   0.77025   0.94741   0.00000  Uiso   1.00
O1046  O     0.06770   0.77685   0.92572   0.00000  Uiso   1.00
O1047  O     0.12664   0.73245   0.95787   0.00000  Uiso   1.00
N1048  N     0.21984   0.89637   0.71927   0.00000  Uiso   1.00
O1049  O     0.20671   0.93418   0.70893   0.00000  Uiso   1.00
O1050  O     0.26576   0.88975   0.74082   0.00000  Uiso   1.00
O1051  O     0.50000   0.77322   0.87291   0.00000  Uiso   1.00
O1052  O     0.50000   0.89345   0.79375   0.00000  Uiso   1.00
O1053  O     0.50000   0.77321   0.79372   0.00000  Uiso   1.00
O1054  O     0.50000   0.89346   0.87294   0.00000  Uiso   1.00
C1055  C     0.49993   0.75409   0.83346   0.00000  Uiso   1.00
C1056  C     0.50006   0.91257   0.83321   0.00000  Uiso   1.00
O1057  O     0.42495   0.83334   0.86379   0.00000  Uiso   1.00
O1058  O     0.57505   0.83333   0.80288   0.00000  Uiso   1.00
O1059  O     0.42494   0.83333   0.78460   0.00000  Uiso   1.00
O1060  O     0.57506   0.83334   0.88207   0.00000  Uiso   1.00
C1061  C     0.40136   0.83309   0.82138   0.00000  Uiso   1.00
C1062  C     0.59864   0.83357   0.84529   0.00000  Uiso   1.00
Cu1063 Cu    0.50000   0.83334   0.88022   0.00000  Uiso   1.00
Cu1064 Cu    0.50000   0.83333   0.78645   0.00000  Uiso   1.00
N1065  N     0.50001   0.83334   0.95069   0.00000  Uiso   1.00
N1066  N     0.49999   0.83332   0.71597   0.00000  Uiso   1.00
C1067  C     0.34614   0.83222   0.81482   0.00000  Uiso   1.00
C1068  C     0.65386   0.83444   0.85185   0.00000  Uiso   1.00
H1069  H     0.65983   0.82943   0.77924   0.00000  Uiso   1.00
H1070  H     0.34017   0.83723   0.88743   0.00000  Uiso   1.00
C1071  C     0.48335   0.68818   0.79188   0.00000  Uiso   1.00
C1072  C     0.51663   0.97848   0.87479   0.00000  Uiso   1.00
H1073  H     0.46993   0.70448   0.75962   0.00000  Uiso   1.00
H1074  H     0.53006   0.96219   0.90705   0.00000  Uiso   1.00
C1075  C     0.48335   0.97883   0.79175   0.00000  Uiso   1.00
C1076  C     0.51663   0.68783   0.87492   0.00000  Uiso   1.00
H1077  H     0.46954   0.96280   0.75955   0.00000  Uiso   1.00
H1078  H     0.53043   0.70387   0.90712   0.00000  Uiso   1.00
C1079  C     0.50012   0.95721   0.83315   0.00000  Uiso   1.00
C1080  C     0.49987   0.70945   0.83351   0.00000  Uiso   1.00
C1081  C     0.47455   0.80324   0.68915   0.00000  Uiso   1.00
C1082  C     0.52546   0.86343   0.97752   0.00000  Uiso   1.00
H1083  H     0.45389   0.77928   0.70585   0.00000  Uiso   1.00
H1084  H     0.54612   0.88738   0.96083   0.00000  Uiso   1.00
C1085  C     0.47427   0.80303   0.97310   0.00000  Uiso   1.00
C1086  C     0.52574   0.86363   0.69357   0.00000  Uiso   1.00
N1087  N     0.44690   0.77025   0.94741   0.00000  Uiso   1.00
O1088  O     0.40104   0.77685   0.92572   0.00000  Uiso   1.00
O1089  O     0.45997   0.73245   0.95787   0.00000  Uiso   1.00
N1090  N     0.55317   0.89637   0.71927   0.00000  Uiso   1.00
O1091  O     0.54005   0.93418   0.70893   0.00000  Uiso   1.00
O1092  O     0.59910   0.88975   0.74082   0.00000  Uiso   1.00
O1093  O     0.83333   0.77322   0.87291   0.00000  Uiso   1.00
O1094  O     0.83334   0.89345   0.79375   0.00000  Uiso   1.00
O1095  O     0.83333   0.77321   0.79372   0.00000  Uiso   1.00
O1096  O     0.83334   0.89346   0.87294   0.00000  Uiso   1.00
C1097  C     0.83327   0.75409   0.83346   0.00000  Uiso   1.00
C1098  C     0.83340   0.91257   0.83321   0.00000  Uiso   1.00
O1099  O     0.75828   0.83334   0.86379   0.00000  Uiso   1.00
O1100  O     0.90839   0.83333   0.80288   0.00000  Uiso   1.00
O1101  O     0.75828   0.83333   0.78460   0.00000  Uiso   1.00
O1102  O     0.90839   0.83334   0.88207   0.00000  Uiso   1.00
C1103  C     0.73469   0.83309   0.82138   0.00000  Uiso   1.00
C1104  C     0.93197   0.83357   0.84529   0.00000  Uiso   1.00
Cu1105 Cu    0.83333   0.83334   0.88022   0.00000  Uiso   1.00
Cu1106 Cu    0.83333   0.83333   0.78645   0.00000  Uiso   1.00
N1107  N     0.83335   0.83334   0.95069   0.00000  Uiso   1.00
N1108  N     0.83332   0.83332   0.71597   0.00000  Uiso   1.00
C1109  C     0.67947   0.83222   0.81482   0.00000  Uiso   1.00
C1110  C     0.98719   0.83444   0.85185   0.00000  Uiso   1.00
H1111  H     0.99316   0.82943   0.77924   0.00000  Uiso   1.00
H1112  H     0.67351   0.83723   0.88743   0.00000  Uiso   1.00
C1113  C     0.81669   0.68818   0.79188   0.00000  Uiso   1.00
C1114  C     0.84996   0.97848   0.87479   0.00000  Uiso   1.00
H1115  H     0.80326   0.70448   0.75962   0.00000  Uiso   1.00
H1116  H     0.86339   0.96219   0.90705   0.00000  Uiso   1.00
C1117  C     0.81668   0.97883   0.79175   0.00000  Uiso   1.00
C1118  C     0.84997   0.68783   0.87492   0.00000  Uiso   1.00
H1119  H     0.80288   0.96280   0.75955   0.00000  Uiso   1.00
H1120  H     0.86377   0.70387   0.90712   0.00000  Uiso   1.00
C1121  C     0.83345   0.95721   0.83315   0.00000  Uiso   1.00
C1122  C     0.83320   0.70945   0.83351   0.00000  Uiso   1.00
C1123  C     0.80788   0.80324   0.68915   0.00000  Uiso   1.00
C1124  C     0.85879   0.86343   0.97752   0.00000  Uiso   1.00
H1125  H     0.78722   0.77928   0.70585   0.00000  Uiso   1.00
H1126  H     0.87946   0.88738   0.96083   0.00000  Uiso   1.00
C1127  C     0.80761   0.80303   0.97310   0.00000  Uiso   1.00
C1128  C     0.85907   0.86363   0.69357   0.00000  Uiso   1.00
N1129  N     0.78023   0.77025   0.94741   0.00000  Uiso   1.00
O1130  O     0.73437   0.77685   0.92572   0.00000  Uiso   1.00
O1131  O     0.79331   0.73245   0.95787   0.00000  Uiso   1.00
N1132  N     0.88651   0.89637   0.71927   0.00000  Uiso   1.00
O1133  O     0.87338   0.93418   0.70893   0.00000  Uiso   1.00
O1134  O     0.93243   0.88975   0.74082   0.00000  Uiso   1.00
loop_
_geom_bond_atom_site_label_1
_geom_bond_atom_site_label_2
_geom_bond_distance
_geom_bond_site_symmetry_2
_ccdc_geom_bond_type
O1     C5      1.298   .     A
O1     Cu13    1.963   .     S
O2     C6      1.298   .     A
O2     Cu14    1.963   .     S
O3     Cu14    1.959   .     S
O3     C5      1.294   .     A
O4     C6      1.294   .     A
O4     Cu13    1.959   .     S
C5     C30     1.448   .     S
C6     C29     1.448   .     S
O7     Cu13    1.960   .     S
O7     C11     1.292   .     A
O8     C12     1.292   .     A
O8     Cu14    1.960   .     S
O9     Cu14    1.959   .     S
O9     C11     1.291   .     A
O10    C12     1.291   .     A
O10    Cu13    1.959   .     S
C11    C17     1.433   .     S
C12    C18     1.433   .     S
Cu13   Cu14    2.694   .     S
Cu13   N15     2.024   .     S
Cu14   N16     2.024   .     S
N15    C32     1.359   .     A
N15    C35     1.382   .     A
N16    C36     1.382   .     A
N16    C31     1.359   .     A
C17    C102    1.333   1_455 S
C17    H103    1.087   1_455 S
C18    C59     1.333   .     S
C18    H62     1.087   .     S
H19    C59     1.087   .     S
H20    C102    1.087   1_455 S
C21    C30     1.402   .     A
C21    H23     1.084   .     S
C21    C277    1.384   1_545 S
C22    C29     1.402   .     A
C22    H24     1.084   .     S
C22    C152    1.384   .     S
C25    H27     1.083   .     S
C25    C29     1.399   .     A
C25    C147    1.384   .     S
C26    H28     1.083   .     S
C26    C30     1.399   .     A
C26    C274    1.384   1_545 S
C31    H33     1.082   .     S
C31    C791    1.418   1_554 S
C32    H34     1.082   .     S
C32    C414    1.418   .     S
C35    N37     1.428   .     S
C35    C409    1.418   .     S
C36    N40     1.428   .     S
C36    C788    1.418   1_554 S
N37    O38     1.299   .     A
N37    O39     1.301   .     A
N40    O41     1.301   .     A
N40    O42     1.299   .     A
O43    C47     1.298   .     A
O43    Cu55    1.963   .     S
O44    C48     1.298   .     A
O44    Cu56    1.963   .     S
O45    Cu56    1.959   .     S
O45    C47     1.294   .     A
O46    C48     1.294   .     A
O46    Cu55    1.959   .     S
C47    C72     1.448   .     S
C48    C71     1.448   .     S
O49    Cu55    1.960   .     S
O49    C53     1.292   .     A
O50    C54     1.292   .     A
O50    Cu56    1.960   .     S
O51    Cu56    1.959   .     S
O51    C53     1.291   .     A
O52    C54     1.291   .     A
O52    Cu55    1.959   .     S
C53    C59     1.433   .     S
C54    C60     1.433   .     S
Cu55   Cu56    2.694   .     S
Cu55   N57     2.024   .     S
Cu56   N58     2.024   .     S
N57    C74     1.359   .     A
N57    C77     1.382   .     A
N58    C78     1.382   .     A
N58    C73     1.359   .     A
C60    C101    1.333   .     S
C60    H104    1.087   .     S
H61    C101    1.087   .     S
C63    C72     1.402   .     A
C63    H65     1.084   .     S
C63    C319    1.384   1_545 S
C64    C71     1.402   .     A
C64    H66     1.084   .     S
C64    C194    1.384   .     S
C67    H69     1.083   .     S
C67    C71     1.399   .     A
C67    C189    1.384   .     S
C68    H70     1.083   .     S
C68    C72     1.399   .     A
C68    C316    1.384   1_545 S
C73    H75     1.082   .     S
C73    C833    1.418   1_554 S
C74    H76     1.082   .     S
C74    C456    1.418   .     S
C77    N79     1.428   .     S
C77    C451    1.418   .     S
C78    N82     1.428   .     S
C78    C830    1.418   1_554 S
N79    O80     1.299   .     A
N79    O81     1.301   .     A
N82    O83     1.301   .     A
N82    O84     1.299   .     A
O85    C89     1.298   .     A
O85    Cu97    1.963   .     S
O86    C90     1.298   .     A
O86    Cu98    1.963   .     S
O87    Cu98    1.959   .     S
O87    C89     1.294   .     A
O88    C90     1.294   .     A
O88    Cu97    1.959   .     S
C89    C114    1.448   .     S
C90    C113    1.448   .     S
O91    Cu97    1.960   .     S
O91    C95     1.292   .     A
O92    C96     1.292   .     A
O92    Cu98    1.960   .     S
O93    Cu98    1.959   .     S
O93    C95     1.291   .     A
O94    C96     1.291   .     A
O94    Cu97    1.959   .     S
C95    C101    1.433   .     S
C96    C102    1.433   .     S
Cu97   Cu98    2.694   .     S
Cu97   N99     2.024   .     S
Cu98   N100    2.024   .     S
N99    C116    1.359   .     A
N99    C119    1.382   .     A
N100   C120    1.382   .     A
N100   C115    1.359   .     A
C102   C17     1.333   1_655 S
C102   H20     1.087   1_655 S
H103   C17     1.087   1_655 S
C105   C114    1.402   .     A
C105   H107    1.084   .     S
C105   C361    1.384   1_545 S
C106   C113    1.402   .     A
C106   H108    1.084   .     S
C106   C236    1.384   .     S
C109   H111    1.083   .     S
C109   C113    1.399   .     A
C109   C231    1.384   .     S
C110   H112    1.083   .     S
C110   C114    1.399   .     A
C110   C358    1.384   1_545 S
C115   H117    1.082   .     S
C115   C875    1.418   1_554 S
C116   H118    1.082   .     S
C116   C498    1.418   .     S
C119   N121    1.428   .     S
C119   C493    1.418   .     S
C120   N124    1.428   .     S
C120   C872    1.418   1_554 S
N121   O122    1.299   .     A
N121   O123    1.301   .     A
N124   O125    1.301   .     A
N124   O126    1.299   .     A
O127   C131    1.298   .     A
O127   Cu139   1.963   .     S
O128   C132    1.298   .     A
O128   Cu140   1.963   .     S
O129   Cu140   1.959   .     S
O129   C131    1.294   .     A
O130   C132    1.294   .     A
O130   Cu139   1.959   .     S
C131   C156    1.448   .     S
C132   C155    1.448   .     S
O133   Cu139   1.960   .     S
O133   C137    1.292   .     A
O134   C138    1.292   .     A
O134   Cu140   1.960   .     S
O135   Cu140   1.959   .     S
O135   C137    1.291   .     A
O136   C138    1.291   .     A
O136   Cu139   1.959   .     S
C137   C143    1.433   .     S
C138   C144    1.433   .     S
Cu139  Cu140   2.694   .     S
Cu139  N141    2.024   .     S
Cu140  N142    2.024   .     S
N141   C158    1.359   .     A
N141   C161    1.382   .     A
N142   C162    1.382   .     A
N142   C157    1.359   .     A
C143   C228    1.333   1_455 S
C143   H229    1.087   1_455 S
C144   C185    1.333   .     S
C144   H188    1.087   .     S
H145   C185    1.087   .     S
H146   C228    1.087   1_455 S
C147   C156    1.402   .     A
C147   H149    1.084   .     S
C148   C155    1.402   .     A
C148   H150    1.084   .     S
C148   C278    1.384   .     S
C151   H153    1.083   .     S
C151   C155    1.399   .     A
C151   C273    1.384   .     S
C152   H154    1.083   .     S
C152   C156    1.399   .     A
C157   H159    1.082   .     S
C157   C917    1.418   1_554 S
C158   H160    1.082   .     S
C158   C540    1.418   .     S
C161   N163    1.428   .     S
C161   C535    1.418   .     S
C162   N166    1.428   .     S
C162   C914    1.418   1_554 S
N163   O164    1.299   .     A
N163   O165    1.301   .     A
N166   O167    1.301   .     A
N166   O168    1.299   .     A
O169   C173    1.298   .     A
O169   Cu181   1.963   .     S
O170   C174    1.298   .     A
O170   Cu182   1.963   .     S
O171   Cu182   1.959   .     S
O171   C173    1.294   .     A
O172   C174    1.294   .     A
O172   Cu181   1.959   .     S
C173   C198    1.448   .     S
C174   C197    1.448   .     S
O175   Cu181   1.960   .     S
O175   C179    1.292   .     A
O176   C180    1.292   .     A
O176   Cu182   1.960   .     S
O177   Cu182   1.959   .     S
O177   C179    1.291   .     A
O178   C180    1.291   .     A
O178   Cu181   1.959   .     S
C179   C185    1.433   .     S
C180   C186    1.433   .     S
Cu181  Cu182   2.694   .     S
Cu181  N183    2.024   .     S
Cu182  N184    2.024   .     S
N183   C200    1.359   .     A
N183   C203    1.382   .     A
N184   C204    1.382   .     A
N184   C199    1.359   .     A
C186   C227    1.333   .     S
C186   H230    1.087   .     S
H187   C227    1.087   .     S
C189   C198    1.402   .     A
C189   H191    1.084   .     S
C190   C197    1.402   .     A
C190   H192    1.084   .     S
C190   C320    1.384   .     S
C193   H195    1.083   .     S
C193   C197    1.399   .     A
C193   C315    1.384   .     S
C194   H196    1.083   .     S
C194   C198    1.399   .     A
C199   H201    1.082   .     S
C199   C959    1.418   1_554 S
C200   H202    1.082   .     S
C200   C582    1.418   .     S
C203   N205    1.428   .     S
C203   C577    1.418   .     S
C204   N208    1.428   .     S
C204   C956    1.418   1_554 S
N205   O206    1.299   .     A
N205   O207    1.301   .     A
N208   O209    1.301   .     A
N208   O210    1.299   .     A
O211   C215    1.298   .     A
O211   Cu223   1.963   .     S
O212   C216    1.298   .     A
O212   Cu224   1.963   .     S
O213   Cu224   1.959   .     S
O213   C215    1.294   .     A
O214   C216    1.294   .     A
O214   Cu223   1.959   .     S
C215   C240    1.448   .     S
C216   C239    1.448   .     S
O217   Cu223   1.960   .     S
O217   C221    1.292   .     A
O218   C222    1.292   .     A
O218   Cu224   1.960   .     S
O219   Cu224   1.959   .     S
O219   C221    1.291   .     A
O220   C222    1.291   .     A
O220   Cu223   1.959   .     S
C221   C227    1.433   .     S
C222   C228    1.433   .     S
Cu223  Cu224   2.694   .     S
Cu223  N225    2.024   .     S
Cu224  N226    2.024   .     S
N225   C242    1.359   .     A
N225   C245    1.382   .     A
N226   C246    1.382   .     A
N226   C241    1.359   .     A
C228   C143    1.333   1_655 S
C228   H146    1.087   1_655 S
H229   C143    1.087   1_655 S
C231   C240    1.402   .     A
C231   H233    1.084   .     S
C232   C239    1.402   .     A
C232   H234    1.084   .     S
C232   C362    1.384   .     S
C235   H237    1.083   .     S
C235   C239    1.399   .     A
C235   C357    1.384   .     S
C236   H238    1.083   .     S
C236   C240    1.399   .     A
C241   H243    1.082   .     S
C241   C1001   1.418   1_554 S
C242   H244    1.082   .     S
C242   C624    1.418   .     S
C245   N247    1.428   .     S
C245   C619    1.418   .     S
C246   N250    1.428   .     S
C246   C998    1.418   1_554 S
N247   O248    1.299   .     A
N247   O249    1.301   .     A
N250   O251    1.301   .     A
N250   O252    1.299   .     A
O253   C257    1.298   .     A
O253   Cu265   1.963   .     S
O254   C258    1.298   .     A
O254   Cu266   1.963   .     S
O255   Cu266   1.959   .     S
O255   C257    1.294   .     A
O256   C258    1.294   .     A
O256   Cu265   1.959   .     S
C257   C282    1.448   .     S
C258   C281    1.448   .     S
O259   Cu265   1.960   .     S
O259   C263    1.292   .     A
O260   C264    1.292   .     A
O260   Cu266   1.960   .     S
O261   Cu266   1.959   .     S
O261   C263    1.291   .     A
O262   C264    1.291   .     A
O262   Cu265   1.959   .     S
C263   C269    1.433   .     S
C264   C270    1.433   .     S
Cu265  Cu266   2.694   .     S
Cu265  N267    2.024   .     S
Cu266  N268    2.024   .     S
N267   C284    1.359   .     A
N267   C287    1.382   .     A
N268   C288    1.382   .     A
N268   C283    1.359   .     A
C269   C354    1.333   1_455 S
C269   H355    1.087   1_455 S
C270   C311    1.333   .     S
C270   H314    1.087   .     S
H271   C311    1.087   .     S
H272   C354    1.087   1_455 S
C273   C282    1.402   .     A
C273   H275    1.084   .     S
C274   C281    1.402   .     A
C274   H276    1.084   .     S
C274   C26     1.384   1_565 S
C277   H279    1.083   .     S
C277   C281    1.399   .     A
C277   C21     1.384   1_565 S
C278   H280    1.083   .     S
C278   C282    1.399   .     A
C283   H285    1.082   .     S
C283   C1043   1.418   1_554 S
C284   H286    1.082   .     S
C284   C666    1.418   .     S
C287   N289    1.428   .     S
C287   C661    1.418   .     S
C288   N292    1.428   .     S
C288   C1040   1.418   1_554 S
N289   O290    1.299   .     A
N289   O291    1.301   .     A
N292   O293    1.301   .     A
N292   O294    1.299   .     A
O295   C299    1.298   .     A
O295   Cu307   1.963   .     S
O296   C300    1.298   .     A
O296   Cu308   1.963   .     S
O297   Cu308   1.959   .     S
O297   C299    1.294   .     A
O298   C300    1.294   .     A
O298   Cu307   1.959   .     S
C299   C324    1.448   .     S
C300   C323    1.448   .     S
O301   Cu307   1.960   .     S
O301   C305    1.292   .     A
O302   C306    1.292   .     A
O302   Cu308   1.960   .     S
O303   Cu308   1.959   .     S
O303   C305    1.291   .     A
O304   C306    1.291   .     A
O304   Cu307   1.959   .     S
C305   C311    1.433   .     S
C306   C312    1.433   .     S
Cu307  Cu308   2.694   .     S
Cu307  N309    2.024   .     S
Cu308  N310    2.024   .     S
N309   C326    1.359   .     A
N309   C329    1.382   .     A
N310   C330    1.382   .     A
N310   C325    1.359   .     A
C312   C353    1.333   .     S
C312   H356    1.087   .     S
H313   C353    1.087   .     S
C315   C324    1.402   .     A
C315   H317    1.084   .     S
C316   C323    1.402   .     A
C316   H318    1.084   .     S
C316   C68     1.384   1_565 S
C319   H321    1.083   .     S
C319   C323    1.399   .     A
C319   C63     1.384   1_565 S
C320   H322    1.083   .     S
C320   C324    1.399   .     A
C325   H327    1.082   .     S
C325   C1085   1.418   1_554 S
C326   H328    1.082   .     S
C326   C708    1.418   .     S
C329   N331    1.428   .     S
C329   C703    1.418   .     S
C330   N334    1.428   .     S
C330   C1082   1.418   1_554 S
N331   O332    1.299   .     A
N331   O333    1.301   .     A
N334   O335    1.301   .     A
N334   O336    1.299   .     A
O337   C341    1.298   .     A
O337   Cu349   1.963   .     S
O338   C342    1.298   .     A
O338   Cu350   1.963   .     S
O339   Cu350   1.959   .     S
O339   C341    1.294   .     A
O340   C342    1.294   .     A
O340   Cu349   1.959   .     S
C341   C366    1.448   .     S
C342   C365    1.448   .     S
O343   Cu349   1.960   .     S
O343   C347    1.292   .     A
O344   C348    1.292   .     A
O344   Cu350   1.960   .     S
O345   Cu350   1.959   .     S
O345   C347    1.291   .     A
O346   C348    1.291   .     A
O346   Cu349   1.959   .     S
C347   C353    1.433   .     S
C348   C354    1.433   .     S
Cu349  Cu350   2.694   .     S
Cu349  N351    2.024   .     S
Cu350  N352    2.024   .     S
N351   C368    1.359   .     A
N351   C371    1.382   .     A
N352   C372    1.382   .     A
N352   C367    1.359   .     A
C354   C269    1.333   1_655 S
C354   H272    1.087   1_655 S
H355   C269    1.087   1_655 S
C357   C366    1.402   .     A
C357   H359    1.084   .     S
C358   C365    1.402   .     A
C358   H360    1.084   .     S
C358   C110    1.384   1_565 S
C361   H363    1.083   .     S
C361   C365    1.399   .     A
C361   C105    1.384   1_565 S
C362   H364    1.083   .     S
C362   C366    1.399   .     A
C367   H369    1.082   .     S
C367   C1127   1.418   1_554 S
C368   H370    1.082   .     S
C368   C750    1.418   .     S
C371   N373    1.428   .     S
C371   C745    1.418   .     S
C372   N376    1.428   .     S
C372   C1124   1.418   1_554 S
N373   O374    1.299   .     A
N373   O375    1.301   .     A
N376   O377    1.301   .     A
N376   O378    1.299   .     A
O379   C383    1.298   .     A
O379   Cu391   1.963   .     S
O380   C384    1.298   .     A
O380   Cu392   1.963   .     S
O381   Cu392   1.959   .     S
O381   C383    1.294   .     A
O382   C384    1.294   .     A
O382   Cu391   1.959   .     S
C383   C408    1.448   .     S
C384   C407    1.448   .     S
O385   Cu391   1.960   .     S
O385   C389    1.292   .     A
O386   C390    1.292   .     A
O386   Cu392   1.960   .     S
O387   Cu392   1.959   .     S
O387   C389    1.291   .     A
O388   C390    1.291   .     A
O388   Cu391   1.959   .     S
C389   C395    1.433   .     S
C390   C396    1.433   .     S
Cu391  Cu392   2.694   .     S
Cu391  N393    2.024   .     S
Cu392  N394    2.024   .     S
N393   C410    1.359   .     A
N393   C413    1.382   .     A
N394   C414    1.382   .     A
N394   C409    1.359   .     A
C395   C480    1.333   1_455 S
C395   H481    1.087   1_455 S
C396   C437    1.333   .     S
C396   H440    1.087   .     S
H397   C437    1.087   .     S
H398   C480    1.087   1_455 S
C399   C408    1.402   .     A
C399   H401    1.084   .     S
C399   C655    1.384   1_545 S
C400   C407    1.402   .     A
C400   H402    1.084   .     S
C400   C530    1.384   .     S
C403   H405    1.083   .     S
C403   C407    1.399   .     A
C403   C525    1.384   .     S
C404   H406    1.083   .     S
C404   C408    1.399   .     A
C404   C652    1.384   1_545 S
C409   H411    1.082   .     S
C410   H412    1.082   .     S
C410   C792    1.418   .     S
C413   N415    1.428   .     S
C413   C787    1.418   .     S
C414   N418    1.428   .     S
N415   O416    1.299   .     A
N415   O417    1.301   .     A
N418   O419    1.301   .     A
N418   O420    1.299   .     A
O421   C425    1.298   .     A
O421   Cu433   1.963   .     S
O422   C426    1.298   .     A
O422   Cu434   1.963   .     S
O423   Cu434   1.959   .     S
O423   C425    1.294   .     A
O424   C426    1.294   .     A
O424   Cu433   1.959   .     S
C425   C450    1.448   .     S
C426   C449    1.448   .     S
O427   Cu433   1.960   .     S
O427   C431    1.292   .     A
O428   C432    1.292   .     A
O428   Cu434   1.960   .     S
O429   Cu434   1.959   .     S
O429   C431    1.291   .     A
O430   C432    1.291   .     A
O430   Cu433   1.959   .     S
C431   C437    1.433   .     S
C432   C438    1.433   .     S
Cu433  Cu434   2.694   .     S
Cu433  N435    2.024   .     S
Cu434  N436    2.024   .     S
N435   C452    1.359   .     A
N435   C455    1.382   .     A
N436   C456    1.382   .     A
N436   C451    1.359   .     A
C438   C479    1.333   .     S
C438   H482    1.087   .     S
H439   C479    1.087   .     S
C441   C450    1.402   .     A
C441   H443    1.084   .     S
C441   C697    1.384   1_545 S
C442   C449    1.402   .     A
C442   H444    1.084   .     S
C442   C572    1.384   .     S
C445   H447    1.083   .     S
C445   C449    1.399   .     A
C445   C567    1.384   .     S
C446   H448    1.083   .     S
C446   C450    1.399   .     A
C446   C694    1.384   1_545 S
C451   H453    1.082   .     S
C452   H454    1.082   .     S
C452   C834    1.418   .     S
C455   N457    1.428   .     S
C455   C829    1.418   .     S
C456   N460    1.428   .     S
N457   O458    1.299   .     A
N457   O459    1.301   .     A
N460   O461    1.301   .     A
N460   O462    1.299   .     A
O463   C467    1.298   .     A
O463   Cu475   1.963   .     S
O464   C468    1.298   .     A
O464   Cu476   1.963   .     S
O465   Cu476   1.959   .     S
O465   C467    1.294   .     A
O466   C468    1.294   .     A
O466   Cu475   1.959   .     S
C467   C492    1.448   .     S
C468   C491    1.448   .     S
O469   Cu475   1.960   .     S
O469   C473    1.292   .     A
O470   C474    1.292   .     A
O470   Cu476   1.960   .     S
O471   Cu476   1.959   .     S
O471   C473    1.291   .     A
O472   C474    1.291   .     A
O472   Cu475   1.959   .     S
C473   C479    1.433   .     S
C474   C480    1.433   .     S
Cu475  Cu476   2.694   .     S
Cu475  N477    2.024   .     S
Cu476  N478    2.024   .     S
N477   C494    1.359   .     A
N477   C497    1.382   .     A
N478   C498    1.382   .     A
N478   C493    1.359   .     A
C480   C395    1.333   1_655 S
C480   H398    1.087   1_655 S
H481   C395    1.087   1_655 S
C483   C492    1.402   .     A
C483   H485    1.084   .     S
C483   C739    1.384   1_545 S
C484   C491    1.402   .     A
C484   H486    1.084   .     S
C484   C614    1.384   .     S
C487   H489    1.083   .     S
C487   C491    1.399   .     A
C487   C609    1.384   .     S
C488   H490    1.083   .     S
C488   C492    1.399   .     A
C488   C736    1.384   1_545 S
C493   H495    1.082   .     S
C494   H496    1.082   .     S
C494   C876    1.418   .     S
C497   N499    1.428   .     S
C497   C871    1.418   .     S
C498   N502    1.428   .     S
N499   O500    1.299   .     A
N499   O501    1.301   .     A
N502   O503    1.301   .     A
N502   O504    1.299   .     A
O505   C509    1.298   .     A
O505   Cu517   1.963   .     S
O506   C510    1.298   .     A
O506   Cu518   1.963   .     S
O507   Cu518   1.959   .     S
O507   C509    1.294   .     A
O508   C510    1.294   .     A
O508   Cu517   1.959   .     S
C509   C534    1.448   .     S
C510   C533    1.448   .     S
O511   Cu517   1.960   .     S
O511   C515    1.292   .     A
O512   C516    1.292   .     A
O512   Cu518   1.960   .     S
O513   Cu518   1.959   .     S
O513   C515    1.291   .     A
O514   C516    1.291   .     A
O514   Cu517   1.959   .     S
C515   C521    1.433   .     S
C516   C522    1.433   .     S
Cu517  Cu518   2.694   .     S
Cu517  N519    2.024   .     S
Cu518  N520    2.024   .     S
N519   C536    1.359   .     A
N519   C539    1.382   .     A
N520   C540    1.382   .     A
N520   C535    1.359   .     A
C521   C606    1.333   1_455 S
C521   H607    1.087   1_455 S
C522   C563    1.333   .     S
C522   H566    1.087   .     S
H523   C563    1.087   .     S
H524   C606    1.087   1_455 S
C525   C534    1.402   .     A
C525   H527    1.084   .     S
C526   C533    1.402   .     A
C526   H528    1.084   .     S
C526   C656    1.384   .     S
C529   H531    1.083   .     S
C529   C533    1.399   .     A
C529   C651    1.384   .     S
C530   H532    1.083   .     S
C530   C534    1.399   .     A
C535   H537    1.082   .     S
C536   H538    1.082   .     S
C536   C918    1.418   .     S
C539   N541    1.428   .     S
C539   C913    1.418   .     S
C540   N544    1.428   .     S
N541   O542    1.299   .     A
N541   O543    1.301   .     A
N544   O545    1.301   .     A
N544   O546    1.299   .     A
O547   C551    1.298   .     A
O547   Cu559   1.963   .     S
O548   C552    1.298   .     A
O548   Cu560   1.963   .     S
O549   Cu560   1.959   .     S
O549   C551    1.294   .     A
O550   C552    1.294   .     A
O550   Cu559   1.959   .     S
C551   C576    1.448   .     S
C552   C575    1.448   .     S
O553   Cu559   1.960   .     S
O553   C557    1.292   .     A
O554   C558    1.292   .     A
O554   Cu560   1.960   .     S
O555   Cu560   1.959   .     S
O555   C557    1.291   .     A
O556   C558    1.291   .     A
O556   Cu559   1.959   .     S
C557   C563    1.433   .     S
C558   C564    1.433   .     S
Cu559  Cu560   2.694   .     S
Cu559  N561    2.024   .     S
Cu560  N562    2.024   .     S
N561   C578    1.359   .     A
N561   C581    1.382   .     A
N562   C582    1.382   .     A
N562   C577    1.359   .     A
C564   C605    1.333   .     S
C564   H608    1.087   .     S
H565   C605    1.087   .     S
C567   C576    1.402   .     A
C567   H569    1.084   .     S
C568   C575    1.402   .     A
C568   H570    1.084   .     S
C568   C698    1.384   .     S
C571   H573    1.083   .     S
C571   C575    1.399   .     A
C571   C693    1.384   .     S
C572   H574    1.083   .     S
C572   C576    1.399   .     A
C577   H579    1.082   .     S
C578   H580    1.082   .     S
C578   C960    1.418   .     S
C581   N583    1.428   .     S
C581   C955    1.418   .     S
C582   N586    1.428   .     S
N583   O584    1.299   .     A
N583   O585    1.301   .     A
N586   O587    1.301   .     A
N586   O588    1.299   .     A
O589   C593    1.298   .     A
O589   Cu601   1.963   .     S
O590   C594    1.298   .     A
O590   Cu602   1.963   .     S
O591   Cu602   1.959   .     S
O591   C593    1.294   .     A
O592   C594    1.294   .     A
O592   Cu601   1.959   .     S
C593   C618    1.448   .     S
C594   C617    1.448   .     S
O595   Cu601   1.960   .     S
O595   C599    1.292   .     A
O596   C600    1.292   .     A
O596   Cu602   1.960   .     S
O597   Cu602   1.959   .     S
O597   C599    1.291   .     A
O598   C600    1.291   .     A
O598   Cu601   1.959   .     S
C599   C605    1.433   .     S
C600   C606    1.433   .     S
Cu601  Cu602   2.694   .     S
Cu601  N603    2.024   .     S
Cu602  N604    2.024   .     S
N603   C620    1.359   .     A
N603   C623    1.382   .     A
N604   C624    1.382   .     A
N604   C619    1.359   .     A
C606   C521    1.333   1_655 S
C606   H524    1.087   1_655 S
H607   C521    1.087   1_655 S
C609   C618    1.402   .     A
C609   H611    1.084   .     S
C610   C617    1.402   .     A
C610   H612    1.084   .     S
C610   C740    1.384   .     S
C613   H615    1.083   .     S
C613   C617    1.399   .     A
C613   C735    1.384   .     S
C614   H616    1.083   .     S
C614   C618    1.399   .     A
C619   H621    1.082   .     S
C620   H622    1.082   .     S
C620   C1002   1.418   .     S
C623   N625    1.428   .     S
C623   C997    1.418   .     S
C624   N628    1.428   .     S
N625   O626    1.299   .     A
N625   O627    1.301   .     A
N628   O629    1.301   .     A
N628   O630    1.299   .     A
O631   C635    1.298   .     A
O631   Cu643   1.963   .     S
O632   C636    1.298   .     A
O632   Cu644   1.963   .     S
O633   Cu644   1.959   .     S
O633   C635    1.294   .     A
O634   C636    1.294   .     A
O634   Cu643   1.959   .     S
C635   C660    1.448   .     S
C636   C659    1.448   .     S
O637   Cu643   1.960   .     S
O637   C641    1.292   .     A
O638   C642    1.292   .     A
O638   Cu644   1.960   .     S
O639   Cu644   1.959   .     S
O639   C641    1.291   .     A
O640   C642    1.291   .     A
O640   Cu643   1.959   .     S
C641   C647    1.433   .     S
C642   C648    1.433   .     S
Cu643  Cu644   2.694   .     S
Cu643  N645    2.024   .     S
Cu644  N646    2.024   .     S
N645   C662    1.359   .     A
N645   C665    1.382   .     A
N646   C666    1.382   .     A
N646   C661    1.359   .     A
C647   C732    1.333   1_455 S
C647   H733    1.087   1_455 S
C648   C689    1.333   .     S
C648   H692    1.087   .     S
H649   C689    1.087   .     S
H650   C732    1.087   1_455 S
C651   C660    1.402   .     A
C651   H653    1.084   .     S
C652   C659    1.402   .     A
C652   H654    1.084   .     S
C652   C404    1.384   1_565 S
C655   H657    1.083   .     S
C655   C659    1.399   .     A
C655   C399    1.384   1_565 S
C656   H658    1.083   .     S
C656   C660    1.399   .     A
C661   H663    1.082   .     S
C662   H664    1.082   .     S
C662   C1044   1.418   .     S
C665   N667    1.428   .     S
C665   C1039   1.418   .     S
C666   N670    1.428   .     S
N667   O668    1.299   .     A
N667   O669    1.301   .     A
N670   O671    1.301   .     A
N670   O672    1.299   .     A
O673   C677    1.298   .     A
O673   Cu685   1.963   .     S
O674   C678    1.298   .     A
O674   Cu686   1.963   .     S
O675   Cu686   1.959   .     S
O675   C677    1.294   .     A
O676   C678    1.294   .     A
O676   Cu685   1.959   .     S
C677   C702    1.448   .     S
C678   C701    1.448   .     S
O679   Cu685   1.960   .     S
O679   C683    1.292   .     A
O680   C684    1.292   .     A
O680   Cu686   1.960   .     S
O681   Cu686   1.959   .     S
O681   C683    1.291   .     A
O682   C684    1.291   .     A
O682   Cu685   1.959   .     S
C683   C689    1.433   .     S
C684   C690    1.433   .     S
Cu685  Cu686   2.694   .     S
Cu685  N687    2.024   .     S
Cu686  N688    2.024   .     S
N687   C704    1.359   .     A
N687   C707    1.382   .     A
N688   C708    1.382   .     A
N688   C703    1.359   .     A
C690   C731    1.333   .     S
C690   H734    1.087   .     S
H691   C731    1.087   .     S
C693   C702    1.402   .     A
C693   H695    1.084   .     S
C694   C701    1.402   .     A
C694   H696    1.084   .     S
C694   C446    1.384   1_565 S
C697   H699    1.083   .     S
C697   C701    1.399   .     A
C697   C441    1.384   1_565 S
C698   H700    1.083   .     S
C698   C702    1.399   .     A
C703   H705    1.082   .     S
C704   H706    1.082   .     S
C704   C1086   1.418   .     S
C707   N709    1.428   .     S
C707   C1081   1.418   .     S
C708   N712    1.428   .     S
N709   O710    1.299   .     A
N709   O711    1.301   .     A
N712   O713    1.301   .     A
N712   O714    1.299   .     A
O715   C719    1.298   .     A
O715   Cu727   1.963   .     S
O716   C720    1.298   .     A
O716   Cu728   1.963   .     S
O717   Cu728   1.959   .     S
O717   C719    1.294   .     A
O718   C720    1.294   .     A
O718   Cu727   1.959   .     S
C719   C744    1.448   .     S
C720   C743    1.448   .     S
O721   Cu727   1.960   .     S
O721   C725    1.292   .     A
O722   C726    1.292   .     A
O722   Cu728   1.960   .     S
O723   Cu728   1.959   .     S
O723   C725    1.291   .     A
O724   C726    1.291   .     A
O724   Cu727   1.959   .     S
C725   C731    1.433   .     S
C726   C732    1.433   .     S
Cu727  Cu728   2.694   .     S
Cu727  N729    2.024   .     S
Cu728  N730    2.024   .     S
N729   C746    1.359   .     A
N729   C749    1.382   .     A
N730   C750    1.382   .     A
N730   C745    1.359   .     A
C732   C647    1.333   1_655 S
C732   H650    1.087   1_655 S
H733   C647    1.087   1_655 S
C735   C744    1.402   .     A
C735   H737    1.084   .     S
C736   C743    1.402   .     A
C736   H738    1.084   .     S
C736   C488    1.384   1_565 S
C739   H741    1.083   .     S
C739   C743    1.399   .     A
C739   C483    1.384   1_565 S
C740   H742    1.083   .     S
C740   C744    1.399   .     A
C745   H747    1.082   .     S
C746   H748    1.082   .     S
C746   C1128   1.418   .     S
C749   N751    1.428   .     S
C749   C1123   1.418   .     S
C750   N754    1.428   .     S
N751   O752    1.299   .     A
N751   O753    1.301   .     A
N754   O755    1.301   .     A
N754   O756    1.299   .     A
O757   C761    1.298   .     A
O757   Cu769   1.963   .     S
O758   C762    1.298   .     A
O758   Cu770   1.963   .     S
O759   Cu770   1.959   .     S
O759   C761    1.294   .     A
O760   C762    1.294   .     A
O760   Cu769   1.959   .     S
C761   C786    1.448   .     S
C762   C785    1.448   .     S
O763   Cu769   1.960   .     S
O763   C767    1.292   .     A
O764   C768    1.292   .     A
O764   Cu770   1.960   .     S
O765   Cu770   1.959   .     S
O765   C767    1.291   .     A
O766   C768    1.291   .     A
O766   Cu769   1.959   .     S
C767   C773    1.433   .     S
C768   C774    1.433   .     S
Cu769  Cu770   2.694   .     S
Cu769  N771    2.024   .     S
Cu770  N772    2.024   .     S
N771   C788    1.359   .     A
N771   C791    1.382   .     A
N772   C792    1.382   .     A
N772   C787    1.359   .     A
C773   C858    1.333   1_455 S
C773   H859    1.087   1_455 S
C774   C815    1.333   .     S
C774   H818    1.087   .     S
H775   C815    1.087   .     S
H776   C858    1.087   1_455 S
C777   C786    1.402   .     A
C777   H779    1.084   .     S
C777   C1033   1.384   1_545 S
C778   C785    1.402   .     A
C778   H780    1.084   .     S
C778   C908    1.384   .     S
C781   H783    1.083   .     S
C781   C785    1.399   .     A
C781   C903    1.384   .     S
C782   H784    1.083   .     S
C782   C786    1.399   .     A
C782   C1030   1.384   1_545 S
C787   H789    1.082   .     S
C788   H790    1.082   .     S
C788   C36     1.418   1_556 S
C791   N793    1.428   .     S
C791   C31     1.418   1_556 S
C792   N796    1.428   .     S
N793   O794    1.299   .     A
N793   O795    1.301   .     A
N796   O797    1.301   .     A
N796   O798    1.299   .     A
O799   C803    1.298   .     A
O799   Cu811   1.963   .     S
O800   C804    1.298   .     A
O800   Cu812   1.963   .     S
O801   Cu812   1.959   .     S
O801   C803    1.294   .     A
O802   C804    1.294   .     A
O802   Cu811   1.959   .     S
C803   C828    1.448   .     S
C804   C827    1.448   .     S
O805   Cu811   1.960   .     S
O805   C809    1.292   .     A
O806   C810    1.292   .     A
O806   Cu812   1.960   .     S
O807   Cu812   1.959   .     S
O807   C809    1.291   .     A
O808   C810    1.291   .     A
O808   Cu811   1.959   .     S
C809   C815    1.433   .     S
C810   C816    1.433   .     S
Cu811  Cu812   2.694   .     S
Cu811  N813    2.024   .     S
Cu812  N814    2.024   .     S
N813   C830    1.359   .     A
N813   C833    1.382   .     A
N814   C834    1.382   .     A
N814   C829    1.359   .     A
C816   C857    1.333   .     S
C816   H860    1.087   .     S
H817   C857    1.087   .     S
C819   C828    1.402   .     A
C819   H821    1.084   .     S
C819   C1075   1.384   1_545 S
C820   C827    1.402   .     A
C820   H822    1.084   .     S
C820   C950    1.384   .     S
C823   H825    1.083   .     S
C823   C827    1.399   .     A
C823   C945    1.384   .     S
C824   H826    1.083   .     S
C824   C828    1.399   .     A
C824   C1072   1.384   1_545 S
C829   H831    1.082   .     S
C830   H832    1.082   .     S
C830   C78     1.418   1_556 S
C833   N835    1.428   .     S
C833   C73     1.418   1_556 S
C834   N838    1.428   .     S
N835   O836    1.299   .     A
N835   O837    1.301   .     A
N838   O839    1.301   .     A
N838   O840    1.299   .     A
O841   C845    1.298   .     A
O841   Cu853   1.963   .     S
O842   C846    1.298   .     A
O842   Cu854   1.963   .     S
O843   Cu854   1.959   .     S
O843   C845    1.294   .     A
O844   C846    1.294   .     A
O844   Cu853   1.959   .     S
C845   C870    1.448   .     S
C846   C869    1.448   .     S
O847   Cu853   1.960   .     S
O847   C851    1.292   .     A
O848   C852    1.292   .     A
O848   Cu854   1.960   .     S
O849   Cu854   1.959   .     S
O849   C851    1.291   .     A
O850   C852    1.291   .     A
O850   Cu853   1.959   .     S
C851   C857    1.433   .     S
C852   C858    1.433   .     S
Cu853  Cu854   2.694   .     S
Cu853  N855    2.024   .     S
Cu854  N856    2.024   .     S
N855   C872    1.359   .     A
N855   C875    1.382   .     A
N856   C876    1.382   .     A
N856   C871    1.359   .     A
C858   C773    1.333   1_655 S
C858   H776    1.087   1_655 S
H859   C773    1.087   1_655 S
C861   C870    1.402   .     A
C861   H863    1.084   .     S
C861   C1117   1.384   1_545 S
C862   C869    1.402   .     A
C862   H864    1.084   .     S
C862   C992    1.384   .     S
C865   H867    1.083   .     S
C865   C869    1.399   .     A
C865   C987    1.384   .     S
C866   H868    1.083   .     S
C866   C870    1.399   .     A
C866   C1114   1.384   1_545 S
C871   H873    1.082   .     S
C872   H874    1.082   .     S
C872   C120    1.418   1_556 S
C875   N877    1.428   .     S
C875   C115    1.418   1_556 S
C876   N880    1.428   .     S
N877   O878    1.299   .     A
N877   O879    1.301   .     A
N880   O881    1.301   .     A
N880   O882    1.299   .     A
O883   C887    1.298   .     A
O883   Cu895   1.963   .     S
O884   C888    1.298   .     A
O884   Cu896   1.963   .     S
O885   Cu896   1.959   .     S
O885   C887    1.294   .     A
O886   C888    1.294   .     A
O886   Cu895   1.959   .     S
C887   C912    1.448   .     S
C888   C911    1.448   .     S
O889   Cu895   1.960   .     S
O889   C893    1.292   .     A
O890   C894    1.292   .     A
O890   Cu896   1.960   .     S
O891   Cu896   1.959   .     S
O891   C893    1.291   .     A
O892   C894    1.291   .     A
O892   Cu895   1.959   .     S
C893   C899    1.433   .     S
C894   C900    1.433   .     S
Cu895  Cu896   2.694   .     S
Cu895  N897    2.024   .     S
Cu896  N898    2.024   .     S
N897   C914    1.359   .     A
N897   C917    1.382   .     A
N898   C918    1.382   .     A
N898   C913    1.359   .     A
C899   C984    1.333   1_455 S
C899   H985    1.087   1_455 S
C900   C941    1.333   .     S
C900   H944    1.087   .     S
H901   C941    1.087   .     S
H902   C984    1.087   1_455 S
C903   C912    1.402   .     A
C903   H905    1.084   .     S
C904   C911    1.402   .     A
C904   H906    1.084   .     S
C904   C1034   1.384   .     S
C907   H909    1.083   .     S
C907   C911    1.399   .     A
C907   C1029   1.384   .     S
C908   H910    1.083   .     S
C908   C912    1.399   .     A
C913   H915    1.082   .     S
C914   H916    1.082   .     S
C914   C162    1.418   1_556 S
C917   N919    1.428   .     S
C917   C157    1.418   1_556 S
C918   N922    1.428   .     S
N919   O920    1.299   .     A
N919   O921    1.301   .     A
N922   O923    1.301   .     A
N922   O924    1.299   .     A
O925   C929    1.298   .     A
O925   Cu937   1.963   .     S
O926   C930    1.298   .     A
O926   Cu938   1.963   .     S
O927   Cu938   1.959   .     S
O927   C929    1.294   .     A
O928   C930    1.294   .     A
O928   Cu937   1.959   .     S
C929   C954    1.448   .     S
C930   C953    1.448   .     S
O931   Cu937   1.960   .     S
O931   C935    1.292   .     A
O932   C936    1.292   .     A
O932   Cu938   1.960   .     S
O933   Cu938   1.959   .     S
O933   C935    1.291   .     A
O934   C936    1.291   .     A
O934   Cu937   1.959   .     S
C935   C941    1.433   .     S
C936   C942    1.433   .     S
Cu937  Cu938   2.694   .     S
Cu937  N939    2.024   .     S
Cu938  N940    2.024   .     S
N939   C956    1.359   .     A
N939   C959    1.382   .     A
N940   C960    1.382   .     A
N940   C955    1.359   .     A
C942   C983    1.333   .     S
C942   H986    1.087   .     S
H943   C983    1.087   .     S
C945   C954    1.402   .     A
C945   H947    1.084   .     S
C946   C953    1.402   .     A
C946   H948    1.084   .     S
C946   C1076   1.384   .     S
C949   H951    1.083   .     S
C949   C953    1.399   .     A
C949   C1071   1.384   .     S
C950   H952    1.083   .     S
C950   C954    1.399   .     A
C955   H957    1.082   .     S
C956   H958    1.082   .     S
C956   C204    1.418   1_556 S
C959   N961    1.428   .     S
C959   C199    1.418   1_556 S
C960   N964    1.428   .     S
N961   O962    1.299   .     A
N961   O963    1.301   .     A
N964   O965    1.301   .     A
N964   O966    1.299   .     A
O967   C971    1.298   .     A
O967   Cu979   1.963   .     S
O968   C972    1.298   .     A
O968   Cu980   1.963   .     S
O969   Cu980   1.959   .     S
O969   C971    1.294   .     A
O970   C972    1.294   .     A
O970   Cu979   1.959   .     S
C971   C996    1.448   .     S
C972   C995    1.448   .     S
O973   Cu979   1.960   .     S
O973   C977    1.292   .     A
O974   C978    1.292   .     A
O974   Cu980   1.960   .     S
O975   Cu980   1.959   .     S
O975   C977    1.291   .     A
O976   C978    1.291   .     A
O976   Cu979   1.959   .     S
C977   C983    1.433   .     S
C978   C984    1.433   .     S
Cu979  Cu980   2.694   .     S
Cu979  N981    2.024   .     S
Cu980  N982    2.024   .     S
N981   C998    1.359   .     A
N981   C1001   1.382   .     A
N982   C1002   1.382   .     A
N982   C997    1.359   .     A
C984   C899    1.333   1_655 S
C984   H902    1.087   1_655 S
H985   C899    1.087   1_655 S
C987   C996    1.402   .     A
C987   H989    1.084   .     S
C988   C995    1.402   .     A
C988   H990    1.084   .     S
C988   C1118   1.384   .     S
C991   H993    1.083   .     S
C991   C995    1.399   .     A
C991   C1113   1.384   .     S
C992   H994    1.083   .     S
C992   C996    1.399   .     A
C997   H999    1.082   .     S
C998   H1000   1.082   .     S
C998   C246    1.418   1_556 S
C1001  N1003   1.428   .     S
C1001  C241    1.418   1_556 S
C1002  N1006   1.428   .     S
N1003  O1004   1.299   .     A
N1003  O1005   1.301   .     A
N1006  O1007   1.301   .     A
N1006  O1008   1.299   .     A
O1009  C1013   1.298   .     A
O1009  Cu1021  1.963   .     S
O1010  C1014   1.298   .     A
O1010  Cu1022  1.963   .     S
O1011  Cu1022  1.959   .     S
O1011  C1013   1.294   .     A
O1012  C1014   1.294   .     A
O1012  Cu1021  1.959   .     S
C1013  C1038   1.448   .     S
C1014  C1037   1.448   .     S
O1015  Cu1021  1.960   .     S
O1015  C1019   1.292   .     A
O1016  C1020   1.292   .     A
O1016  Cu1022  1.960   .     S
O1017  Cu1022  1.959   .     S
O1017  C1019   1.291   .     A
O1018  C1020   1.291   .     A
O1018  Cu1021  1.959   .     S
C1019  C1025   1.433   .     S
C1020  C1026   1.433   .     S
Cu1021 Cu1022  2.694   .     S
Cu1021 N1023   2.024   .     S
Cu1022 N1024   2.024   .     S
N1023  C1040   1.359   .     A
N1023  C1043   1.382   .     A
N1024  C1044   1.382   .     A
N1024  C1039   1.359   .     A
C1025  C1110   1.333   1_455 S
C1025  H1111   1.087   1_455 S
C1026  C1067   1.333   .     S
C1026  H1070   1.087   .     S
H1027  C1067   1.087   .     S
H1028  C1110   1.087   1_455 S
C1029  C1038   1.402   .     A
C1029  H1031   1.084   .     S
C1030  C1037   1.402   .     A
C1030  H1032   1.084   .     S
C1030  C782    1.384   1_565 S
C1033  H1035   1.083   .     S
C1033  C1037   1.399   .     A
C1033  C777    1.384   1_565 S
C1034  H1036   1.083   .     S
C1034  C1038   1.399   .     A
C1039  H1041   1.082   .     S
C1040  H1042   1.082   .     S
C1040  C288    1.418   1_556 S
C1043  N1045   1.428   .     S
C1043  C283    1.418   1_556 S
C1044  N1048   1.428   .     S
N1045  O1046   1.299   .     A
N1045  O1047   1.301   .     A
N1048  O1049   1.301   .     A
N1048  O1050   1.299   .     A
O1051  C1055   1.298   .     A
O1051  Cu1063  1.963   .     S
O1052  C1056   1.298   .     A
O1052  Cu1064  1.963   .     S
O1053  Cu1064  1.959   .     S
O1053  C1055   1.294   .     A
O1054  C1056   1.294   .     A
O1054  Cu1063  1.959   .     S
C1055  C1080   1.448   .     S
C1056  C1079   1.448   .     S
O1057  Cu1063  1.960   .     S
O1057  C1061   1.292   .     A
O1058  C1062   1.292   .     A
O1058  Cu1064  1.960   .     S
O1059  Cu1064  1.959   .     S
O1059  C1061   1.291   .     A
O1060  C1062   1.291   .     A
O1060  Cu1063  1.959   .     S
C1061  C1067   1.433   .     S
C1062  C1068   1.433   .     S
Cu1063 Cu1064  2.694   .     S
Cu1063 N1065   2.024   .     S
Cu1064 N1066   2.024   .     S
N1065  C1082   1.359   .     A
N1065  C1085   1.382   .     A
N1066  C1086   1.382   .     A
N1066  C1081   1.359   .     A
C1068  C1109   1.333   .     S
C1068  H1112   1.087   .     S
H1069  C1109   1.087   .     S
C1071  C1080   1.402   .     A
C1071  H1073   1.084   .     S
C1072  C1079   1.402   .     A
C1072  H1074   1.084   .     S
C1072  C824    1.384   1_565 S
C1075  H1077   1.083   .     S
C1075  C1079   1.399   .     A
C1075  C819    1.384   1_565 S
C1076  H1078   1.083   .     S
C1076  C1080   1.399   .     A
C1081  H1083   1.082   .     S
C1082  H1084   1.082   .     S
C1082  C330    1.418   1_556 S
C1085  N1087   1.428   .     S
C1085  C325    1.418   1_556 S
C1086  N1090   1.428   .     S
N1087  O1088   1.299   .     A
N1087  O1089   1.301   .     A
N1090  O1091   1.301   .     A
N1090  O1092   1.299   .     A
O1093  C1097   1.298   .     A
O1093  Cu1105  1.963   .     S
O1094  C1098   1.298   .     A
O1094  Cu1106  1.963   .     S
O1095  Cu1106  1.959   .     S
O1095  C1097   1.294   .     A
O1096  C1098   1.294   .     A
O1096  Cu1105  1.959   .     S
C1097  C1122   1.448   .     S
C1098  C1121   1.448   .     S
O1099  Cu1105  1.960   .     S
O1099  C1103   1.292   .     A
O1100  C1104   1.292   .     A
O1100  Cu1106  1.960   .     S
O1101  Cu1106  1.959   .     S
O1101  C1103   1.291   .     A
O1102  C1104   1.291   .     A
O1102  Cu1105  1.959   .     S
C1103  C1109   1.433   .     S
C1104  C1110   1.433   .     S
Cu1105 Cu1106  2.694   .     S
Cu1105 N1107   2.024   .     S
Cu1106 N1108   2.024   .     S
N1107  C1124   1.359   .     A
N1107  C1127   1.382   .     A
N1108  C1128   1.382   .     A
N1108  C1123   1.359   .     A
C1110  C1025   1.333   1_655 S
C1110  H1028   1.087   1_655 S
H1111  C1025   1.087   1_655 S
C1113  C1122   1.402   .     A
C1113  H1115   1.084   .     S
C1114  C1121   1.402   .     A
C1114  H1116   1.084   .     S
C1114  C866    1.384   1_565 S
C1117  H1119   1.083   .     S
C1117  C1121   1.399   .     A
C1117  C861    1.384   1_565 S
C1118  H1120   1.083   .     S
C1118  C1122   1.399   .     A
C1123  H1125   1.082   .     S
C1124  H1126   1.082   .     S
C1124  C372    1.418   1_556 S
C1127  N1129   1.428   .     S
C1127  C367    1.418   1_556 S
C1128  N1132   1.428   .     S
N1129  O1130   1.299   .     A
N1129  O1131   1.301   .     A
N1132  O1133   1.301   .     A
N1132  O1134   1.299   .     A
