data_str_m2_o10_o17_pcu_sym.227
_audit_creation_date              2020-01-03
_audit_creation_method            'Materials Studio'
_symmetry_space_group_name_H-M    'P1'
_symmetry_Int_Tables_number       1
_symmetry_cell_setting            triclinic
loop_
_symmetry_equiv_pos_as_xyz
  x,y,z
_cell_length_a                    30.0591
_cell_length_b                    25.7714
_cell_length_c                    22.4521
_cell_angle_alpha                 104.0344
_cell_angle_beta                  93.4729
_cell_angle_gamma                 90.3252
loop_
_atom_site_label
_atom_site_type_symbol
_atom_site_fract_x
_atom_site_fract_y
_atom_site_fract_z
_atom_site_U_iso_or_equiv
_atom_site_adp_type
_atom_site_occupancy
C1     C     0.24854   0.06652   0.15086   0.00000  Uiso   1.00
C2     C     0.24984   0.26679   0.18253   0.00000  Uiso   1.00
C3     C     0.01826   0.07681   0.10032   0.00000  Uiso   1.00
C4     C     0.48255   0.25922   0.23042   0.00000  Uiso   1.00
C5     C     0.24783   0.01022   0.14217   0.00000  Uiso   1.00
C6     C     0.24831   0.32309   0.19115   0.00000  Uiso   1.00
C7     C     0.16475   0.16545   0.16772   0.00000  Uiso   1.00
C8     C     0.33540   0.16878   0.16591   0.00000  Uiso   1.00
C9     C     0.40878   0.21570   0.20187   0.00000  Uiso   1.00
C10    C     0.09199   0.11753   0.13545   0.00000  Uiso   1.00
C11    C     0.38370   0.17177   0.16465   0.00000  Uiso   1.00
C12    C     0.11681   0.16273   0.16952   0.00000  Uiso   1.00
C13    C     0.40439   0.12761   0.12924   0.00000  Uiso   1.00
C14    C     0.09627   0.20802   0.20265   0.00000  Uiso   1.00
C15    C     0.45078   0.12321   0.13243   0.00000  Uiso   1.00
C16    C     0.04990   0.21208   0.20011   0.00000  Uiso   1.00
C17    C     0.47683   0.16810   0.16663   0.00000  Uiso   1.00
C18    C     0.02386   0.16678   0.16701   0.00000  Uiso   1.00
C19    C     0.45593   0.21451   0.20035   0.00000  Uiso   1.00
C20    C     0.04482   0.12011   0.13405   0.00000  Uiso   1.00
C21    C     0.47191   0.07584   0.10137   0.00000  Uiso   1.00
C22    C     0.02891   0.26011   0.22933   0.00000  Uiso   1.00
Cu23   Cu    0.25501   0.17246   0.22813   0.00000  Uiso   1.00
Cu24   Cu    0.24500   0.16087   0.10521   0.00000  Uiso   1.00
H25    H     0.38320   0.09635   0.10035   0.00000  Uiso   1.00
H26    H     0.11754   0.24025   0.22958   0.00000  Uiso   1.00
H27    H     0.03361   0.04236   0.07303   0.00000  Uiso   1.00
H28    H     0.46739   0.29501   0.25382   0.00000  Uiso   1.00
H29    H     0.21518   0.12655   0.31627   0.00000  Uiso   1.00
H30    H     0.28481   0.20679   0.01706   0.00000  Uiso   1.00
N31    N     0.23745   0.15214   0.01284   0.00000  Uiso   1.00
N32    N     0.26256   0.18119   0.32049   0.00000  Uiso   1.00
O33    O     0.25326   0.09538   0.20659   0.00000  Uiso   1.00
O34    O     0.24675   0.23796   0.12674   0.00000  Uiso   1.00
O35    O     0.24480   0.08559   0.10279   0.00000  Uiso   1.00
O36    O     0.25520   0.24774   0.23055   0.00000  Uiso   1.00
O37    O     0.18936   0.17155   0.21857   0.00000  Uiso   1.00
O38    O     0.31065   0.16179   0.11476   0.00000  Uiso   1.00
O39    O     0.18090   0.16176   0.11477   0.00000  Uiso   1.00
O40    O     0.31910   0.17157   0.21857   0.00000  Uiso   1.00
C41    C     0.38469   0.26229   0.24310   0.00000  Uiso   1.00
C42    C     0.36269   0.30070   0.20816   0.00000  Uiso   1.00
C43    C     0.39307   0.01487   0.20778   0.00000  Uiso   1.00
H44    H     0.42413   0.00108   0.18551   0.00000  Uiso   1.00
H45    H     0.40169   0.03853   0.25545   0.00000  Uiso   1.00
H46    H     0.37542   0.04129   0.18224   0.00000  Uiso   1.00
H47    H     0.35143   0.27953   0.16035   0.00000  Uiso   1.00
H48    H     0.33300   0.31727   0.23247   0.00000  Uiso   1.00
H49    H     0.35930   0.24684   0.26823   0.00000  Uiso   1.00
H50    H     0.40545   0.28566   0.28239   0.00000  Uiso   1.00
C51    C     0.11591   0.06669   0.10283   0.00000  Uiso   1.00
C52    C     0.11386   0.02220   0.13722   0.00000  Uiso   1.00
C53    C     0.12962   0.30243   0.09855   0.00000  Uiso   1.00
H54    H     0.13231   0.27279   0.12703   0.00000  Uiso   1.00
H55    H     0.10539   0.28664   0.05889   0.00000  Uiso   1.00
H56    H     0.16276   0.30748   0.08123   0.00000  Uiso   1.00
H57    H     0.13570   0.03379   0.18024   0.00000  Uiso   1.00
H58    H     0.07932   0.01619   0.14915   0.00000  Uiso   1.00
H59    H     0.10234   0.05202   0.05482   0.00000  Uiso   1.00
H60    H     0.15154   0.07381   0.09773   0.00000  Uiso   1.00
C61    C     0.44674   0.02369   0.06847   0.00000  Uiso   1.00
C62    C     0.47190   0.30576   0.07398   0.00000  Uiso   1.00
C63    C     0.44207   0.25561   0.06178   0.00000  Uiso   1.00
H64    H     0.41182   0.26290   0.08826   0.00000  Uiso   1.00
H65    H     0.43244   0.24085   0.01234   0.00000  Uiso   1.00
H66    H     0.46106   0.22321   0.07555   0.00000  Uiso   1.00
H67    H     0.49843   0.29756   0.04080   0.00000  Uiso   1.00
H68    H     0.48793   0.31157   0.12091   0.00000  Uiso   1.00
H69    H     0.41385   0.02143   0.08712   0.00000  Uiso   1.00
H70    H     0.44084   0.02360   0.01928   0.00000  Uiso   1.00
C71    C     0.05482   0.31233   0.26069   0.00000  Uiso   1.00
C72    C     0.02940   0.03107   0.25966   0.00000  Uiso   1.00
C73    C     0.05873   0.08177   0.27912   0.00000  Uiso   1.00
H74    H     0.06373   0.09462   0.32973   0.00000  Uiso   1.00
H75    H     0.09157   0.07623   0.25890   0.00000  Uiso   1.00
H76    H     0.04161   0.11482   0.26395   0.00000  Uiso   1.00
H77    H     0.01467   0.02860   0.21262   0.00000  Uiso   1.00
H78    H     0.00209   0.03648   0.29148   0.00000  Uiso   1.00
H79    H     0.06419   0.31173   0.30901   0.00000  Uiso   1.00
H80    H     0.08585   0.31467   0.23740   0.00000  Uiso   1.00
H81    H     0.24747   0.31895   0.09534   0.00000  Uiso   1.00
H82    H     0.24872   0.01438   0.23798   0.00000  Uiso   1.00
C83    C     0.74854   0.06652   0.15086   0.00000  Uiso   1.00
C84    C     0.74984   0.26679   0.18253   0.00000  Uiso   1.00
C85    C     0.51826   0.07681   0.10032   0.00000  Uiso   1.00
C86    C     0.98255   0.25922   0.23042   0.00000  Uiso   1.00
C87    C     0.74783   0.01022   0.14217   0.00000  Uiso   1.00
C88    C     0.74831   0.32309   0.19115   0.00000  Uiso   1.00
C89    C     0.66475   0.16545   0.16772   0.00000  Uiso   1.00
C90    C     0.83540   0.16878   0.16591   0.00000  Uiso   1.00
C91    C     0.90878   0.21570   0.20187   0.00000  Uiso   1.00
C92    C     0.59199   0.11753   0.13545   0.00000  Uiso   1.00
C93    C     0.88370   0.17177   0.16465   0.00000  Uiso   1.00
C94    C     0.61681   0.16273   0.16952   0.00000  Uiso   1.00
C95    C     0.90439   0.12761   0.12924   0.00000  Uiso   1.00
C96    C     0.59627   0.20802   0.20265   0.00000  Uiso   1.00
C97    C     0.95078   0.12321   0.13243   0.00000  Uiso   1.00
C98    C     0.54990   0.21208   0.20011   0.00000  Uiso   1.00
C99    C     0.97683   0.16810   0.16663   0.00000  Uiso   1.00
C100   C     0.52386   0.16678   0.16701   0.00000  Uiso   1.00
C101   C     0.95593   0.21451   0.20035   0.00000  Uiso   1.00
C102   C     0.54482   0.12011   0.13405   0.00000  Uiso   1.00
C103   C     0.97191   0.07584   0.10137   0.00000  Uiso   1.00
C104   C     0.52891   0.26011   0.22933   0.00000  Uiso   1.00
Cu105  Cu    0.75501   0.17246   0.22813   0.00000  Uiso   1.00
Cu106  Cu    0.74500   0.16087   0.10521   0.00000  Uiso   1.00
H107   H     0.88320   0.09635   0.10035   0.00000  Uiso   1.00
H108   H     0.61754   0.24025   0.22958   0.00000  Uiso   1.00
H109   H     0.53361   0.04236   0.07303   0.00000  Uiso   1.00
H110   H     0.96739   0.29501   0.25382   0.00000  Uiso   1.00
H111   H     0.71518   0.12655   0.31627   0.00000  Uiso   1.00
H112   H     0.78481   0.20679   0.01706   0.00000  Uiso   1.00
N113   N     0.73745   0.15214   0.01284   0.00000  Uiso   1.00
N114   N     0.76256   0.18119   0.32049   0.00000  Uiso   1.00
O115   O     0.75326   0.09538   0.20659   0.00000  Uiso   1.00
O116   O     0.74675   0.23796   0.12674   0.00000  Uiso   1.00
O117   O     0.74480   0.08559   0.10279   0.00000  Uiso   1.00
O118   O     0.75520   0.24774   0.23055   0.00000  Uiso   1.00
O119   O     0.68936   0.17155   0.21857   0.00000  Uiso   1.00
O120   O     0.81065   0.16179   0.11476   0.00000  Uiso   1.00
O121   O     0.68090   0.16176   0.11477   0.00000  Uiso   1.00
O122   O     0.81910   0.17157   0.21857   0.00000  Uiso   1.00
C123   C     0.88469   0.26229   0.24310   0.00000  Uiso   1.00
C124   C     0.86269   0.30070   0.20816   0.00000  Uiso   1.00
C125   C     0.89307   0.01487   0.20778   0.00000  Uiso   1.00
H126   H     0.92413   0.00108   0.18551   0.00000  Uiso   1.00
H127   H     0.90169   0.03853   0.25545   0.00000  Uiso   1.00
H128   H     0.87542   0.04129   0.18224   0.00000  Uiso   1.00
H129   H     0.85143   0.27953   0.16035   0.00000  Uiso   1.00
H130   H     0.83300   0.31727   0.23247   0.00000  Uiso   1.00
H131   H     0.85930   0.24684   0.26823   0.00000  Uiso   1.00
H132   H     0.90545   0.28566   0.28239   0.00000  Uiso   1.00
C133   C     0.61591   0.06669   0.10283   0.00000  Uiso   1.00
C134   C     0.61386   0.02220   0.13722   0.00000  Uiso   1.00
C135   C     0.62962   0.30243   0.09855   0.00000  Uiso   1.00
H136   H     0.63231   0.27279   0.12703   0.00000  Uiso   1.00
H137   H     0.60539   0.28664   0.05889   0.00000  Uiso   1.00
H138   H     0.66276   0.30748   0.08123   0.00000  Uiso   1.00
H139   H     0.63570   0.03379   0.18024   0.00000  Uiso   1.00
H140   H     0.57932   0.01619   0.14915   0.00000  Uiso   1.00
H141   H     0.60234   0.05202   0.05482   0.00000  Uiso   1.00
H142   H     0.65154   0.07381   0.09773   0.00000  Uiso   1.00
C143   C     0.94674   0.02369   0.06847   0.00000  Uiso   1.00
C144   C     0.97190   0.30576   0.07398   0.00000  Uiso   1.00
C145   C     0.94207   0.25561   0.06178   0.00000  Uiso   1.00
H146   H     0.91182   0.26290   0.08826   0.00000  Uiso   1.00
H147   H     0.93244   0.24085   0.01234   0.00000  Uiso   1.00
H148   H     0.96106   0.22321   0.07555   0.00000  Uiso   1.00
H149   H     0.99843   0.29756   0.04080   0.00000  Uiso   1.00
H150   H     0.98793   0.31157   0.12091   0.00000  Uiso   1.00
H151   H     0.91385   0.02143   0.08712   0.00000  Uiso   1.00
H152   H     0.94084   0.02360   0.01928   0.00000  Uiso   1.00
C153   C     0.55482   0.31233   0.26069   0.00000  Uiso   1.00
C154   C     0.52940   0.03107   0.25966   0.00000  Uiso   1.00
C155   C     0.55873   0.08177   0.27912   0.00000  Uiso   1.00
H156   H     0.56373   0.09462   0.32973   0.00000  Uiso   1.00
H157   H     0.59157   0.07623   0.25890   0.00000  Uiso   1.00
H158   H     0.54161   0.11482   0.26395   0.00000  Uiso   1.00
H159   H     0.51467   0.02860   0.21262   0.00000  Uiso   1.00
H160   H     0.50209   0.03648   0.29148   0.00000  Uiso   1.00
H161   H     0.56419   0.31173   0.30901   0.00000  Uiso   1.00
H162   H     0.58585   0.31467   0.23740   0.00000  Uiso   1.00
H163   H     0.74747   0.31895   0.09534   0.00000  Uiso   1.00
H164   H     0.74872   0.01438   0.23798   0.00000  Uiso   1.00
C165   C     0.24854   0.39985   0.15086   0.00000  Uiso   1.00
C166   C     0.24984   0.60012   0.18253   0.00000  Uiso   1.00
C167   C     0.01826   0.41014   0.10032   0.00000  Uiso   1.00
C168   C     0.48255   0.59255   0.23042   0.00000  Uiso   1.00
C169   C     0.24783   0.34355   0.14217   0.00000  Uiso   1.00
C170   C     0.24831   0.65642   0.19115   0.00000  Uiso   1.00
C171   C     0.16475   0.49879   0.16772   0.00000  Uiso   1.00
C172   C     0.33540   0.50211   0.16591   0.00000  Uiso   1.00
C173   C     0.40878   0.54903   0.20187   0.00000  Uiso   1.00
C174   C     0.09199   0.45086   0.13545   0.00000  Uiso   1.00
C175   C     0.38370   0.50510   0.16465   0.00000  Uiso   1.00
C176   C     0.11681   0.49607   0.16952   0.00000  Uiso   1.00
C177   C     0.40439   0.46095   0.12924   0.00000  Uiso   1.00
C178   C     0.09627   0.54136   0.20265   0.00000  Uiso   1.00
C179   C     0.45078   0.45654   0.13243   0.00000  Uiso   1.00
C180   C     0.04990   0.54541   0.20011   0.00000  Uiso   1.00
C181   C     0.47683   0.50144   0.16663   0.00000  Uiso   1.00
C182   C     0.02386   0.50011   0.16701   0.00000  Uiso   1.00
C183   C     0.45593   0.54784   0.20035   0.00000  Uiso   1.00
C184   C     0.04482   0.45344   0.13405   0.00000  Uiso   1.00
C185   C     0.47191   0.40918   0.10137   0.00000  Uiso   1.00
C186   C     0.02891   0.59345   0.22933   0.00000  Uiso   1.00
Cu187  Cu    0.25501   0.50579   0.22813   0.00000  Uiso   1.00
Cu188  Cu    0.24500   0.49421   0.10521   0.00000  Uiso   1.00
H189   H     0.38320   0.42968   0.10035   0.00000  Uiso   1.00
H190   H     0.11754   0.57359   0.22958   0.00000  Uiso   1.00
H191   H     0.03361   0.37570   0.07303   0.00000  Uiso   1.00
H192   H     0.46739   0.62835   0.25382   0.00000  Uiso   1.00
H193   H     0.21518   0.45988   0.31627   0.00000  Uiso   1.00
H194   H     0.28481   0.54012   0.01706   0.00000  Uiso   1.00
N195   N     0.23745   0.48547   0.01284   0.00000  Uiso   1.00
N196   N     0.26256   0.51453   0.32049   0.00000  Uiso   1.00
O197   O     0.25326   0.42871   0.20659   0.00000  Uiso   1.00
O198   O     0.24675   0.57129   0.12674   0.00000  Uiso   1.00
O199   O     0.24480   0.41892   0.10279   0.00000  Uiso   1.00
O200   O     0.25520   0.58108   0.23055   0.00000  Uiso   1.00
O201   O     0.18936   0.50488   0.21857   0.00000  Uiso   1.00
O202   O     0.31065   0.49512   0.11476   0.00000  Uiso   1.00
O203   O     0.18090   0.49510   0.11477   0.00000  Uiso   1.00
O204   O     0.31910   0.50490   0.21857   0.00000  Uiso   1.00
C205   C     0.38469   0.59562   0.24310   0.00000  Uiso   1.00
C206   C     0.36269   0.63403   0.20816   0.00000  Uiso   1.00
C207   C     0.39307   0.34820   0.20778   0.00000  Uiso   1.00
H208   H     0.42413   0.33442   0.18551   0.00000  Uiso   1.00
H209   H     0.40169   0.37187   0.25545   0.00000  Uiso   1.00
H210   H     0.37542   0.37462   0.18224   0.00000  Uiso   1.00
H211   H     0.35143   0.61286   0.16035   0.00000  Uiso   1.00
H212   H     0.33300   0.65060   0.23247   0.00000  Uiso   1.00
H213   H     0.35930   0.58018   0.26823   0.00000  Uiso   1.00
H214   H     0.40545   0.61900   0.28239   0.00000  Uiso   1.00
C215   C     0.11591   0.40003   0.10283   0.00000  Uiso   1.00
C216   C     0.11386   0.35553   0.13722   0.00000  Uiso   1.00
C217   C     0.12962   0.63576   0.09855   0.00000  Uiso   1.00
H218   H     0.13231   0.60612   0.12703   0.00000  Uiso   1.00
H219   H     0.10539   0.61997   0.05889   0.00000  Uiso   1.00
H220   H     0.16276   0.64081   0.08123   0.00000  Uiso   1.00
H221   H     0.13570   0.36713   0.18024   0.00000  Uiso   1.00
H222   H     0.07932   0.34953   0.14915   0.00000  Uiso   1.00
H223   H     0.10234   0.38536   0.05482   0.00000  Uiso   1.00
H224   H     0.15154   0.40715   0.09773   0.00000  Uiso   1.00
C225   C     0.44674   0.35702   0.06847   0.00000  Uiso   1.00
C226   C     0.47190   0.63909   0.07398   0.00000  Uiso   1.00
C227   C     0.44207   0.58894   0.06178   0.00000  Uiso   1.00
H228   H     0.41182   0.59623   0.08826   0.00000  Uiso   1.00
H229   H     0.43244   0.57418   0.01234   0.00000  Uiso   1.00
H230   H     0.46106   0.55654   0.07555   0.00000  Uiso   1.00
H231   H     0.49843   0.63089   0.04080   0.00000  Uiso   1.00
H232   H     0.48793   0.64491   0.12091   0.00000  Uiso   1.00
H233   H     0.41385   0.35477   0.08712   0.00000  Uiso   1.00
H234   H     0.44084   0.35693   0.01928   0.00000  Uiso   1.00
C235   C     0.05482   0.64567   0.26069   0.00000  Uiso   1.00
C236   C     0.02940   0.36440   0.25966   0.00000  Uiso   1.00
C237   C     0.05873   0.41511   0.27912   0.00000  Uiso   1.00
H238   H     0.06373   0.42795   0.32973   0.00000  Uiso   1.00
H239   H     0.09157   0.40956   0.25890   0.00000  Uiso   1.00
H240   H     0.04161   0.44815   0.26395   0.00000  Uiso   1.00
H241   H     0.01467   0.36193   0.21262   0.00000  Uiso   1.00
H242   H     0.00209   0.36981   0.29148   0.00000  Uiso   1.00
H243   H     0.06419   0.64506   0.30901   0.00000  Uiso   1.00
H244   H     0.08585   0.64800   0.23740   0.00000  Uiso   1.00
H245   H     0.24747   0.65229   0.09534   0.00000  Uiso   1.00
H246   H     0.24872   0.34771   0.23798   0.00000  Uiso   1.00
C247   C     0.74854   0.39985   0.15086   0.00000  Uiso   1.00
C248   C     0.74984   0.60012   0.18253   0.00000  Uiso   1.00
C249   C     0.51826   0.41014   0.10032   0.00000  Uiso   1.00
C250   C     0.98255   0.59255   0.23042   0.00000  Uiso   1.00
C251   C     0.74783   0.34355   0.14217   0.00000  Uiso   1.00
C252   C     0.74831   0.65642   0.19115   0.00000  Uiso   1.00
C253   C     0.66475   0.49879   0.16772   0.00000  Uiso   1.00
C254   C     0.83540   0.50211   0.16591   0.00000  Uiso   1.00
C255   C     0.90878   0.54903   0.20187   0.00000  Uiso   1.00
C256   C     0.59199   0.45086   0.13545   0.00000  Uiso   1.00
C257   C     0.88370   0.50510   0.16465   0.00000  Uiso   1.00
C258   C     0.61681   0.49607   0.16952   0.00000  Uiso   1.00
C259   C     0.90439   0.46095   0.12924   0.00000  Uiso   1.00
C260   C     0.59627   0.54136   0.20265   0.00000  Uiso   1.00
C261   C     0.95078   0.45654   0.13243   0.00000  Uiso   1.00
C262   C     0.54990   0.54541   0.20011   0.00000  Uiso   1.00
C263   C     0.97683   0.50144   0.16663   0.00000  Uiso   1.00
C264   C     0.52386   0.50011   0.16701   0.00000  Uiso   1.00
C265   C     0.95593   0.54784   0.20035   0.00000  Uiso   1.00
C266   C     0.54482   0.45344   0.13405   0.00000  Uiso   1.00
C267   C     0.97191   0.40918   0.10137   0.00000  Uiso   1.00
C268   C     0.52891   0.59345   0.22933   0.00000  Uiso   1.00
Cu269  Cu    0.75501   0.50579   0.22813   0.00000  Uiso   1.00
Cu270  Cu    0.74500   0.49421   0.10521   0.00000  Uiso   1.00
H271   H     0.88320   0.42968   0.10035   0.00000  Uiso   1.00
H272   H     0.61754   0.57359   0.22958   0.00000  Uiso   1.00
H273   H     0.53361   0.37570   0.07303   0.00000  Uiso   1.00
H274   H     0.96739   0.62835   0.25382   0.00000  Uiso   1.00
H275   H     0.71518   0.45988   0.31627   0.00000  Uiso   1.00
H276   H     0.78481   0.54012   0.01706   0.00000  Uiso   1.00
N277   N     0.73745   0.48547   0.01284   0.00000  Uiso   1.00
N278   N     0.76256   0.51453   0.32049   0.00000  Uiso   1.00
O279   O     0.75326   0.42871   0.20659   0.00000  Uiso   1.00
O280   O     0.74675   0.57129   0.12674   0.00000  Uiso   1.00
O281   O     0.74480   0.41892   0.10279   0.00000  Uiso   1.00
O282   O     0.75520   0.58108   0.23055   0.00000  Uiso   1.00
O283   O     0.68936   0.50488   0.21857   0.00000  Uiso   1.00
O284   O     0.81065   0.49512   0.11476   0.00000  Uiso   1.00
O285   O     0.68090   0.49510   0.11477   0.00000  Uiso   1.00
O286   O     0.81910   0.50490   0.21857   0.00000  Uiso   1.00
C287   C     0.88469   0.59562   0.24310   0.00000  Uiso   1.00
C288   C     0.86269   0.63403   0.20816   0.00000  Uiso   1.00
C289   C     0.89307   0.34820   0.20778   0.00000  Uiso   1.00
H290   H     0.92413   0.33442   0.18551   0.00000  Uiso   1.00
H291   H     0.90169   0.37187   0.25545   0.00000  Uiso   1.00
H292   H     0.87542   0.37462   0.18224   0.00000  Uiso   1.00
H293   H     0.85143   0.61286   0.16035   0.00000  Uiso   1.00
H294   H     0.83300   0.65060   0.23247   0.00000  Uiso   1.00
H295   H     0.85930   0.58018   0.26823   0.00000  Uiso   1.00
H296   H     0.90545   0.61900   0.28239   0.00000  Uiso   1.00
C297   C     0.61591   0.40003   0.10283   0.00000  Uiso   1.00
C298   C     0.61386   0.35553   0.13722   0.00000  Uiso   1.00
C299   C     0.62962   0.63576   0.09855   0.00000  Uiso   1.00
H300   H     0.63231   0.60612   0.12703   0.00000  Uiso   1.00
H301   H     0.60539   0.61997   0.05889   0.00000  Uiso   1.00
H302   H     0.66276   0.64081   0.08123   0.00000  Uiso   1.00
H303   H     0.63570   0.36713   0.18024   0.00000  Uiso   1.00
H304   H     0.57932   0.34953   0.14915   0.00000  Uiso   1.00
H305   H     0.60234   0.38536   0.05482   0.00000  Uiso   1.00
H306   H     0.65154   0.40715   0.09773   0.00000  Uiso   1.00
C307   C     0.94674   0.35702   0.06847   0.00000  Uiso   1.00
C308   C     0.97190   0.63909   0.07398   0.00000  Uiso   1.00
C309   C     0.94207   0.58894   0.06178   0.00000  Uiso   1.00
H310   H     0.91182   0.59623   0.08826   0.00000  Uiso   1.00
H311   H     0.93244   0.57418   0.01234   0.00000  Uiso   1.00
H312   H     0.96106   0.55654   0.07555   0.00000  Uiso   1.00
H313   H     0.99843   0.63089   0.04080   0.00000  Uiso   1.00
H314   H     0.98793   0.64491   0.12091   0.00000  Uiso   1.00
H315   H     0.91385   0.35477   0.08712   0.00000  Uiso   1.00
H316   H     0.94084   0.35693   0.01928   0.00000  Uiso   1.00
C317   C     0.55482   0.64567   0.26069   0.00000  Uiso   1.00
C318   C     0.52940   0.36440   0.25966   0.00000  Uiso   1.00
C319   C     0.55873   0.41511   0.27912   0.00000  Uiso   1.00
H320   H     0.56373   0.42795   0.32973   0.00000  Uiso   1.00
H321   H     0.59157   0.40956   0.25890   0.00000  Uiso   1.00
H322   H     0.54161   0.44815   0.26395   0.00000  Uiso   1.00
H323   H     0.51467   0.36193   0.21262   0.00000  Uiso   1.00
H324   H     0.50209   0.36981   0.29148   0.00000  Uiso   1.00
H325   H     0.56419   0.64506   0.30901   0.00000  Uiso   1.00
H326   H     0.58585   0.64800   0.23740   0.00000  Uiso   1.00
H327   H     0.74747   0.65229   0.09534   0.00000  Uiso   1.00
H328   H     0.74872   0.34771   0.23798   0.00000  Uiso   1.00
C329   C     0.24854   0.73318   0.15086   0.00000  Uiso   1.00
C330   C     0.24984   0.93345   0.18253   0.00000  Uiso   1.00
C331   C     0.01826   0.74347   0.10032   0.00000  Uiso   1.00
C332   C     0.48255   0.92588   0.23042   0.00000  Uiso   1.00
C333   C     0.24783   0.67688   0.14217   0.00000  Uiso   1.00
C334   C     0.24831   0.98975   0.19115   0.00000  Uiso   1.00
C335   C     0.16475   0.83212   0.16772   0.00000  Uiso   1.00
C336   C     0.33540   0.83545   0.16591   0.00000  Uiso   1.00
C337   C     0.40878   0.88237   0.20187   0.00000  Uiso   1.00
C338   C     0.09199   0.78420   0.13545   0.00000  Uiso   1.00
C339   C     0.38370   0.83843   0.16465   0.00000  Uiso   1.00
C340   C     0.11681   0.82940   0.16952   0.00000  Uiso   1.00
C341   C     0.40439   0.79428   0.12924   0.00000  Uiso   1.00
C342   C     0.09627   0.87469   0.20265   0.00000  Uiso   1.00
C343   C     0.45078   0.78988   0.13243   0.00000  Uiso   1.00
C344   C     0.04990   0.87875   0.20011   0.00000  Uiso   1.00
C345   C     0.47683   0.83477   0.16663   0.00000  Uiso   1.00
C346   C     0.02386   0.83345   0.16701   0.00000  Uiso   1.00
C347   C     0.45593   0.88117   0.20035   0.00000  Uiso   1.00
C348   C     0.04482   0.78677   0.13405   0.00000  Uiso   1.00
C349   C     0.47191   0.74251   0.10137   0.00000  Uiso   1.00
C350   C     0.02891   0.92678   0.22933   0.00000  Uiso   1.00
Cu351  Cu    0.25501   0.83913   0.22813   0.00000  Uiso   1.00
Cu352  Cu    0.24500   0.82754   0.10521   0.00000  Uiso   1.00
H353   H     0.38320   0.76301   0.10035   0.00000  Uiso   1.00
H354   H     0.11754   0.90692   0.22958   0.00000  Uiso   1.00
H355   H     0.03361   0.70903   0.07303   0.00000  Uiso   1.00
H356   H     0.46739   0.96168   0.25382   0.00000  Uiso   1.00
H357   H     0.21518   0.79322   0.31627   0.00000  Uiso   1.00
H358   H     0.28481   0.87346   0.01706   0.00000  Uiso   1.00
N359   N     0.23745   0.81881   0.01284   0.00000  Uiso   1.00
N360   N     0.26256   0.84786   0.32049   0.00000  Uiso   1.00
O361   O     0.25326   0.76204   0.20659   0.00000  Uiso   1.00
O362   O     0.24675   0.90462   0.12674   0.00000  Uiso   1.00
O363   O     0.24480   0.75226   0.10279   0.00000  Uiso   1.00
O364   O     0.25520   0.91441   0.23055   0.00000  Uiso   1.00
O365   O     0.18936   0.83821   0.21857   0.00000  Uiso   1.00
O366   O     0.31065   0.82845   0.11476   0.00000  Uiso   1.00
O367   O     0.18090   0.82843   0.11477   0.00000  Uiso   1.00
O368   O     0.31910   0.83824   0.21857   0.00000  Uiso   1.00
C369   C     0.38469   0.92896   0.24310   0.00000  Uiso   1.00
C370   C     0.36269   0.96736   0.20816   0.00000  Uiso   1.00
C371   C     0.39307   0.68153   0.20778   0.00000  Uiso   1.00
H372   H     0.42413   0.66775   0.18551   0.00000  Uiso   1.00
H373   H     0.40169   0.70520   0.25545   0.00000  Uiso   1.00
H374   H     0.37542   0.70795   0.18224   0.00000  Uiso   1.00
H375   H     0.35143   0.94619   0.16035   0.00000  Uiso   1.00
H376   H     0.33300   0.98394   0.23247   0.00000  Uiso   1.00
H377   H     0.35930   0.91351   0.26823   0.00000  Uiso   1.00
H378   H     0.40545   0.95233   0.28239   0.00000  Uiso   1.00
C379   C     0.11591   0.73336   0.10283   0.00000  Uiso   1.00
C380   C     0.11386   0.68887   0.13722   0.00000  Uiso   1.00
C381   C     0.12962   0.96910   0.09855   0.00000  Uiso   1.00
H382   H     0.13231   0.93946   0.12703   0.00000  Uiso   1.00
H383   H     0.10539   0.95330   0.05889   0.00000  Uiso   1.00
H384   H     0.16276   0.97414   0.08123   0.00000  Uiso   1.00
H385   H     0.13570   0.70046   0.18024   0.00000  Uiso   1.00
H386   H     0.07932   0.68286   0.14915   0.00000  Uiso   1.00
H387   H     0.10234   0.71869   0.05482   0.00000  Uiso   1.00
H388   H     0.15154   0.74048   0.09773   0.00000  Uiso   1.00
C389   C     0.44674   0.69035   0.06847   0.00000  Uiso   1.00
C390   C     0.47190   0.97243   0.07398   0.00000  Uiso   1.00
C391   C     0.44207   0.92228   0.06178   0.00000  Uiso   1.00
H392   H     0.41182   0.92956   0.08826   0.00000  Uiso   1.00
H393   H     0.43244   0.90751   0.01234   0.00000  Uiso   1.00
H394   H     0.46106   0.88987   0.07555   0.00000  Uiso   1.00
H395   H     0.49843   0.96422   0.04080   0.00000  Uiso   1.00
H396   H     0.48793   0.97824   0.12091   0.00000  Uiso   1.00
H397   H     0.41385   0.68810   0.08712   0.00000  Uiso   1.00
H398   H     0.44084   0.69027   0.01928   0.00000  Uiso   1.00
C399   C     0.05482   0.97900   0.26069   0.00000  Uiso   1.00
C400   C     0.02940   0.69773   0.25966   0.00000  Uiso   1.00
C401   C     0.05873   0.74844   0.27912   0.00000  Uiso   1.00
H402   H     0.06373   0.76128   0.32973   0.00000  Uiso   1.00
H403   H     0.09157   0.74290   0.25890   0.00000  Uiso   1.00
H404   H     0.04161   0.78149   0.26395   0.00000  Uiso   1.00
H405   H     0.01467   0.69526   0.21262   0.00000  Uiso   1.00
H406   H     0.00209   0.70315   0.29148   0.00000  Uiso   1.00
H407   H     0.06419   0.97840   0.30901   0.00000  Uiso   1.00
H408   H     0.08585   0.98134   0.23740   0.00000  Uiso   1.00
H409   H     0.24747   0.98562   0.09534   0.00000  Uiso   1.00
H410   H     0.24872   0.68104   0.23798   0.00000  Uiso   1.00
C411   C     0.74854   0.73318   0.15086   0.00000  Uiso   1.00
C412   C     0.74984   0.93345   0.18253   0.00000  Uiso   1.00
C413   C     0.51826   0.74347   0.10032   0.00000  Uiso   1.00
C414   C     0.98255   0.92588   0.23042   0.00000  Uiso   1.00
C415   C     0.74783   0.67688   0.14217   0.00000  Uiso   1.00
C416   C     0.74831   0.98975   0.19115   0.00000  Uiso   1.00
C417   C     0.66475   0.83212   0.16772   0.00000  Uiso   1.00
C418   C     0.83540   0.83545   0.16591   0.00000  Uiso   1.00
C419   C     0.90878   0.88237   0.20187   0.00000  Uiso   1.00
C420   C     0.59199   0.78420   0.13545   0.00000  Uiso   1.00
C421   C     0.88370   0.83843   0.16465   0.00000  Uiso   1.00
C422   C     0.61681   0.82940   0.16952   0.00000  Uiso   1.00
C423   C     0.90439   0.79428   0.12924   0.00000  Uiso   1.00
C424   C     0.59627   0.87469   0.20265   0.00000  Uiso   1.00
C425   C     0.95078   0.78988   0.13243   0.00000  Uiso   1.00
C426   C     0.54990   0.87875   0.20011   0.00000  Uiso   1.00
C427   C     0.97683   0.83477   0.16663   0.00000  Uiso   1.00
C428   C     0.52386   0.83345   0.16701   0.00000  Uiso   1.00
C429   C     0.95593   0.88117   0.20035   0.00000  Uiso   1.00
C430   C     0.54482   0.78677   0.13405   0.00000  Uiso   1.00
C431   C     0.97191   0.74251   0.10137   0.00000  Uiso   1.00
C432   C     0.52891   0.92678   0.22933   0.00000  Uiso   1.00
Cu433  Cu    0.75501   0.83913   0.22813   0.00000  Uiso   1.00
Cu434  Cu    0.74500   0.82754   0.10521   0.00000  Uiso   1.00
H435   H     0.88320   0.76301   0.10035   0.00000  Uiso   1.00
H436   H     0.61754   0.90692   0.22958   0.00000  Uiso   1.00
H437   H     0.53361   0.70903   0.07303   0.00000  Uiso   1.00
H438   H     0.96739   0.96168   0.25382   0.00000  Uiso   1.00
H439   H     0.71518   0.79322   0.31627   0.00000  Uiso   1.00
H440   H     0.78481   0.87346   0.01706   0.00000  Uiso   1.00
N441   N     0.73745   0.81881   0.01284   0.00000  Uiso   1.00
N442   N     0.76256   0.84786   0.32049   0.00000  Uiso   1.00
O443   O     0.75326   0.76204   0.20659   0.00000  Uiso   1.00
O444   O     0.74675   0.90462   0.12674   0.00000  Uiso   1.00
O445   O     0.74480   0.75226   0.10279   0.00000  Uiso   1.00
O446   O     0.75520   0.91441   0.23055   0.00000  Uiso   1.00
O447   O     0.68936   0.83821   0.21857   0.00000  Uiso   1.00
O448   O     0.81065   0.82845   0.11476   0.00000  Uiso   1.00
O449   O     0.68090   0.82843   0.11477   0.00000  Uiso   1.00
O450   O     0.81910   0.83824   0.21857   0.00000  Uiso   1.00
C451   C     0.88469   0.92896   0.24310   0.00000  Uiso   1.00
C452   C     0.86269   0.96736   0.20816   0.00000  Uiso   1.00
C453   C     0.89307   0.68153   0.20778   0.00000  Uiso   1.00
H454   H     0.92413   0.66775   0.18551   0.00000  Uiso   1.00
H455   H     0.90169   0.70520   0.25545   0.00000  Uiso   1.00
H456   H     0.87542   0.70795   0.18224   0.00000  Uiso   1.00
H457   H     0.85143   0.94619   0.16035   0.00000  Uiso   1.00
H458   H     0.83300   0.98394   0.23247   0.00000  Uiso   1.00
H459   H     0.85930   0.91351   0.26823   0.00000  Uiso   1.00
H460   H     0.90545   0.95233   0.28239   0.00000  Uiso   1.00
C461   C     0.61591   0.73336   0.10283   0.00000  Uiso   1.00
C462   C     0.61386   0.68887   0.13722   0.00000  Uiso   1.00
C463   C     0.62962   0.96910   0.09855   0.00000  Uiso   1.00
H464   H     0.63231   0.93946   0.12703   0.00000  Uiso   1.00
H465   H     0.60539   0.95330   0.05889   0.00000  Uiso   1.00
H466   H     0.66276   0.97414   0.08123   0.00000  Uiso   1.00
H467   H     0.63570   0.70046   0.18024   0.00000  Uiso   1.00
H468   H     0.57932   0.68286   0.14915   0.00000  Uiso   1.00
H469   H     0.60234   0.71869   0.05482   0.00000  Uiso   1.00
H470   H     0.65154   0.74048   0.09773   0.00000  Uiso   1.00
C471   C     0.94674   0.69035   0.06847   0.00000  Uiso   1.00
C472   C     0.97190   0.97243   0.07398   0.00000  Uiso   1.00
C473   C     0.94207   0.92228   0.06178   0.00000  Uiso   1.00
H474   H     0.91182   0.92956   0.08826   0.00000  Uiso   1.00
H475   H     0.93244   0.90751   0.01234   0.00000  Uiso   1.00
H476   H     0.96106   0.88987   0.07555   0.00000  Uiso   1.00
H477   H     0.99843   0.96422   0.04080   0.00000  Uiso   1.00
H478   H     0.98793   0.97824   0.12091   0.00000  Uiso   1.00
H479   H     0.91385   0.68810   0.08712   0.00000  Uiso   1.00
H480   H     0.94084   0.69027   0.01928   0.00000  Uiso   1.00
C481   C     0.55482   0.97900   0.26069   0.00000  Uiso   1.00
C482   C     0.52940   0.69773   0.25966   0.00000  Uiso   1.00
C483   C     0.55873   0.74844   0.27912   0.00000  Uiso   1.00
H484   H     0.56373   0.76128   0.32973   0.00000  Uiso   1.00
H485   H     0.59157   0.74290   0.25890   0.00000  Uiso   1.00
H486   H     0.54161   0.78149   0.26395   0.00000  Uiso   1.00
H487   H     0.51467   0.69526   0.21262   0.00000  Uiso   1.00
H488   H     0.50209   0.70315   0.29148   0.00000  Uiso   1.00
H489   H     0.56419   0.97840   0.30901   0.00000  Uiso   1.00
H490   H     0.58585   0.98134   0.23740   0.00000  Uiso   1.00
H491   H     0.74747   0.98562   0.09534   0.00000  Uiso   1.00
H492   H     0.74872   0.68104   0.23798   0.00000  Uiso   1.00
C493   C     0.24854   0.06652   0.48420   0.00000  Uiso   1.00
C494   C     0.24984   0.26679   0.51586   0.00000  Uiso   1.00
C495   C     0.01826   0.07681   0.43365   0.00000  Uiso   1.00
C496   C     0.48255   0.25922   0.56375   0.00000  Uiso   1.00
C497   C     0.24783   0.01022   0.47551   0.00000  Uiso   1.00
C498   C     0.24831   0.32309   0.52449   0.00000  Uiso   1.00
C499   C     0.16475   0.16545   0.50105   0.00000  Uiso   1.00
C500   C     0.33540   0.16878   0.49924   0.00000  Uiso   1.00
C501   C     0.40878   0.21570   0.53520   0.00000  Uiso   1.00
C502   C     0.09199   0.11753   0.46878   0.00000  Uiso   1.00
C503   C     0.38370   0.17177   0.49799   0.00000  Uiso   1.00
C504   C     0.11681   0.16273   0.50286   0.00000  Uiso   1.00
C505   C     0.40439   0.12761   0.46257   0.00000  Uiso   1.00
C506   C     0.09627   0.20802   0.53598   0.00000  Uiso   1.00
C507   C     0.45078   0.12321   0.46576   0.00000  Uiso   1.00
C508   C     0.04990   0.21208   0.53344   0.00000  Uiso   1.00
C509   C     0.47683   0.16810   0.49996   0.00000  Uiso   1.00
C510   C     0.02386   0.16678   0.50034   0.00000  Uiso   1.00
C511   C     0.45593   0.21451   0.53369   0.00000  Uiso   1.00
C512   C     0.04482   0.12011   0.46738   0.00000  Uiso   1.00
C513   C     0.47191   0.07584   0.43470   0.00000  Uiso   1.00
C514   C     0.02891   0.26011   0.56267   0.00000  Uiso   1.00
Cu515  Cu    0.25501   0.17246   0.56146   0.00000  Uiso   1.00
Cu516  Cu    0.24500   0.16087   0.43854   0.00000  Uiso   1.00
H517   H     0.38320   0.09635   0.43368   0.00000  Uiso   1.00
H518   H     0.11754   0.24025   0.56291   0.00000  Uiso   1.00
H519   H     0.03361   0.04236   0.40636   0.00000  Uiso   1.00
H520   H     0.46739   0.29501   0.58715   0.00000  Uiso   1.00
H521   H     0.21518   0.12655   0.64961   0.00000  Uiso   1.00
H522   H     0.28481   0.20679   0.35039   0.00000  Uiso   1.00
N523   N     0.23745   0.15214   0.34617   0.00000  Uiso   1.00
N524   N     0.26256   0.18119   0.65383   0.00000  Uiso   1.00
O525   O     0.25326   0.09538   0.53992   0.00000  Uiso   1.00
O526   O     0.24675   0.23796   0.46008   0.00000  Uiso   1.00
O527   O     0.24480   0.08559   0.43612   0.00000  Uiso   1.00
O528   O     0.25520   0.24774   0.56388   0.00000  Uiso   1.00
O529   O     0.18936   0.17155   0.55191   0.00000  Uiso   1.00
O530   O     0.31065   0.16179   0.44809   0.00000  Uiso   1.00
O531   O     0.18090   0.16176   0.44810   0.00000  Uiso   1.00
O532   O     0.31910   0.17157   0.55190   0.00000  Uiso   1.00
C533   C     0.38469   0.26229   0.57643   0.00000  Uiso   1.00
C534   C     0.36269   0.30070   0.54149   0.00000  Uiso   1.00
C535   C     0.39307   0.01487   0.54111   0.00000  Uiso   1.00
H536   H     0.42413   0.00108   0.51884   0.00000  Uiso   1.00
H537   H     0.40169   0.03853   0.58879   0.00000  Uiso   1.00
H538   H     0.37542   0.04129   0.51558   0.00000  Uiso   1.00
H539   H     0.35143   0.27953   0.49369   0.00000  Uiso   1.00
H540   H     0.33300   0.31727   0.56580   0.00000  Uiso   1.00
H541   H     0.35930   0.24684   0.60157   0.00000  Uiso   1.00
H542   H     0.40545   0.28566   0.61572   0.00000  Uiso   1.00
C543   C     0.11591   0.06669   0.43617   0.00000  Uiso   1.00
C544   C     0.11386   0.02220   0.47055   0.00000  Uiso   1.00
C545   C     0.12962   0.30243   0.43188   0.00000  Uiso   1.00
H546   H     0.13231   0.27279   0.46036   0.00000  Uiso   1.00
H547   H     0.10539   0.28664   0.39223   0.00000  Uiso   1.00
H548   H     0.16276   0.30748   0.41456   0.00000  Uiso   1.00
H549   H     0.13570   0.03379   0.51358   0.00000  Uiso   1.00
H550   H     0.07932   0.01619   0.48249   0.00000  Uiso   1.00
H551   H     0.10234   0.05202   0.38815   0.00000  Uiso   1.00
H552   H     0.15154   0.07381   0.43107   0.00000  Uiso   1.00
C553   C     0.44674   0.02369   0.40180   0.00000  Uiso   1.00
C554   C     0.47190   0.30576   0.40731   0.00000  Uiso   1.00
C555   C     0.44207   0.25561   0.39511   0.00000  Uiso   1.00
H556   H     0.41182   0.26290   0.42159   0.00000  Uiso   1.00
H557   H     0.43244   0.24085   0.34568   0.00000  Uiso   1.00
H558   H     0.46106   0.22321   0.40888   0.00000  Uiso   1.00
H559   H     0.49843   0.29756   0.37413   0.00000  Uiso   1.00
H560   H     0.48793   0.31157   0.45424   0.00000  Uiso   1.00
H561   H     0.41385   0.02143   0.42045   0.00000  Uiso   1.00
H562   H     0.44084   0.02360   0.35262   0.00000  Uiso   1.00
C563   C     0.05482   0.31233   0.59403   0.00000  Uiso   1.00
C564   C     0.02940   0.03107   0.59299   0.00000  Uiso   1.00
C565   C     0.05873   0.08177   0.61245   0.00000  Uiso   1.00
H566   H     0.06373   0.09462   0.66306   0.00000  Uiso   1.00
H567   H     0.09157   0.07623   0.59223   0.00000  Uiso   1.00
H568   H     0.04161   0.11482   0.59729   0.00000  Uiso   1.00
H569   H     0.01467   0.02860   0.54596   0.00000  Uiso   1.00
H570   H     0.00209   0.03648   0.62482   0.00000  Uiso   1.00
H571   H     0.06419   0.31173   0.64235   0.00000  Uiso   1.00
H572   H     0.08585   0.31467   0.57074   0.00000  Uiso   1.00
H573   H     0.24747   0.31895   0.42867   0.00000  Uiso   1.00
H574   H     0.24872   0.01438   0.57132   0.00000  Uiso   1.00
C575   C     0.74854   0.06652   0.48420   0.00000  Uiso   1.00
C576   C     0.74984   0.26679   0.51586   0.00000  Uiso   1.00
C577   C     0.51826   0.07681   0.43365   0.00000  Uiso   1.00
C578   C     0.98255   0.25922   0.56375   0.00000  Uiso   1.00
C579   C     0.74783   0.01022   0.47551   0.00000  Uiso   1.00
C580   C     0.74831   0.32309   0.52449   0.00000  Uiso   1.00
C581   C     0.66475   0.16545   0.50105   0.00000  Uiso   1.00
C582   C     0.83540   0.16878   0.49924   0.00000  Uiso   1.00
C583   C     0.90878   0.21570   0.53520   0.00000  Uiso   1.00
C584   C     0.59199   0.11753   0.46878   0.00000  Uiso   1.00
C585   C     0.88370   0.17177   0.49799   0.00000  Uiso   1.00
C586   C     0.61681   0.16273   0.50286   0.00000  Uiso   1.00
C587   C     0.90439   0.12761   0.46257   0.00000  Uiso   1.00
C588   C     0.59627   0.20802   0.53598   0.00000  Uiso   1.00
C589   C     0.95078   0.12321   0.46576   0.00000  Uiso   1.00
C590   C     0.54990   0.21208   0.53344   0.00000  Uiso   1.00
C591   C     0.97683   0.16810   0.49996   0.00000  Uiso   1.00
C592   C     0.52386   0.16678   0.50034   0.00000  Uiso   1.00
C593   C     0.95593   0.21451   0.53369   0.00000  Uiso   1.00
C594   C     0.54482   0.12011   0.46738   0.00000  Uiso   1.00
C595   C     0.97191   0.07584   0.43470   0.00000  Uiso   1.00
C596   C     0.52891   0.26011   0.56267   0.00000  Uiso   1.00
Cu597  Cu    0.75501   0.17246   0.56146   0.00000  Uiso   1.00
Cu598  Cu    0.74500   0.16087   0.43854   0.00000  Uiso   1.00
H599   H     0.88320   0.09635   0.43368   0.00000  Uiso   1.00
H600   H     0.61754   0.24025   0.56291   0.00000  Uiso   1.00
H601   H     0.53361   0.04236   0.40636   0.00000  Uiso   1.00
H602   H     0.96739   0.29501   0.58715   0.00000  Uiso   1.00
H603   H     0.71518   0.12655   0.64961   0.00000  Uiso   1.00
H604   H     0.78481   0.20679   0.35039   0.00000  Uiso   1.00
N605   N     0.73745   0.15214   0.34617   0.00000  Uiso   1.00
N606   N     0.76256   0.18119   0.65383   0.00000  Uiso   1.00
O607   O     0.75326   0.09538   0.53992   0.00000  Uiso   1.00
O608   O     0.74675   0.23796   0.46008   0.00000  Uiso   1.00
O609   O     0.74480   0.08559   0.43612   0.00000  Uiso   1.00
O610   O     0.75520   0.24774   0.56388   0.00000  Uiso   1.00
O611   O     0.68936   0.17155   0.55191   0.00000  Uiso   1.00
O612   O     0.81065   0.16179   0.44809   0.00000  Uiso   1.00
O613   O     0.68090   0.16176   0.44810   0.00000  Uiso   1.00
O614   O     0.81910   0.17157   0.55190   0.00000  Uiso   1.00
C615   C     0.88469   0.26229   0.57643   0.00000  Uiso   1.00
C616   C     0.86269   0.30070   0.54149   0.00000  Uiso   1.00
C617   C     0.89307   0.01487   0.54111   0.00000  Uiso   1.00
H618   H     0.92413   0.00108   0.51884   0.00000  Uiso   1.00
H619   H     0.90169   0.03853   0.58879   0.00000  Uiso   1.00
H620   H     0.87542   0.04129   0.51558   0.00000  Uiso   1.00
H621   H     0.85143   0.27953   0.49369   0.00000  Uiso   1.00
H622   H     0.83300   0.31727   0.56580   0.00000  Uiso   1.00
H623   H     0.85930   0.24684   0.60157   0.00000  Uiso   1.00
H624   H     0.90545   0.28566   0.61572   0.00000  Uiso   1.00
C625   C     0.61591   0.06669   0.43617   0.00000  Uiso   1.00
C626   C     0.61386   0.02220   0.47055   0.00000  Uiso   1.00
C627   C     0.62962   0.30243   0.43188   0.00000  Uiso   1.00
H628   H     0.63231   0.27279   0.46036   0.00000  Uiso   1.00
H629   H     0.60539   0.28664   0.39223   0.00000  Uiso   1.00
H630   H     0.66276   0.30748   0.41456   0.00000  Uiso   1.00
H631   H     0.63570   0.03379   0.51358   0.00000  Uiso   1.00
H632   H     0.57932   0.01619   0.48249   0.00000  Uiso   1.00
H633   H     0.60234   0.05202   0.38815   0.00000  Uiso   1.00
H634   H     0.65154   0.07381   0.43107   0.00000  Uiso   1.00
C635   C     0.94674   0.02369   0.40180   0.00000  Uiso   1.00
C636   C     0.97190   0.30576   0.40731   0.00000  Uiso   1.00
C637   C     0.94207   0.25561   0.39511   0.00000  Uiso   1.00
H638   H     0.91182   0.26290   0.42159   0.00000  Uiso   1.00
H639   H     0.93244   0.24085   0.34568   0.00000  Uiso   1.00
H640   H     0.96106   0.22321   0.40888   0.00000  Uiso   1.00
H641   H     0.99843   0.29756   0.37413   0.00000  Uiso   1.00
H642   H     0.98793   0.31157   0.45424   0.00000  Uiso   1.00
H643   H     0.91385   0.02143   0.42045   0.00000  Uiso   1.00
H644   H     0.94084   0.02360   0.35262   0.00000  Uiso   1.00
C645   C     0.55482   0.31233   0.59403   0.00000  Uiso   1.00
C646   C     0.52940   0.03107   0.59299   0.00000  Uiso   1.00
C647   C     0.55873   0.08177   0.61245   0.00000  Uiso   1.00
H648   H     0.56373   0.09462   0.66306   0.00000  Uiso   1.00
H649   H     0.59157   0.07623   0.59223   0.00000  Uiso   1.00
H650   H     0.54161   0.11482   0.59729   0.00000  Uiso   1.00
H651   H     0.51467   0.02860   0.54596   0.00000  Uiso   1.00
H652   H     0.50209   0.03648   0.62482   0.00000  Uiso   1.00
H653   H     0.56419   0.31173   0.64235   0.00000  Uiso   1.00
H654   H     0.58585   0.31467   0.57074   0.00000  Uiso   1.00
H655   H     0.74747   0.31895   0.42867   0.00000  Uiso   1.00
H656   H     0.74872   0.01438   0.57132   0.00000  Uiso   1.00
C657   C     0.24854   0.39985   0.48420   0.00000  Uiso   1.00
C658   C     0.24984   0.60012   0.51586   0.00000  Uiso   1.00
C659   C     0.01826   0.41014   0.43365   0.00000  Uiso   1.00
C660   C     0.48255   0.59255   0.56375   0.00000  Uiso   1.00
C661   C     0.24783   0.34355   0.47551   0.00000  Uiso   1.00
C662   C     0.24831   0.65642   0.52449   0.00000  Uiso   1.00
C663   C     0.16475   0.49879   0.50105   0.00000  Uiso   1.00
C664   C     0.33540   0.50211   0.49924   0.00000  Uiso   1.00
C665   C     0.40878   0.54903   0.53520   0.00000  Uiso   1.00
C666   C     0.09199   0.45086   0.46878   0.00000  Uiso   1.00
C667   C     0.38370   0.50510   0.49799   0.00000  Uiso   1.00
C668   C     0.11681   0.49607   0.50286   0.00000  Uiso   1.00
C669   C     0.40439   0.46095   0.46257   0.00000  Uiso   1.00
C670   C     0.09627   0.54136   0.53598   0.00000  Uiso   1.00
C671   C     0.45078   0.45654   0.46576   0.00000  Uiso   1.00
C672   C     0.04990   0.54541   0.53344   0.00000  Uiso   1.00
C673   C     0.47683   0.50144   0.49996   0.00000  Uiso   1.00
C674   C     0.02386   0.50011   0.50034   0.00000  Uiso   1.00
C675   C     0.45593   0.54784   0.53369   0.00000  Uiso   1.00
C676   C     0.04482   0.45344   0.46738   0.00000  Uiso   1.00
C677   C     0.47191   0.40918   0.43470   0.00000  Uiso   1.00
C678   C     0.02891   0.59345   0.56267   0.00000  Uiso   1.00
Cu679  Cu    0.25501   0.50579   0.56146   0.00000  Uiso   1.00
Cu680  Cu    0.24500   0.49421   0.43854   0.00000  Uiso   1.00
H681   H     0.38320   0.42968   0.43368   0.00000  Uiso   1.00
H682   H     0.11754   0.57359   0.56291   0.00000  Uiso   1.00
H683   H     0.03361   0.37570   0.40636   0.00000  Uiso   1.00
H684   H     0.46739   0.62835   0.58715   0.00000  Uiso   1.00
H685   H     0.21518   0.45988   0.64961   0.00000  Uiso   1.00
H686   H     0.28481   0.54012   0.35039   0.00000  Uiso   1.00
N687   N     0.23745   0.48547   0.34617   0.00000  Uiso   1.00
N688   N     0.26256   0.51453   0.65383   0.00000  Uiso   1.00
O689   O     0.25326   0.42871   0.53992   0.00000  Uiso   1.00
O690   O     0.24675   0.57129   0.46008   0.00000  Uiso   1.00
O691   O     0.24480   0.41892   0.43612   0.00000  Uiso   1.00
O692   O     0.25520   0.58108   0.56388   0.00000  Uiso   1.00
O693   O     0.18936   0.50488   0.55191   0.00000  Uiso   1.00
O694   O     0.31065   0.49512   0.44809   0.00000  Uiso   1.00
O695   O     0.18090   0.49510   0.44810   0.00000  Uiso   1.00
O696   O     0.31910   0.50490   0.55190   0.00000  Uiso   1.00
C697   C     0.38469   0.59562   0.57643   0.00000  Uiso   1.00
C698   C     0.36269   0.63403   0.54149   0.00000  Uiso   1.00
C699   C     0.39307   0.34820   0.54111   0.00000  Uiso   1.00
H700   H     0.42413   0.33442   0.51884   0.00000  Uiso   1.00
H701   H     0.40169   0.37187   0.58879   0.00000  Uiso   1.00
H702   H     0.37542   0.37462   0.51558   0.00000  Uiso   1.00
H703   H     0.35143   0.61286   0.49369   0.00000  Uiso   1.00
H704   H     0.33300   0.65060   0.56580   0.00000  Uiso   1.00
H705   H     0.35930   0.58018   0.60157   0.00000  Uiso   1.00
H706   H     0.40545   0.61900   0.61572   0.00000  Uiso   1.00
C707   C     0.11591   0.40003   0.43617   0.00000  Uiso   1.00
C708   C     0.11386   0.35553   0.47055   0.00000  Uiso   1.00
C709   C     0.12962   0.63576   0.43188   0.00000  Uiso   1.00
H710   H     0.13231   0.60612   0.46036   0.00000  Uiso   1.00
H711   H     0.10539   0.61997   0.39223   0.00000  Uiso   1.00
H712   H     0.16276   0.64081   0.41456   0.00000  Uiso   1.00
H713   H     0.13570   0.36713   0.51358   0.00000  Uiso   1.00
H714   H     0.07932   0.34953   0.48249   0.00000  Uiso   1.00
H715   H     0.10234   0.38536   0.38815   0.00000  Uiso   1.00
H716   H     0.15154   0.40715   0.43107   0.00000  Uiso   1.00
C717   C     0.44674   0.35702   0.40180   0.00000  Uiso   1.00
C718   C     0.47190   0.63909   0.40731   0.00000  Uiso   1.00
C719   C     0.44207   0.58894   0.39511   0.00000  Uiso   1.00
H720   H     0.41182   0.59623   0.42159   0.00000  Uiso   1.00
H721   H     0.43244   0.57418   0.34568   0.00000  Uiso   1.00
H722   H     0.46106   0.55654   0.40888   0.00000  Uiso   1.00
H723   H     0.49843   0.63089   0.37413   0.00000  Uiso   1.00
H724   H     0.48793   0.64491   0.45424   0.00000  Uiso   1.00
H725   H     0.41385   0.35477   0.42045   0.00000  Uiso   1.00
H726   H     0.44084   0.35693   0.35262   0.00000  Uiso   1.00
C727   C     0.05482   0.64567   0.59403   0.00000  Uiso   1.00
C728   C     0.02940   0.36440   0.59299   0.00000  Uiso   1.00
C729   C     0.05873   0.41511   0.61245   0.00000  Uiso   1.00
H730   H     0.06373   0.42795   0.66306   0.00000  Uiso   1.00
H731   H     0.09157   0.40956   0.59223   0.00000  Uiso   1.00
H732   H     0.04161   0.44815   0.59729   0.00000  Uiso   1.00
H733   H     0.01467   0.36193   0.54596   0.00000  Uiso   1.00
H734   H     0.00209   0.36981   0.62482   0.00000  Uiso   1.00
H735   H     0.06419   0.64506   0.64235   0.00000  Uiso   1.00
H736   H     0.08585   0.64800   0.57074   0.00000  Uiso   1.00
H737   H     0.24747   0.65229   0.42867   0.00000  Uiso   1.00
H738   H     0.24872   0.34771   0.57132   0.00000  Uiso   1.00
C739   C     0.74854   0.39985   0.48420   0.00000  Uiso   1.00
C740   C     0.74984   0.60012   0.51586   0.00000  Uiso   1.00
C741   C     0.51826   0.41014   0.43365   0.00000  Uiso   1.00
C742   C     0.98255   0.59255   0.56375   0.00000  Uiso   1.00
C743   C     0.74783   0.34355   0.47551   0.00000  Uiso   1.00
C744   C     0.74831   0.65642   0.52449   0.00000  Uiso   1.00
C745   C     0.66475   0.49879   0.50105   0.00000  Uiso   1.00
C746   C     0.83540   0.50211   0.49924   0.00000  Uiso   1.00
C747   C     0.90878   0.54903   0.53520   0.00000  Uiso   1.00
C748   C     0.59199   0.45086   0.46878   0.00000  Uiso   1.00
C749   C     0.88370   0.50510   0.49799   0.00000  Uiso   1.00
C750   C     0.61681   0.49607   0.50286   0.00000  Uiso   1.00
C751   C     0.90439   0.46095   0.46257   0.00000  Uiso   1.00
C752   C     0.59627   0.54136   0.53598   0.00000  Uiso   1.00
C753   C     0.95078   0.45654   0.46576   0.00000  Uiso   1.00
C754   C     0.54990   0.54541   0.53344   0.00000  Uiso   1.00
C755   C     0.97683   0.50144   0.49996   0.00000  Uiso   1.00
C756   C     0.52386   0.50011   0.50034   0.00000  Uiso   1.00
C757   C     0.95593   0.54784   0.53369   0.00000  Uiso   1.00
C758   C     0.54482   0.45344   0.46738   0.00000  Uiso   1.00
C759   C     0.97191   0.40918   0.43470   0.00000  Uiso   1.00
C760   C     0.52891   0.59345   0.56267   0.00000  Uiso   1.00
Cu761  Cu    0.75501   0.50579   0.56146   0.00000  Uiso   1.00
Cu762  Cu    0.74500   0.49421   0.43854   0.00000  Uiso   1.00
H763   H     0.88320   0.42968   0.43368   0.00000  Uiso   1.00
H764   H     0.61754   0.57359   0.56291   0.00000  Uiso   1.00
H765   H     0.53361   0.37570   0.40636   0.00000  Uiso   1.00
H766   H     0.96739   0.62835   0.58715   0.00000  Uiso   1.00
H767   H     0.71518   0.45988   0.64961   0.00000  Uiso   1.00
H768   H     0.78481   0.54012   0.35039   0.00000  Uiso   1.00
N769   N     0.73745   0.48547   0.34617   0.00000  Uiso   1.00
N770   N     0.76256   0.51453   0.65383   0.00000  Uiso   1.00
O771   O     0.75326   0.42871   0.53992   0.00000  Uiso   1.00
O772   O     0.74675   0.57129   0.46008   0.00000  Uiso   1.00
O773   O     0.74480   0.41892   0.43612   0.00000  Uiso   1.00
O774   O     0.75520   0.58108   0.56388   0.00000  Uiso   1.00
O775   O     0.68936   0.50488   0.55191   0.00000  Uiso   1.00
O776   O     0.81065   0.49512   0.44809   0.00000  Uiso   1.00
O777   O     0.68090   0.49510   0.44810   0.00000  Uiso   1.00
O778   O     0.81910   0.50490   0.55190   0.00000  Uiso   1.00
C779   C     0.88469   0.59562   0.57643   0.00000  Uiso   1.00
C780   C     0.86269   0.63403   0.54149   0.00000  Uiso   1.00
C781   C     0.89307   0.34820   0.54111   0.00000  Uiso   1.00
H782   H     0.92413   0.33442   0.51884   0.00000  Uiso   1.00
H783   H     0.90169   0.37187   0.58879   0.00000  Uiso   1.00
H784   H     0.87542   0.37462   0.51558   0.00000  Uiso   1.00
H785   H     0.85143   0.61286   0.49369   0.00000  Uiso   1.00
H786   H     0.83300   0.65060   0.56580   0.00000  Uiso   1.00
H787   H     0.85930   0.58018   0.60157   0.00000  Uiso   1.00
H788   H     0.90545   0.61900   0.61572   0.00000  Uiso   1.00
C789   C     0.61591   0.40003   0.43617   0.00000  Uiso   1.00
C790   C     0.61386   0.35553   0.47055   0.00000  Uiso   1.00
C791   C     0.62962   0.63576   0.43188   0.00000  Uiso   1.00
H792   H     0.63231   0.60612   0.46036   0.00000  Uiso   1.00
H793   H     0.60539   0.61997   0.39223   0.00000  Uiso   1.00
H794   H     0.66276   0.64081   0.41456   0.00000  Uiso   1.00
H795   H     0.63570   0.36713   0.51358   0.00000  Uiso   1.00
H796   H     0.57932   0.34953   0.48249   0.00000  Uiso   1.00
H797   H     0.60234   0.38536   0.38815   0.00000  Uiso   1.00
H798   H     0.65154   0.40715   0.43107   0.00000  Uiso   1.00
C799   C     0.94674   0.35702   0.40180   0.00000  Uiso   1.00
C800   C     0.97190   0.63909   0.40731   0.00000  Uiso   1.00
C801   C     0.94207   0.58894   0.39511   0.00000  Uiso   1.00
H802   H     0.91182   0.59623   0.42159   0.00000  Uiso   1.00
H803   H     0.93244   0.57418   0.34568   0.00000  Uiso   1.00
H804   H     0.96106   0.55654   0.40888   0.00000  Uiso   1.00
H805   H     0.99843   0.63089   0.37413   0.00000  Uiso   1.00
H806   H     0.98793   0.64491   0.45424   0.00000  Uiso   1.00
H807   H     0.91385   0.35477   0.42045   0.00000  Uiso   1.00
H808   H     0.94084   0.35693   0.35262   0.00000  Uiso   1.00
C809   C     0.55482   0.64567   0.59403   0.00000  Uiso   1.00
C810   C     0.52940   0.36440   0.59299   0.00000  Uiso   1.00
C811   C     0.55873   0.41511   0.61245   0.00000  Uiso   1.00
H812   H     0.56373   0.42795   0.66306   0.00000  Uiso   1.00
H813   H     0.59157   0.40956   0.59223   0.00000  Uiso   1.00
H814   H     0.54161   0.44815   0.59729   0.00000  Uiso   1.00
H815   H     0.51467   0.36193   0.54596   0.00000  Uiso   1.00
H816   H     0.50209   0.36981   0.62482   0.00000  Uiso   1.00
H817   H     0.56419   0.64506   0.64235   0.00000  Uiso   1.00
H818   H     0.58585   0.64800   0.57074   0.00000  Uiso   1.00
H819   H     0.74747   0.65229   0.42867   0.00000  Uiso   1.00
H820   H     0.74872   0.34771   0.57132   0.00000  Uiso   1.00
C821   C     0.24854   0.73318   0.48420   0.00000  Uiso   1.00
C822   C     0.24984   0.93345   0.51586   0.00000  Uiso   1.00
C823   C     0.01826   0.74347   0.43365   0.00000  Uiso   1.00
C824   C     0.48255   0.92588   0.56375   0.00000  Uiso   1.00
C825   C     0.24783   0.67688   0.47551   0.00000  Uiso   1.00
C826   C     0.24831   0.98975   0.52449   0.00000  Uiso   1.00
C827   C     0.16475   0.83212   0.50105   0.00000  Uiso   1.00
C828   C     0.33540   0.83545   0.49924   0.00000  Uiso   1.00
C829   C     0.40878   0.88237   0.53520   0.00000  Uiso   1.00
C830   C     0.09199   0.78420   0.46878   0.00000  Uiso   1.00
C831   C     0.38370   0.83843   0.49799   0.00000  Uiso   1.00
C832   C     0.11681   0.82940   0.50286   0.00000  Uiso   1.00
C833   C     0.40439   0.79428   0.46257   0.00000  Uiso   1.00
C834   C     0.09627   0.87469   0.53598   0.00000  Uiso   1.00
C835   C     0.45078   0.78988   0.46576   0.00000  Uiso   1.00
C836   C     0.04990   0.87875   0.53344   0.00000  Uiso   1.00
C837   C     0.47683   0.83477   0.49996   0.00000  Uiso   1.00
C838   C     0.02386   0.83345   0.50034   0.00000  Uiso   1.00
C839   C     0.45593   0.88117   0.53369   0.00000  Uiso   1.00
C840   C     0.04482   0.78677   0.46738   0.00000  Uiso   1.00
C841   C     0.47191   0.74251   0.43470   0.00000  Uiso   1.00
C842   C     0.02891   0.92678   0.56267   0.00000  Uiso   1.00
Cu843  Cu    0.25501   0.83913   0.56146   0.00000  Uiso   1.00
Cu844  Cu    0.24500   0.82754   0.43854   0.00000  Uiso   1.00
H845   H     0.38320   0.76301   0.43368   0.00000  Uiso   1.00
H846   H     0.11754   0.90692   0.56291   0.00000  Uiso   1.00
H847   H     0.03361   0.70903   0.40636   0.00000  Uiso   1.00
H848   H     0.46739   0.96168   0.58715   0.00000  Uiso   1.00
H849   H     0.21518   0.79322   0.64961   0.00000  Uiso   1.00
H850   H     0.28481   0.87346   0.35039   0.00000  Uiso   1.00
N851   N     0.23745   0.81881   0.34617   0.00000  Uiso   1.00
N852   N     0.26256   0.84786   0.65383   0.00000  Uiso   1.00
O853   O     0.25326   0.76204   0.53992   0.00000  Uiso   1.00
O854   O     0.24675   0.90462   0.46008   0.00000  Uiso   1.00
O855   O     0.24480   0.75226   0.43612   0.00000  Uiso   1.00
O856   O     0.25520   0.91441   0.56388   0.00000  Uiso   1.00
O857   O     0.18936   0.83821   0.55191   0.00000  Uiso   1.00
O858   O     0.31065   0.82845   0.44809   0.00000  Uiso   1.00
O859   O     0.18090   0.82843   0.44810   0.00000  Uiso   1.00
O860   O     0.31910   0.83824   0.55190   0.00000  Uiso   1.00
C861   C     0.38469   0.92896   0.57643   0.00000  Uiso   1.00
C862   C     0.36269   0.96736   0.54149   0.00000  Uiso   1.00
C863   C     0.39307   0.68153   0.54111   0.00000  Uiso   1.00
H864   H     0.42413   0.66775   0.51884   0.00000  Uiso   1.00
H865   H     0.40169   0.70520   0.58879   0.00000  Uiso   1.00
H866   H     0.37542   0.70795   0.51558   0.00000  Uiso   1.00
H867   H     0.35143   0.94619   0.49369   0.00000  Uiso   1.00
H868   H     0.33300   0.98394   0.56580   0.00000  Uiso   1.00
H869   H     0.35930   0.91351   0.60157   0.00000  Uiso   1.00
H870   H     0.40545   0.95233   0.61572   0.00000  Uiso   1.00
C871   C     0.11591   0.73336   0.43617   0.00000  Uiso   1.00
C872   C     0.11386   0.68887   0.47055   0.00000  Uiso   1.00
C873   C     0.12962   0.96910   0.43188   0.00000  Uiso   1.00
H874   H     0.13231   0.93946   0.46036   0.00000  Uiso   1.00
H875   H     0.10539   0.95330   0.39223   0.00000  Uiso   1.00
H876   H     0.16276   0.97414   0.41456   0.00000  Uiso   1.00
H877   H     0.13570   0.70046   0.51358   0.00000  Uiso   1.00
H878   H     0.07932   0.68286   0.48249   0.00000  Uiso   1.00
H879   H     0.10234   0.71869   0.38815   0.00000  Uiso   1.00
H880   H     0.15154   0.74048   0.43107   0.00000  Uiso   1.00
C881   C     0.44674   0.69035   0.40180   0.00000  Uiso   1.00
C882   C     0.47190   0.97243   0.40731   0.00000  Uiso   1.00
C883   C     0.44207   0.92228   0.39511   0.00000  Uiso   1.00
H884   H     0.41182   0.92956   0.42159   0.00000  Uiso   1.00
H885   H     0.43244   0.90751   0.34568   0.00000  Uiso   1.00
H886   H     0.46106   0.88987   0.40888   0.00000  Uiso   1.00
H887   H     0.49843   0.96422   0.37413   0.00000  Uiso   1.00
H888   H     0.48793   0.97824   0.45424   0.00000  Uiso   1.00
H889   H     0.41385   0.68810   0.42045   0.00000  Uiso   1.00
H890   H     0.44084   0.69027   0.35262   0.00000  Uiso   1.00
C891   C     0.05482   0.97900   0.59403   0.00000  Uiso   1.00
C892   C     0.02940   0.69773   0.59299   0.00000  Uiso   1.00
C893   C     0.05873   0.74844   0.61245   0.00000  Uiso   1.00
H894   H     0.06373   0.76128   0.66306   0.00000  Uiso   1.00
H895   H     0.09157   0.74290   0.59223   0.00000  Uiso   1.00
H896   H     0.04161   0.78149   0.59729   0.00000  Uiso   1.00
H897   H     0.01467   0.69526   0.54596   0.00000  Uiso   1.00
H898   H     0.00209   0.70315   0.62482   0.00000  Uiso   1.00
H899   H     0.06419   0.97840   0.64235   0.00000  Uiso   1.00
H900   H     0.08585   0.98134   0.57074   0.00000  Uiso   1.00
H901   H     0.24747   0.98562   0.42867   0.00000  Uiso   1.00
H902   H     0.24872   0.68104   0.57132   0.00000  Uiso   1.00
C903   C     0.74854   0.73318   0.48420   0.00000  Uiso   1.00
C904   C     0.74984   0.93345   0.51586   0.00000  Uiso   1.00
C905   C     0.51826   0.74347   0.43365   0.00000  Uiso   1.00
C906   C     0.98255   0.92588   0.56375   0.00000  Uiso   1.00
C907   C     0.74783   0.67688   0.47551   0.00000  Uiso   1.00
C908   C     0.74831   0.98975   0.52449   0.00000  Uiso   1.00
C909   C     0.66475   0.83212   0.50105   0.00000  Uiso   1.00
C910   C     0.83540   0.83545   0.49924   0.00000  Uiso   1.00
C911   C     0.90878   0.88237   0.53520   0.00000  Uiso   1.00
C912   C     0.59199   0.78420   0.46878   0.00000  Uiso   1.00
C913   C     0.88370   0.83843   0.49799   0.00000  Uiso   1.00
C914   C     0.61681   0.82940   0.50286   0.00000  Uiso   1.00
C915   C     0.90439   0.79428   0.46257   0.00000  Uiso   1.00
C916   C     0.59627   0.87469   0.53598   0.00000  Uiso   1.00
C917   C     0.95078   0.78988   0.46576   0.00000  Uiso   1.00
C918   C     0.54990   0.87875   0.53344   0.00000  Uiso   1.00
C919   C     0.97683   0.83477   0.49996   0.00000  Uiso   1.00
C920   C     0.52386   0.83345   0.50034   0.00000  Uiso   1.00
C921   C     0.95593   0.88117   0.53369   0.00000  Uiso   1.00
C922   C     0.54482   0.78677   0.46738   0.00000  Uiso   1.00
C923   C     0.97191   0.74251   0.43470   0.00000  Uiso   1.00
C924   C     0.52891   0.92678   0.56267   0.00000  Uiso   1.00
Cu925  Cu    0.75501   0.83913   0.56146   0.00000  Uiso   1.00
Cu926  Cu    0.74500   0.82754   0.43854   0.00000  Uiso   1.00
H927   H     0.88320   0.76301   0.43368   0.00000  Uiso   1.00
H928   H     0.61754   0.90692   0.56291   0.00000  Uiso   1.00
H929   H     0.53361   0.70903   0.40636   0.00000  Uiso   1.00
H930   H     0.96739   0.96168   0.58715   0.00000  Uiso   1.00
H931   H     0.71518   0.79322   0.64961   0.00000  Uiso   1.00
H932   H     0.78481   0.87346   0.35039   0.00000  Uiso   1.00
N933   N     0.73745   0.81881   0.34617   0.00000  Uiso   1.00
N934   N     0.76256   0.84786   0.65383   0.00000  Uiso   1.00
O935   O     0.75326   0.76204   0.53992   0.00000  Uiso   1.00
O936   O     0.74675   0.90462   0.46008   0.00000  Uiso   1.00
O937   O     0.74480   0.75226   0.43612   0.00000  Uiso   1.00
O938   O     0.75520   0.91441   0.56388   0.00000  Uiso   1.00
O939   O     0.68936   0.83821   0.55191   0.00000  Uiso   1.00
O940   O     0.81065   0.82845   0.44809   0.00000  Uiso   1.00
O941   O     0.68090   0.82843   0.44810   0.00000  Uiso   1.00
O942   O     0.81910   0.83824   0.55190   0.00000  Uiso   1.00
C943   C     0.88469   0.92896   0.57643   0.00000  Uiso   1.00
C944   C     0.86269   0.96736   0.54149   0.00000  Uiso   1.00
C945   C     0.89307   0.68153   0.54111   0.00000  Uiso   1.00
H946   H     0.92413   0.66775   0.51884   0.00000  Uiso   1.00
H947   H     0.90169   0.70520   0.58879   0.00000  Uiso   1.00
H948   H     0.87542   0.70795   0.51558   0.00000  Uiso   1.00
H949   H     0.85143   0.94619   0.49369   0.00000  Uiso   1.00
H950   H     0.83300   0.98394   0.56580   0.00000  Uiso   1.00
H951   H     0.85930   0.91351   0.60157   0.00000  Uiso   1.00
H952   H     0.90545   0.95233   0.61572   0.00000  Uiso   1.00
C953   C     0.61591   0.73336   0.43617   0.00000  Uiso   1.00
C954   C     0.61386   0.68887   0.47055   0.00000  Uiso   1.00
C955   C     0.62962   0.96910   0.43188   0.00000  Uiso   1.00
H956   H     0.63231   0.93946   0.46036   0.00000  Uiso   1.00
H957   H     0.60539   0.95330   0.39223   0.00000  Uiso   1.00
H958   H     0.66276   0.97414   0.41456   0.00000  Uiso   1.00
H959   H     0.63570   0.70046   0.51358   0.00000  Uiso   1.00
H960   H     0.57932   0.68286   0.48249   0.00000  Uiso   1.00
H961   H     0.60234   0.71869   0.38815   0.00000  Uiso   1.00
H962   H     0.65154   0.74048   0.43107   0.00000  Uiso   1.00
C963   C     0.94674   0.69035   0.40180   0.00000  Uiso   1.00
C964   C     0.97190   0.97243   0.40731   0.00000  Uiso   1.00
C965   C     0.94207   0.92228   0.39511   0.00000  Uiso   1.00
H966   H     0.91182   0.92956   0.42159   0.00000  Uiso   1.00
H967   H     0.93244   0.90751   0.34568   0.00000  Uiso   1.00
H968   H     0.96106   0.88987   0.40888   0.00000  Uiso   1.00
H969   H     0.99843   0.96422   0.37413   0.00000  Uiso   1.00
H970   H     0.98793   0.97824   0.45424   0.00000  Uiso   1.00
H971   H     0.91385   0.68810   0.42045   0.00000  Uiso   1.00
H972   H     0.94084   0.69027   0.35262   0.00000  Uiso   1.00
C973   C     0.55482   0.97900   0.59403   0.00000  Uiso   1.00
C974   C     0.52940   0.69773   0.59299   0.00000  Uiso   1.00
C975   C     0.55873   0.74844   0.61245   0.00000  Uiso   1.00
H976   H     0.56373   0.76128   0.66306   0.00000  Uiso   1.00
H977   H     0.59157   0.74290   0.59223   0.00000  Uiso   1.00
H978   H     0.54161   0.78149   0.59729   0.00000  Uiso   1.00
H979   H     0.51467   0.69526   0.54596   0.00000  Uiso   1.00
H980   H     0.50209   0.70315   0.62482   0.00000  Uiso   1.00
H981   H     0.56419   0.97840   0.64235   0.00000  Uiso   1.00
H982   H     0.58585   0.98134   0.57074   0.00000  Uiso   1.00
H983   H     0.74747   0.98562   0.42867   0.00000  Uiso   1.00
H984   H     0.74872   0.68104   0.57132   0.00000  Uiso   1.00
C985   C     0.24854   0.06652   0.81753   0.00000  Uiso   1.00
C986   C     0.24984   0.26679   0.84919   0.00000  Uiso   1.00
C987   C     0.01826   0.07681   0.76698   0.00000  Uiso   1.00
C988   C     0.48255   0.25922   0.89709   0.00000  Uiso   1.00
C989   C     0.24783   0.01022   0.80884   0.00000  Uiso   1.00
C990   C     0.24831   0.32309   0.85782   0.00000  Uiso   1.00
C991   C     0.16475   0.16545   0.83438   0.00000  Uiso   1.00
C992   C     0.33540   0.16878   0.83258   0.00000  Uiso   1.00
C993   C     0.40878   0.21570   0.86853   0.00000  Uiso   1.00
C994   C     0.09199   0.11753   0.80212   0.00000  Uiso   1.00
C995   C     0.38370   0.17177   0.83132   0.00000  Uiso   1.00
C996   C     0.11681   0.16273   0.83619   0.00000  Uiso   1.00
C997   C     0.40439   0.12761   0.79591   0.00000  Uiso   1.00
C998   C     0.09627   0.20802   0.86932   0.00000  Uiso   1.00
C999   C     0.45078   0.12321   0.79909   0.00000  Uiso   1.00
C1000  C     0.04990   0.21208   0.86677   0.00000  Uiso   1.00
C1001  C     0.47683   0.16810   0.83329   0.00000  Uiso   1.00
C1002  C     0.02386   0.16678   0.83368   0.00000  Uiso   1.00
C1003  C     0.45593   0.21451   0.86702   0.00000  Uiso   1.00
C1004  C     0.04482   0.12011   0.80071   0.00000  Uiso   1.00
C1005  C     0.47191   0.07584   0.76804   0.00000  Uiso   1.00
C1006  C     0.02891   0.26011   0.89600   0.00000  Uiso   1.00
Cu1007 Cu    0.25501   0.17246   0.89479   0.00000  Uiso   1.00
Cu1008 Cu    0.24500   0.16087   0.77187   0.00000  Uiso   1.00
H1009  H     0.38320   0.09635   0.76702   0.00000  Uiso   1.00
H1010  H     0.11754   0.24025   0.89624   0.00000  Uiso   1.00
H1011  H     0.03361   0.04236   0.73969   0.00000  Uiso   1.00
H1012  H     0.46739   0.29501   0.92048   0.00000  Uiso   1.00
H1013  H     0.21518   0.12655   0.98294   0.00000  Uiso   1.00
H1014  H     0.28481   0.20679   0.68373   0.00000  Uiso   1.00
N1015  N     0.23745   0.15214   0.67951   0.00000  Uiso   1.00
N1016  N     0.26256   0.18119   0.98716   0.00000  Uiso   1.00
O1017  O     0.25326   0.09538   0.87326   0.00000  Uiso   1.00
O1018  O     0.24675   0.23796   0.79341   0.00000  Uiso   1.00
O1019  O     0.24480   0.08559   0.76945   0.00000  Uiso   1.00
O1020  O     0.25520   0.24774   0.89721   0.00000  Uiso   1.00
O1021  O     0.18936   0.17155   0.88524   0.00000  Uiso   1.00
O1022  O     0.31065   0.16179   0.78143   0.00000  Uiso   1.00
O1023  O     0.18090   0.16176   0.78143   0.00000  Uiso   1.00
O1024  O     0.31910   0.17157   0.88523   0.00000  Uiso   1.00
C1025  C     0.38469   0.26229   0.90976   0.00000  Uiso   1.00
C1026  C     0.36269   0.30070   0.87482   0.00000  Uiso   1.00
C1027  C     0.39307   0.01487   0.87444   0.00000  Uiso   1.00
H1028  H     0.42413   0.00108   0.85218   0.00000  Uiso   1.00
H1029  H     0.40169   0.03853   0.92212   0.00000  Uiso   1.00
H1030  H     0.37542   0.04129   0.84891   0.00000  Uiso   1.00
H1031  H     0.35143   0.27953   0.82702   0.00000  Uiso   1.00
H1032  H     0.33300   0.31727   0.89913   0.00000  Uiso   1.00
H1033  H     0.35930   0.24684   0.93490   0.00000  Uiso   1.00
H1034  H     0.40545   0.28566   0.94906   0.00000  Uiso   1.00
C1035  C     0.11591   0.06669   0.76950   0.00000  Uiso   1.00
C1036  C     0.11386   0.02220   0.80388   0.00000  Uiso   1.00
C1037  C     0.12962   0.30243   0.76522   0.00000  Uiso   1.00
H1038  H     0.13231   0.27279   0.79369   0.00000  Uiso   1.00
H1039  H     0.10539   0.28664   0.72556   0.00000  Uiso   1.00
H1040  H     0.16276   0.30748   0.74790   0.00000  Uiso   1.00
H1041  H     0.13570   0.03379   0.84691   0.00000  Uiso   1.00
H1042  H     0.07932   0.01619   0.81582   0.00000  Uiso   1.00
H1043  H     0.10234   0.05202   0.72149   0.00000  Uiso   1.00
H1044  H     0.15154   0.07381   0.76440   0.00000  Uiso   1.00
C1045  C     0.44674   0.02369   0.73514   0.00000  Uiso   1.00
C1046  C     0.47190   0.30576   0.74065   0.00000  Uiso   1.00
C1047  C     0.44207   0.25561   0.72845   0.00000  Uiso   1.00
H1048  H     0.41182   0.26290   0.75493   0.00000  Uiso   1.00
H1049  H     0.43244   0.24085   0.67901   0.00000  Uiso   1.00
H1050  H     0.46106   0.22321   0.74221   0.00000  Uiso   1.00
H1051  H     0.49843   0.29756   0.70746   0.00000  Uiso   1.00
H1052  H     0.48793   0.31157   0.78758   0.00000  Uiso   1.00
H1053  H     0.41385   0.02143   0.75379   0.00000  Uiso   1.00
H1054  H     0.44084   0.02360   0.68595   0.00000  Uiso   1.00
C1055  C     0.05482   0.31233   0.92736   0.00000  Uiso   1.00
C1056  C     0.02940   0.03107   0.92632   0.00000  Uiso   1.00
C1057  C     0.05873   0.08177   0.94579   0.00000  Uiso   1.00
H1058  H     0.06373   0.09462   0.99639   0.00000  Uiso   1.00
H1059  H     0.09157   0.07623   0.92556   0.00000  Uiso   1.00
H1060  H     0.04161   0.11482   0.93062   0.00000  Uiso   1.00
H1061  H     0.01467   0.02860   0.87929   0.00000  Uiso   1.00
H1062  H     0.00209   0.03648   0.95815   0.00000  Uiso   1.00
H1063  H     0.06419   0.31173   0.97568   0.00000  Uiso   1.00
H1064  H     0.08585   0.31467   0.90407   0.00000  Uiso   1.00
H1065  H     0.24747   0.31895   0.76201   0.00000  Uiso   1.00
H1066  H     0.24872   0.01438   0.90465   0.00000  Uiso   1.00
C1067  C     0.74854   0.06652   0.81753   0.00000  Uiso   1.00
C1068  C     0.74984   0.26679   0.84919   0.00000  Uiso   1.00
C1069  C     0.51826   0.07681   0.76698   0.00000  Uiso   1.00
C1070  C     0.98255   0.25922   0.89709   0.00000  Uiso   1.00
C1071  C     0.74783   0.01022   0.80884   0.00000  Uiso   1.00
C1072  C     0.74831   0.32309   0.85782   0.00000  Uiso   1.00
C1073  C     0.66475   0.16545   0.83438   0.00000  Uiso   1.00
C1074  C     0.83540   0.16878   0.83258   0.00000  Uiso   1.00
C1075  C     0.90878   0.21570   0.86853   0.00000  Uiso   1.00
C1076  C     0.59199   0.11753   0.80212   0.00000  Uiso   1.00
C1077  C     0.88370   0.17177   0.83132   0.00000  Uiso   1.00
C1078  C     0.61681   0.16273   0.83619   0.00000  Uiso   1.00
C1079  C     0.90439   0.12761   0.79591   0.00000  Uiso   1.00
C1080  C     0.59627   0.20802   0.86932   0.00000  Uiso   1.00
C1081  C     0.95078   0.12321   0.79909   0.00000  Uiso   1.00
C1082  C     0.54990   0.21208   0.86677   0.00000  Uiso   1.00
C1083  C     0.97683   0.16810   0.83329   0.00000  Uiso   1.00
C1084  C     0.52386   0.16678   0.83368   0.00000  Uiso   1.00
C1085  C     0.95593   0.21451   0.86702   0.00000  Uiso   1.00
C1086  C     0.54482   0.12011   0.80071   0.00000  Uiso   1.00
C1087  C     0.97191   0.07584   0.76804   0.00000  Uiso   1.00
C1088  C     0.52891   0.26011   0.89600   0.00000  Uiso   1.00
Cu1089 Cu    0.75501   0.17246   0.89479   0.00000  Uiso   1.00
Cu1090 Cu    0.74500   0.16087   0.77187   0.00000  Uiso   1.00
H1091  H     0.88320   0.09635   0.76702   0.00000  Uiso   1.00
H1092  H     0.61754   0.24025   0.89624   0.00000  Uiso   1.00
H1093  H     0.53361   0.04236   0.73969   0.00000  Uiso   1.00
H1094  H     0.96739   0.29501   0.92048   0.00000  Uiso   1.00
H1095  H     0.71518   0.12655   0.98294   0.00000  Uiso   1.00
H1096  H     0.78481   0.20679   0.68373   0.00000  Uiso   1.00
N1097  N     0.73745   0.15214   0.67951   0.00000  Uiso   1.00
N1098  N     0.76256   0.18119   0.98716   0.00000  Uiso   1.00
O1099  O     0.75326   0.09538   0.87326   0.00000  Uiso   1.00
O1100  O     0.74675   0.23796   0.79341   0.00000  Uiso   1.00
O1101  O     0.74480   0.08559   0.76945   0.00000  Uiso   1.00
O1102  O     0.75520   0.24774   0.89721   0.00000  Uiso   1.00
O1103  O     0.68936   0.17155   0.88524   0.00000  Uiso   1.00
O1104  O     0.81065   0.16179   0.78143   0.00000  Uiso   1.00
O1105  O     0.68090   0.16176   0.78143   0.00000  Uiso   1.00
O1106  O     0.81910   0.17157   0.88523   0.00000  Uiso   1.00
C1107  C     0.88469   0.26229   0.90976   0.00000  Uiso   1.00
C1108  C     0.86269   0.30070   0.87482   0.00000  Uiso   1.00
C1109  C     0.89307   0.01487   0.87444   0.00000  Uiso   1.00
H1110  H     0.92413   0.00108   0.85218   0.00000  Uiso   1.00
H1111  H     0.90169   0.03853   0.92212   0.00000  Uiso   1.00
H1112  H     0.87542   0.04129   0.84891   0.00000  Uiso   1.00
H1113  H     0.85143   0.27953   0.82702   0.00000  Uiso   1.00
H1114  H     0.83300   0.31727   0.89913   0.00000  Uiso   1.00
H1115  H     0.85930   0.24684   0.93490   0.00000  Uiso   1.00
H1116  H     0.90545   0.28566   0.94906   0.00000  Uiso   1.00
C1117  C     0.61591   0.06669   0.76950   0.00000  Uiso   1.00
C1118  C     0.61386   0.02220   0.80388   0.00000  Uiso   1.00
C1119  C     0.62962   0.30243   0.76522   0.00000  Uiso   1.00
H1120  H     0.63231   0.27279   0.79369   0.00000  Uiso   1.00
H1121  H     0.60539   0.28664   0.72556   0.00000  Uiso   1.00
H1122  H     0.66276   0.30748   0.74790   0.00000  Uiso   1.00
H1123  H     0.63570   0.03379   0.84691   0.00000  Uiso   1.00
H1124  H     0.57932   0.01619   0.81582   0.00000  Uiso   1.00
H1125  H     0.60234   0.05202   0.72149   0.00000  Uiso   1.00
H1126  H     0.65154   0.07381   0.76440   0.00000  Uiso   1.00
C1127  C     0.94674   0.02369   0.73514   0.00000  Uiso   1.00
C1128  C     0.97190   0.30576   0.74065   0.00000  Uiso   1.00
C1129  C     0.94207   0.25561   0.72845   0.00000  Uiso   1.00
H1130  H     0.91182   0.26290   0.75493   0.00000  Uiso   1.00
H1131  H     0.93244   0.24085   0.67901   0.00000  Uiso   1.00
H1132  H     0.96106   0.22321   0.74221   0.00000  Uiso   1.00
H1133  H     0.99843   0.29756   0.70746   0.00000  Uiso   1.00
H1134  H     0.98793   0.31157   0.78758   0.00000  Uiso   1.00
H1135  H     0.91385   0.02143   0.75379   0.00000  Uiso   1.00
H1136  H     0.94084   0.02360   0.68595   0.00000  Uiso   1.00
C1137  C     0.55482   0.31233   0.92736   0.00000  Uiso   1.00
C1138  C     0.52940   0.03107   0.92632   0.00000  Uiso   1.00
C1139  C     0.55873   0.08177   0.94579   0.00000  Uiso   1.00
H1140  H     0.56373   0.09462   0.99639   0.00000  Uiso   1.00
H1141  H     0.59157   0.07623   0.92556   0.00000  Uiso   1.00
H1142  H     0.54161   0.11482   0.93062   0.00000  Uiso   1.00
H1143  H     0.51467   0.02860   0.87929   0.00000  Uiso   1.00
H1144  H     0.50209   0.03648   0.95815   0.00000  Uiso   1.00
H1145  H     0.56419   0.31173   0.97568   0.00000  Uiso   1.00
H1146  H     0.58585   0.31467   0.90407   0.00000  Uiso   1.00
H1147  H     0.74747   0.31895   0.76201   0.00000  Uiso   1.00
H1148  H     0.74872   0.01438   0.90465   0.00000  Uiso   1.00
C1149  C     0.24854   0.39985   0.81753   0.00000  Uiso   1.00
C1150  C     0.24984   0.60012   0.84919   0.00000  Uiso   1.00
C1151  C     0.01826   0.41014   0.76698   0.00000  Uiso   1.00
C1152  C     0.48255   0.59255   0.89709   0.00000  Uiso   1.00
C1153  C     0.24783   0.34355   0.80884   0.00000  Uiso   1.00
C1154  C     0.24831   0.65642   0.85782   0.00000  Uiso   1.00
C1155  C     0.16475   0.49879   0.83438   0.00000  Uiso   1.00
C1156  C     0.33540   0.50211   0.83258   0.00000  Uiso   1.00
C1157  C     0.40878   0.54903   0.86853   0.00000  Uiso   1.00
C1158  C     0.09199   0.45086   0.80212   0.00000  Uiso   1.00
C1159  C     0.38370   0.50510   0.83132   0.00000  Uiso   1.00
C1160  C     0.11681   0.49607   0.83619   0.00000  Uiso   1.00
C1161  C     0.40439   0.46095   0.79591   0.00000  Uiso   1.00
C1162  C     0.09627   0.54136   0.86932   0.00000  Uiso   1.00
C1163  C     0.45078   0.45654   0.79909   0.00000  Uiso   1.00
C1164  C     0.04990   0.54541   0.86677   0.00000  Uiso   1.00
C1165  C     0.47683   0.50144   0.83329   0.00000  Uiso   1.00
C1166  C     0.02386   0.50011   0.83368   0.00000  Uiso   1.00
C1167  C     0.45593   0.54784   0.86702   0.00000  Uiso   1.00
C1168  C     0.04482   0.45344   0.80071   0.00000  Uiso   1.00
C1169  C     0.47191   0.40918   0.76804   0.00000  Uiso   1.00
C1170  C     0.02891   0.59345   0.89600   0.00000  Uiso   1.00
Cu1171 Cu    0.25501   0.50579   0.89479   0.00000  Uiso   1.00
Cu1172 Cu    0.24500   0.49421   0.77187   0.00000  Uiso   1.00
H1173  H     0.38320   0.42968   0.76702   0.00000  Uiso   1.00
H1174  H     0.11754   0.57359   0.89624   0.00000  Uiso   1.00
H1175  H     0.03361   0.37570   0.73969   0.00000  Uiso   1.00
H1176  H     0.46739   0.62835   0.92048   0.00000  Uiso   1.00
H1177  H     0.21518   0.45988   0.98294   0.00000  Uiso   1.00
H1178  H     0.28481   0.54012   0.68373   0.00000  Uiso   1.00
N1179  N     0.23745   0.48547   0.67951   0.00000  Uiso   1.00
N1180  N     0.26256   0.51453   0.98716   0.00000  Uiso   1.00
O1181  O     0.25326   0.42871   0.87326   0.00000  Uiso   1.00
O1182  O     0.24675   0.57129   0.79341   0.00000  Uiso   1.00
O1183  O     0.24480   0.41892   0.76945   0.00000  Uiso   1.00
O1184  O     0.25520   0.58108   0.89721   0.00000  Uiso   1.00
O1185  O     0.18936   0.50488   0.88524   0.00000  Uiso   1.00
O1186  O     0.31065   0.49512   0.78143   0.00000  Uiso   1.00
O1187  O     0.18090   0.49510   0.78143   0.00000  Uiso   1.00
O1188  O     0.31910   0.50490   0.88523   0.00000  Uiso   1.00
C1189  C     0.38469   0.59562   0.90976   0.00000  Uiso   1.00
C1190  C     0.36269   0.63403   0.87482   0.00000  Uiso   1.00
C1191  C     0.39307   0.34820   0.87444   0.00000  Uiso   1.00
H1192  H     0.42413   0.33442   0.85218   0.00000  Uiso   1.00
H1193  H     0.40169   0.37187   0.92212   0.00000  Uiso   1.00
H1194  H     0.37542   0.37462   0.84891   0.00000  Uiso   1.00
H1195  H     0.35143   0.61286   0.82702   0.00000  Uiso   1.00
H1196  H     0.33300   0.65060   0.89913   0.00000  Uiso   1.00
H1197  H     0.35930   0.58018   0.93490   0.00000  Uiso   1.00
H1198  H     0.40545   0.61900   0.94906   0.00000  Uiso   1.00
C1199  C     0.11591   0.40003   0.76950   0.00000  Uiso   1.00
C1200  C     0.11386   0.35553   0.80388   0.00000  Uiso   1.00
C1201  C     0.12962   0.63576   0.76522   0.00000  Uiso   1.00
H1202  H     0.13231   0.60612   0.79369   0.00000  Uiso   1.00
H1203  H     0.10539   0.61997   0.72556   0.00000  Uiso   1.00
H1204  H     0.16276   0.64081   0.74790   0.00000  Uiso   1.00
H1205  H     0.13570   0.36713   0.84691   0.00000  Uiso   1.00
H1206  H     0.07932   0.34953   0.81582   0.00000  Uiso   1.00
H1207  H     0.10234   0.38536   0.72149   0.00000  Uiso   1.00
H1208  H     0.15154   0.40715   0.76440   0.00000  Uiso   1.00
C1209  C     0.44674   0.35702   0.73514   0.00000  Uiso   1.00
C1210  C     0.47190   0.63909   0.74065   0.00000  Uiso   1.00
C1211  C     0.44207   0.58894   0.72845   0.00000  Uiso   1.00
H1212  H     0.41182   0.59623   0.75493   0.00000  Uiso   1.00
H1213  H     0.43244   0.57418   0.67901   0.00000  Uiso   1.00
H1214  H     0.46106   0.55654   0.74221   0.00000  Uiso   1.00
H1215  H     0.49843   0.63089   0.70746   0.00000  Uiso   1.00
H1216  H     0.48793   0.64491   0.78758   0.00000  Uiso   1.00
H1217  H     0.41385   0.35477   0.75379   0.00000  Uiso   1.00
H1218  H     0.44084   0.35693   0.68595   0.00000  Uiso   1.00
C1219  C     0.05482   0.64567   0.92736   0.00000  Uiso   1.00
C1220  C     0.02940   0.36440   0.92632   0.00000  Uiso   1.00
C1221  C     0.05873   0.41511   0.94579   0.00000  Uiso   1.00
H1222  H     0.06373   0.42795   0.99639   0.00000  Uiso   1.00
H1223  H     0.09157   0.40956   0.92556   0.00000  Uiso   1.00
H1224  H     0.04161   0.44815   0.93062   0.00000  Uiso   1.00
H1225  H     0.01467   0.36193   0.87929   0.00000  Uiso   1.00
H1226  H     0.00209   0.36981   0.95815   0.00000  Uiso   1.00
H1227  H     0.06419   0.64506   0.97568   0.00000  Uiso   1.00
H1228  H     0.08585   0.64800   0.90407   0.00000  Uiso   1.00
H1229  H     0.24747   0.65229   0.76201   0.00000  Uiso   1.00
H1230  H     0.24872   0.34771   0.90465   0.00000  Uiso   1.00
C1231  C     0.74854   0.39985   0.81753   0.00000  Uiso   1.00
C1232  C     0.74984   0.60012   0.84919   0.00000  Uiso   1.00
C1233  C     0.51826   0.41014   0.76698   0.00000  Uiso   1.00
C1234  C     0.98255   0.59255   0.89709   0.00000  Uiso   1.00
C1235  C     0.74783   0.34355   0.80884   0.00000  Uiso   1.00
C1236  C     0.74831   0.65642   0.85782   0.00000  Uiso   1.00
C1237  C     0.66475   0.49879   0.83438   0.00000  Uiso   1.00
C1238  C     0.83540   0.50211   0.83258   0.00000  Uiso   1.00
C1239  C     0.90878   0.54903   0.86853   0.00000  Uiso   1.00
C1240  C     0.59199   0.45086   0.80212   0.00000  Uiso   1.00
C1241  C     0.88370   0.50510   0.83132   0.00000  Uiso   1.00
C1242  C     0.61681   0.49607   0.83619   0.00000  Uiso   1.00
C1243  C     0.90439   0.46095   0.79591   0.00000  Uiso   1.00
C1244  C     0.59627   0.54136   0.86932   0.00000  Uiso   1.00
C1245  C     0.95078   0.45654   0.79909   0.00000  Uiso   1.00
C1246  C     0.54990   0.54541   0.86677   0.00000  Uiso   1.00
C1247  C     0.97683   0.50144   0.83329   0.00000  Uiso   1.00
C1248  C     0.52386   0.50011   0.83368   0.00000  Uiso   1.00
C1249  C     0.95593   0.54784   0.86702   0.00000  Uiso   1.00
C1250  C     0.54482   0.45344   0.80071   0.00000  Uiso   1.00
C1251  C     0.97191   0.40918   0.76804   0.00000  Uiso   1.00
C1252  C     0.52891   0.59345   0.89600   0.00000  Uiso   1.00
Cu1253 Cu    0.75501   0.50579   0.89479   0.00000  Uiso   1.00
Cu1254 Cu    0.74500   0.49421   0.77187   0.00000  Uiso   1.00
H1255  H     0.88320   0.42968   0.76702   0.00000  Uiso   1.00
H1256  H     0.61754   0.57359   0.89624   0.00000  Uiso   1.00
H1257  H     0.53361   0.37570   0.73969   0.00000  Uiso   1.00
H1258  H     0.96739   0.62835   0.92048   0.00000  Uiso   1.00
H1259  H     0.71518   0.45988   0.98294   0.00000  Uiso   1.00
H1260  H     0.78481   0.54012   0.68373   0.00000  Uiso   1.00
N1261  N     0.73745   0.48547   0.67951   0.00000  Uiso   1.00
N1262  N     0.76256   0.51453   0.98716   0.00000  Uiso   1.00
O1263  O     0.75326   0.42871   0.87326   0.00000  Uiso   1.00
O1264  O     0.74675   0.57129   0.79341   0.00000  Uiso   1.00
O1265  O     0.74480   0.41892   0.76945   0.00000  Uiso   1.00
O1266  O     0.75520   0.58108   0.89721   0.00000  Uiso   1.00
O1267  O     0.68936   0.50488   0.88524   0.00000  Uiso   1.00
O1268  O     0.81065   0.49512   0.78143   0.00000  Uiso   1.00
O1269  O     0.68090   0.49510   0.78143   0.00000  Uiso   1.00
O1270  O     0.81910   0.50490   0.88523   0.00000  Uiso   1.00
C1271  C     0.88469   0.59562   0.90976   0.00000  Uiso   1.00
C1272  C     0.86269   0.63403   0.87482   0.00000  Uiso   1.00
C1273  C     0.89307   0.34820   0.87444   0.00000  Uiso   1.00
H1274  H     0.92413   0.33442   0.85218   0.00000  Uiso   1.00
H1275  H     0.90169   0.37187   0.92212   0.00000  Uiso   1.00
H1276  H     0.87542   0.37462   0.84891   0.00000  Uiso   1.00
H1277  H     0.85143   0.61286   0.82702   0.00000  Uiso   1.00
H1278  H     0.83300   0.65060   0.89913   0.00000  Uiso   1.00
H1279  H     0.85930   0.58018   0.93490   0.00000  Uiso   1.00
H1280  H     0.90545   0.61900   0.94906   0.00000  Uiso   1.00
C1281  C     0.61591   0.40003   0.76950   0.00000  Uiso   1.00
C1282  C     0.61386   0.35553   0.80388   0.00000  Uiso   1.00
C1283  C     0.62962   0.63576   0.76522   0.00000  Uiso   1.00
H1284  H     0.63231   0.60612   0.79369   0.00000  Uiso   1.00
H1285  H     0.60539   0.61997   0.72556   0.00000  Uiso   1.00
H1286  H     0.66276   0.64081   0.74790   0.00000  Uiso   1.00
H1287  H     0.63570   0.36713   0.84691   0.00000  Uiso   1.00
H1288  H     0.57932   0.34953   0.81582   0.00000  Uiso   1.00
H1289  H     0.60234   0.38536   0.72149   0.00000  Uiso   1.00
H1290  H     0.65154   0.40715   0.76440   0.00000  Uiso   1.00
C1291  C     0.94674   0.35702   0.73514   0.00000  Uiso   1.00
C1292  C     0.97190   0.63909   0.74065   0.00000  Uiso   1.00
C1293  C     0.94207   0.58894   0.72845   0.00000  Uiso   1.00
H1294  H     0.91182   0.59623   0.75493   0.00000  Uiso   1.00
H1295  H     0.93244   0.57418   0.67901   0.00000  Uiso   1.00
H1296  H     0.96106   0.55654   0.74221   0.00000  Uiso   1.00
H1297  H     0.99843   0.63089   0.70746   0.00000  Uiso   1.00
H1298  H     0.98793   0.64491   0.78758   0.00000  Uiso   1.00
H1299  H     0.91385   0.35477   0.75379   0.00000  Uiso   1.00
H1300  H     0.94084   0.35693   0.68595   0.00000  Uiso   1.00
C1301  C     0.55482   0.64567   0.92736   0.00000  Uiso   1.00
C1302  C     0.52940   0.36440   0.92632   0.00000  Uiso   1.00
C1303  C     0.55873   0.41511   0.94579   0.00000  Uiso   1.00
H1304  H     0.56373   0.42795   0.99639   0.00000  Uiso   1.00
H1305  H     0.59157   0.40956   0.92556   0.00000  Uiso   1.00
H1306  H     0.54161   0.44815   0.93062   0.00000  Uiso   1.00
H1307  H     0.51467   0.36193   0.87929   0.00000  Uiso   1.00
H1308  H     0.50209   0.36981   0.95815   0.00000  Uiso   1.00
H1309  H     0.56419   0.64506   0.97568   0.00000  Uiso   1.00
H1310  H     0.58585   0.64800   0.90407   0.00000  Uiso   1.00
H1311  H     0.74747   0.65229   0.76201   0.00000  Uiso   1.00
H1312  H     0.74872   0.34771   0.90465   0.00000  Uiso   1.00
C1313  C     0.24854   0.73318   0.81753   0.00000  Uiso   1.00
C1314  C     0.24984   0.93345   0.84919   0.00000  Uiso   1.00
C1315  C     0.01826   0.74347   0.76698   0.00000  Uiso   1.00
C1316  C     0.48255   0.92588   0.89709   0.00000  Uiso   1.00
C1317  C     0.24783   0.67688   0.80884   0.00000  Uiso   1.00
C1318  C     0.24831   0.98975   0.85782   0.00000  Uiso   1.00
C1319  C     0.16475   0.83212   0.83438   0.00000  Uiso   1.00
C1320  C     0.33540   0.83545   0.83258   0.00000  Uiso   1.00
C1321  C     0.40878   0.88237   0.86853   0.00000  Uiso   1.00
C1322  C     0.09199   0.78420   0.80212   0.00000  Uiso   1.00
C1323  C     0.38370   0.83843   0.83132   0.00000  Uiso   1.00
C1324  C     0.11681   0.82940   0.83619   0.00000  Uiso   1.00
C1325  C     0.40439   0.79428   0.79591   0.00000  Uiso   1.00
C1326  C     0.09627   0.87469   0.86932   0.00000  Uiso   1.00
C1327  C     0.45078   0.78988   0.79909   0.00000  Uiso   1.00
C1328  C     0.04990   0.87875   0.86677   0.00000  Uiso   1.00
C1329  C     0.47683   0.83477   0.83329   0.00000  Uiso   1.00
C1330  C     0.02386   0.83345   0.83368   0.00000  Uiso   1.00
C1331  C     0.45593   0.88117   0.86702   0.00000  Uiso   1.00
C1332  C     0.04482   0.78677   0.80071   0.00000  Uiso   1.00
C1333  C     0.47191   0.74251   0.76804   0.00000  Uiso   1.00
C1334  C     0.02891   0.92678   0.89600   0.00000  Uiso   1.00
Cu1335 Cu    0.25501   0.83913   0.89479   0.00000  Uiso   1.00
Cu1336 Cu    0.24500   0.82754   0.77187   0.00000  Uiso   1.00
H1337  H     0.38320   0.76301   0.76702   0.00000  Uiso   1.00
H1338  H     0.11754   0.90692   0.89624   0.00000  Uiso   1.00
H1339  H     0.03361   0.70903   0.73969   0.00000  Uiso   1.00
H1340  H     0.46739   0.96168   0.92048   0.00000  Uiso   1.00
H1341  H     0.21518   0.79322   0.98294   0.00000  Uiso   1.00
H1342  H     0.28481   0.87346   0.68373   0.00000  Uiso   1.00
N1343  N     0.23745   0.81881   0.67951   0.00000  Uiso   1.00
N1344  N     0.26256   0.84786   0.98716   0.00000  Uiso   1.00
O1345  O     0.25326   0.76204   0.87326   0.00000  Uiso   1.00
O1346  O     0.24675   0.90462   0.79341   0.00000  Uiso   1.00
O1347  O     0.24480   0.75226   0.76945   0.00000  Uiso   1.00
O1348  O     0.25520   0.91441   0.89721   0.00000  Uiso   1.00
O1349  O     0.18936   0.83821   0.88524   0.00000  Uiso   1.00
O1350  O     0.31065   0.82845   0.78143   0.00000  Uiso   1.00
O1351  O     0.18090   0.82843   0.78143   0.00000  Uiso   1.00
O1352  O     0.31910   0.83824   0.88523   0.00000  Uiso   1.00
C1353  C     0.38469   0.92896   0.90976   0.00000  Uiso   1.00
C1354  C     0.36269   0.96736   0.87482   0.00000  Uiso   1.00
C1355  C     0.39307   0.68153   0.87444   0.00000  Uiso   1.00
H1356  H     0.42413   0.66775   0.85218   0.00000  Uiso   1.00
H1357  H     0.40169   0.70520   0.92212   0.00000  Uiso   1.00
H1358  H     0.37542   0.70795   0.84891   0.00000  Uiso   1.00
H1359  H     0.35143   0.94619   0.82702   0.00000  Uiso   1.00
H1360  H     0.33300   0.98394   0.89913   0.00000  Uiso   1.00
H1361  H     0.35930   0.91351   0.93490   0.00000  Uiso   1.00
H1362  H     0.40545   0.95233   0.94906   0.00000  Uiso   1.00
C1363  C     0.11591   0.73336   0.76950   0.00000  Uiso   1.00
C1364  C     0.11386   0.68887   0.80388   0.00000  Uiso   1.00
C1365  C     0.12962   0.96910   0.76522   0.00000  Uiso   1.00
H1366  H     0.13231   0.93946   0.79369   0.00000  Uiso   1.00
H1367  H     0.10539   0.95330   0.72556   0.00000  Uiso   1.00
H1368  H     0.16276   0.97414   0.74790   0.00000  Uiso   1.00
H1369  H     0.13570   0.70046   0.84691   0.00000  Uiso   1.00
H1370  H     0.07932   0.68286   0.81582   0.00000  Uiso   1.00
H1371  H     0.10234   0.71869   0.72149   0.00000  Uiso   1.00
H1372  H     0.15154   0.74048   0.76440   0.00000  Uiso   1.00
C1373  C     0.44674   0.69035   0.73514   0.00000  Uiso   1.00
C1374  C     0.47190   0.97243   0.74065   0.00000  Uiso   1.00
C1375  C     0.44207   0.92228   0.72845   0.00000  Uiso   1.00
H1376  H     0.41182   0.92956   0.75493   0.00000  Uiso   1.00
H1377  H     0.43244   0.90751   0.67901   0.00000  Uiso   1.00
H1378  H     0.46106   0.88987   0.74221   0.00000  Uiso   1.00
H1379  H     0.49843   0.96422   0.70746   0.00000  Uiso   1.00
H1380  H     0.48793   0.97824   0.78758   0.00000  Uiso   1.00
H1381  H     0.41385   0.68810   0.75379   0.00000  Uiso   1.00
H1382  H     0.44084   0.69027   0.68595   0.00000  Uiso   1.00
C1383  C     0.05482   0.97900   0.92736   0.00000  Uiso   1.00
C1384  C     0.02940   0.69773   0.92632   0.00000  Uiso   1.00
C1385  C     0.05873   0.74844   0.94579   0.00000  Uiso   1.00
H1386  H     0.06373   0.76128   0.99639   0.00000  Uiso   1.00
H1387  H     0.09157   0.74290   0.92556   0.00000  Uiso   1.00
H1388  H     0.04161   0.78149   0.93062   0.00000  Uiso   1.00
H1389  H     0.01467   0.69526   0.87929   0.00000  Uiso   1.00
H1390  H     0.00209   0.70315   0.95815   0.00000  Uiso   1.00
H1391  H     0.06419   0.97840   0.97568   0.00000  Uiso   1.00
H1392  H     0.08585   0.98134   0.90407   0.00000  Uiso   1.00
H1393  H     0.24747   0.98562   0.76201   0.00000  Uiso   1.00
H1394  H     0.24872   0.68104   0.90465   0.00000  Uiso   1.00
C1395  C     0.74854   0.73318   0.81753   0.00000  Uiso   1.00
C1396  C     0.74984   0.93345   0.84919   0.00000  Uiso   1.00
C1397  C     0.51826   0.74347   0.76698   0.00000  Uiso   1.00
C1398  C     0.98255   0.92588   0.89709   0.00000  Uiso   1.00
C1399  C     0.74783   0.67688   0.80884   0.00000  Uiso   1.00
C1400  C     0.74831   0.98975   0.85782   0.00000  Uiso   1.00
C1401  C     0.66475   0.83212   0.83438   0.00000  Uiso   1.00
C1402  C     0.83540   0.83545   0.83258   0.00000  Uiso   1.00
C1403  C     0.90878   0.88237   0.86853   0.00000  Uiso   1.00
C1404  C     0.59199   0.78420   0.80212   0.00000  Uiso   1.00
C1405  C     0.88370   0.83843   0.83132   0.00000  Uiso   1.00
C1406  C     0.61681   0.82940   0.83619   0.00000  Uiso   1.00
C1407  C     0.90439   0.79428   0.79591   0.00000  Uiso   1.00
C1408  C     0.59627   0.87469   0.86932   0.00000  Uiso   1.00
C1409  C     0.95078   0.78988   0.79909   0.00000  Uiso   1.00
C1410  C     0.54990   0.87875   0.86677   0.00000  Uiso   1.00
C1411  C     0.97683   0.83477   0.83329   0.00000  Uiso   1.00
C1412  C     0.52386   0.83345   0.83368   0.00000  Uiso   1.00
C1413  C     0.95593   0.88117   0.86702   0.00000  Uiso   1.00
C1414  C     0.54482   0.78677   0.80071   0.00000  Uiso   1.00
C1415  C     0.97191   0.74251   0.76804   0.00000  Uiso   1.00
C1416  C     0.52891   0.92678   0.89600   0.00000  Uiso   1.00
Cu1417 Cu    0.75501   0.83913   0.89479   0.00000  Uiso   1.00
Cu1418 Cu    0.74500   0.82754   0.77187   0.00000  Uiso   1.00
H1419  H     0.88320   0.76301   0.76702   0.00000  Uiso   1.00
H1420  H     0.61754   0.90692   0.89624   0.00000  Uiso   1.00
H1421  H     0.53361   0.70903   0.73969   0.00000  Uiso   1.00
H1422  H     0.96739   0.96168   0.92048   0.00000  Uiso   1.00
H1423  H     0.71518   0.79322   0.98294   0.00000  Uiso   1.00
H1424  H     0.78481   0.87346   0.68373   0.00000  Uiso   1.00
N1425  N     0.73745   0.81881   0.67951   0.00000  Uiso   1.00
N1426  N     0.76256   0.84786   0.98716   0.00000  Uiso   1.00
O1427  O     0.75326   0.76204   0.87326   0.00000  Uiso   1.00
O1428  O     0.74675   0.90462   0.79341   0.00000  Uiso   1.00
O1429  O     0.74480   0.75226   0.76945   0.00000  Uiso   1.00
O1430  O     0.75520   0.91441   0.89721   0.00000  Uiso   1.00
O1431  O     0.68936   0.83821   0.88524   0.00000  Uiso   1.00
O1432  O     0.81065   0.82845   0.78143   0.00000  Uiso   1.00
O1433  O     0.68090   0.82843   0.78143   0.00000  Uiso   1.00
O1434  O     0.81910   0.83824   0.88523   0.00000  Uiso   1.00
C1435  C     0.88469   0.92896   0.90976   0.00000  Uiso   1.00
C1436  C     0.86269   0.96736   0.87482   0.00000  Uiso   1.00
C1437  C     0.89307   0.68153   0.87444   0.00000  Uiso   1.00
H1438  H     0.92413   0.66775   0.85218   0.00000  Uiso   1.00
H1439  H     0.90169   0.70520   0.92212   0.00000  Uiso   1.00
H1440  H     0.87542   0.70795   0.84891   0.00000  Uiso   1.00
H1441  H     0.85143   0.94619   0.82702   0.00000  Uiso   1.00
H1442  H     0.83300   0.98394   0.89913   0.00000  Uiso   1.00
H1443  H     0.85930   0.91351   0.93490   0.00000  Uiso   1.00
H1444  H     0.90545   0.95233   0.94906   0.00000  Uiso   1.00
C1445  C     0.61591   0.73336   0.76950   0.00000  Uiso   1.00
C1446  C     0.61386   0.68887   0.80388   0.00000  Uiso   1.00
C1447  C     0.62962   0.96910   0.76522   0.00000  Uiso   1.00
H1448  H     0.63231   0.93946   0.79369   0.00000  Uiso   1.00
H1449  H     0.60539   0.95330   0.72556   0.00000  Uiso   1.00
H1450  H     0.66276   0.97414   0.74790   0.00000  Uiso   1.00
H1451  H     0.63570   0.70046   0.84691   0.00000  Uiso   1.00
H1452  H     0.57932   0.68286   0.81582   0.00000  Uiso   1.00
H1453  H     0.60234   0.71869   0.72149   0.00000  Uiso   1.00
H1454  H     0.65154   0.74048   0.76440   0.00000  Uiso   1.00
C1455  C     0.94674   0.69035   0.73514   0.00000  Uiso   1.00
C1456  C     0.97190   0.97243   0.74065   0.00000  Uiso   1.00
C1457  C     0.94207   0.92228   0.72845   0.00000  Uiso   1.00
H1458  H     0.91182   0.92956   0.75493   0.00000  Uiso   1.00
H1459  H     0.93244   0.90751   0.67901   0.00000  Uiso   1.00
H1460  H     0.96106   0.88987   0.74221   0.00000  Uiso   1.00
H1461  H     0.99843   0.96422   0.70746   0.00000  Uiso   1.00
H1462  H     0.98793   0.97824   0.78758   0.00000  Uiso   1.00
H1463  H     0.91385   0.68810   0.75379   0.00000  Uiso   1.00
H1464  H     0.94084   0.69027   0.68595   0.00000  Uiso   1.00
C1465  C     0.55482   0.97900   0.92736   0.00000  Uiso   1.00
C1466  C     0.52940   0.69773   0.92632   0.00000  Uiso   1.00
C1467  C     0.55873   0.74844   0.94579   0.00000  Uiso   1.00
H1468  H     0.56373   0.76128   0.99639   0.00000  Uiso   1.00
H1469  H     0.59157   0.74290   0.92556   0.00000  Uiso   1.00
H1470  H     0.54161   0.78149   0.93062   0.00000  Uiso   1.00
H1471  H     0.51467   0.69526   0.87929   0.00000  Uiso   1.00
H1472  H     0.50209   0.70315   0.95815   0.00000  Uiso   1.00
H1473  H     0.56419   0.97840   0.97568   0.00000  Uiso   1.00
H1474  H     0.58585   0.98134   0.90407   0.00000  Uiso   1.00
H1475  H     0.74747   0.98562   0.76201   0.00000  Uiso   1.00
H1476  H     0.74872   0.68104   0.90465   0.00000  Uiso   1.00
loop_
_geom_bond_atom_site_label_1
_geom_bond_atom_site_label_2
_geom_bond_distance
_geom_bond_site_symmetry_2
_ccdc_geom_bond_type
C1     O33     1.290   .     A
C1     C5      1.416   .     S
C1     O35     1.289   .     A
C2     O34     1.290   .     A
C2     C6      1.418   .     S
C2     O36     1.291   .     A
C3     C20     1.401   .     A
C3     H27     1.073   .     S
C3     C103    1.395   1_455 S
C4     C19     1.404   .     A
C4     H28     1.065   .     S
C4     C104    1.395   .     S
C5     C334    1.329   1_545 S
C5     H409    1.088   1_545 S
C6     C169    1.329   .     S
C6     H246    1.088   .     S
C7     C12     1.446   .     S
C7     O37     1.298   .     A
C7     O39     1.294   .     A
C8     O38     1.304   .     A
C8     C11     1.456   .     S
C8     O40     1.293   .     A
C9     C19     1.420   .     A
C9     C11     1.415   .     A
C9     C41     1.541   .     S
C10    C20     1.419   .     A
C10    C51     1.542   .     S
C10    C12     1.410   .     A
C11    C13     1.394   .     A
C12    C14     1.393   .     A
C13    H25     1.080   .     S
C13    C15     1.399   .     A
C14    H26     1.081   .     S
C14    C16     1.397   .     A
C15    C17     1.424   .     A
C15    C21     1.425   .     A
C16    C22     1.423   .     A
C16    C18     1.423   .     A
C17    C19     1.423   .     A
C17    C100    1.414   .     S
C18    C20     1.423   .     A
C18    C99     1.414   1_455 S
C21    C61     1.537   .     S
C21    C85     1.395   .     S
C22    C71     1.541   .     S
C22    C86     1.395   1_455 S
Cu23   O40     1.951   .     S
Cu23   O33     1.927   .     S
Cu23   Cu24    2.701   .     S
Cu23   O37     1.971   .     S
Cu23   N32     2.030   .     S
Cu23   O36     1.928   .     S
Cu24   O39     1.951   .     S
Cu24   O38     1.971   .     S
Cu24   O35     1.928   .     S
Cu24   O34     1.927   .     S
Cu24   N31     2.030   .     S
H29    N523    1.029   .     S
H30    N1016   1.029   1_554 S
N31    H1013   1.029   1_554 S
N31    N1016   1.311   1_554 S
N32    N523    1.311   .     S
N32    H522    1.029   .     S
C41    H50     1.096   .     S
C41    C42     1.534   .     S
C41    H49     1.103   .     S
C42    H48     1.108   .     S
C42    H47     1.111   .     S
C42    C207    1.525   .     S
C43    H44     1.106   .     S
C43    H45     1.110   .     S
C43    H46     1.109   .     S
C43    C370    1.525   1_545 S
C51    C52     1.533   .     S
C51    H59     1.104   .     S
C51    H60     1.103   .     S
C52    H58     1.107   .     S
C52    H57     1.111   .     S
C52    C381    1.527   1_545 S
C53    H54     1.109   .     S
C53    H55     1.109   .     S
C53    H56     1.109   .     S
C53    C216    1.527   .     S
C61    H70     1.107   .     S
C61    H69     1.103   .     S
C61    C390    1.553   1_545 S
C62    H67     1.110   .     S
C62    C63     1.528   .     S
C62    H68     1.107   .     S
C62    C225    1.553   .     S
C63    H65     1.103   .     S
C63    H66     1.108   .     S
C63    H64     1.109   .     S
C71    H79     1.108   .     S
C71    H80     1.105   .     S
C71    C236    1.552   .     S
C72    H77     1.107   .     S
C72    H78     1.108   .     S
C72    C73     1.529   .     S
C72    C399    1.552   1_545 S
C73    H74     1.104   .     S
C73    H75     1.107   .     S
C73    H76     1.109   .     S
H81    C169    1.088   .     S
H82    C334    1.088   1_545 S
C83    O115    1.290   .     A
C83    C87     1.416   .     S
C83    O117    1.289   .     A
C84    O116    1.290   .     A
C84    C88     1.418   .     S
C84    O118    1.291   .     A
C85    C102    1.401   .     A
C85    H109    1.073   .     S
C86    C101    1.404   .     A
C86    H110    1.065   .     S
C86    C22     1.395   1_655 S
C87    C416    1.329   1_545 S
C87    H491    1.088   1_545 S
C88    C251    1.329   .     S
C88    H328    1.088   .     S
C89    C94     1.446   .     S
C89    O119    1.298   .     A
C89    O121    1.294   .     A
C90    O120    1.304   .     A
C90    C93     1.456   .     S
C90    O122    1.293   .     A
C91    C101    1.420   .     A
C91    C93     1.415   .     A
C91    C123    1.541   .     S
C92    C102    1.419   .     A
C92    C133    1.542   .     S
C92    C94     1.410   .     A
C93    C95     1.394   .     A
C94    C96     1.393   .     A
C95    H107    1.080   .     S
C95    C97     1.399   .     A
C96    H108    1.081   .     S
C96    C98     1.397   .     A
C97    C99     1.424   .     A
C97    C103    1.425   .     A
C98    C104    1.423   .     A
C98    C100    1.423   .     A
C99    C101    1.423   .     A
C99    C18     1.414   1_655 S
C100   C102    1.423   .     A
C103   C143    1.537   .     S
C103   C3      1.395   1_655 S
C104   C153    1.541   .     S
Cu105  O122    1.951   .     S
Cu105  O115    1.927   .     S
Cu105  Cu106   2.701   .     S
Cu105  O119    1.971   .     S
Cu105  N114    2.030   .     S
Cu105  O118    1.928   .     S
Cu106  O121    1.951   .     S
Cu106  O120    1.971   .     S
Cu106  O117    1.928   .     S
Cu106  O116    1.927   .     S
Cu106  N113    2.030   .     S
H111   N605    1.029   .     S
H112   N1098   1.029   1_554 S
N113   H1095   1.029   1_554 S
N113   N1098   1.311   1_554 S
N114   N605    1.311   .     S
N114   H604    1.029   .     S
C123   H132    1.096   .     S
C123   C124    1.534   .     S
C123   H131    1.103   .     S
C124   H130    1.108   .     S
C124   H129    1.111   .     S
C124   C289    1.525   .     S
C125   H126    1.106   .     S
C125   H127    1.110   .     S
C125   H128    1.109   .     S
C125   C452    1.525   1_545 S
C133   C134    1.533   .     S
C133   H141    1.104   .     S
C133   H142    1.103   .     S
C134   H140    1.107   .     S
C134   H139    1.111   .     S
C134   C463    1.527   1_545 S
C135   H136    1.109   .     S
C135   H137    1.109   .     S
C135   H138    1.109   .     S
C135   C298    1.527   .     S
C143   H152    1.107   .     S
C143   H151    1.103   .     S
C143   C472    1.553   1_545 S
C144   H149    1.110   .     S
C144   C145    1.528   .     S
C144   H150    1.107   .     S
C144   C307    1.553   .     S
C145   H147    1.103   .     S
C145   H148    1.108   .     S
C145   H146    1.109   .     S
C153   H161    1.108   .     S
C153   H162    1.105   .     S
C153   C318    1.552   .     S
C154   H159    1.107   .     S
C154   H160    1.108   .     S
C154   C155    1.529   .     S
C154   C481    1.552   1_545 S
C155   H156    1.104   .     S
C155   H157    1.107   .     S
C155   H158    1.109   .     S
H163   C251    1.088   .     S
H164   C416    1.088   1_545 S
C165   O197    1.290   .     A
C165   C169    1.416   .     S
C165   O199    1.289   .     A
C166   O198    1.290   .     A
C166   C170    1.418   .     S
C166   O200    1.291   .     A
C167   C184    1.401   .     A
C167   H191    1.073   .     S
C167   C267    1.395   1_455 S
C168   C183    1.404   .     A
C168   H192    1.065   .     S
C168   C268    1.395   .     S
C170   C333    1.329   .     S
C170   H410    1.088   .     S
C171   C176    1.446   .     S
C171   O201    1.298   .     A
C171   O203    1.294   .     A
C172   O202    1.304   .     A
C172   C175    1.456   .     S
C172   O204    1.293   .     A
C173   C183    1.420   .     A
C173   C175    1.415   .     A
C173   C205    1.541   .     S
C174   C184    1.419   .     A
C174   C215    1.542   .     S
C174   C176    1.410   .     A
C175   C177    1.394   .     A
C176   C178    1.393   .     A
C177   H189    1.080   .     S
C177   C179    1.399   .     A
C178   H190    1.081   .     S
C178   C180    1.397   .     A
C179   C181    1.424   .     A
C179   C185    1.425   .     A
C180   C186    1.423   .     A
C180   C182    1.423   .     A
C181   C183    1.423   .     A
C181   C264    1.414   .     S
C182   C184    1.423   .     A
C182   C263    1.414   1_455 S
C185   C225    1.537   .     S
C185   C249    1.395   .     S
C186   C235    1.541   .     S
C186   C250    1.395   1_455 S
Cu187  O204    1.951   .     S
Cu187  O197    1.927   .     S
Cu187  Cu188   2.701   .     S
Cu187  O201    1.971   .     S
Cu187  N196    2.030   .     S
Cu187  O200    1.928   .     S
Cu188  O203    1.951   .     S
Cu188  O202    1.971   .     S
Cu188  O199    1.928   .     S
Cu188  O198    1.927   .     S
Cu188  N195    2.030   .     S
H193   N687    1.029   .     S
H194   N1180   1.029   1_554 S
N195   H1177   1.029   1_554 S
N195   N1180   1.311   1_554 S
N196   N687    1.311   .     S
N196   H686    1.029   .     S
C205   H214    1.096   .     S
C205   C206    1.534   .     S
C205   H213    1.103   .     S
C206   H212    1.108   .     S
C206   H211    1.111   .     S
C206   C371    1.525   .     S
C207   H208    1.106   .     S
C207   H209    1.110   .     S
C207   H210    1.109   .     S
C215   C216    1.533   .     S
C215   H223    1.104   .     S
C215   H224    1.103   .     S
C216   H222    1.107   .     S
C216   H221    1.111   .     S
C217   H218    1.109   .     S
C217   H219    1.109   .     S
C217   H220    1.109   .     S
C217   C380    1.527   .     S
C225   H234    1.107   .     S
C225   H233    1.103   .     S
C226   H231    1.110   .     S
C226   C227    1.528   .     S
C226   H232    1.107   .     S
C226   C389    1.553   .     S
C227   H229    1.103   .     S
C227   H230    1.108   .     S
C227   H228    1.109   .     S
C235   H243    1.108   .     S
C235   H244    1.105   .     S
C235   C400    1.552   .     S
C236   H241    1.107   .     S
C236   H242    1.108   .     S
C236   C237    1.529   .     S
C237   H238    1.104   .     S
C237   H239    1.107   .     S
C237   H240    1.109   .     S
H245   C333    1.088   .     S
C247   O279    1.290   .     A
C247   C251    1.416   .     S
C247   O281    1.289   .     A
C248   O280    1.290   .     A
C248   C252    1.418   .     S
C248   O282    1.291   .     A
C249   C266    1.401   .     A
C249   H273    1.073   .     S
C250   C265    1.404   .     A
C250   H274    1.065   .     S
C250   C186    1.395   1_655 S
C252   C415    1.329   .     S
C252   H492    1.088   .     S
C253   C258    1.446   .     S
C253   O283    1.298   .     A
C253   O285    1.294   .     A
C254   O284    1.304   .     A
C254   C257    1.456   .     S
C254   O286    1.293   .     A
C255   C265    1.420   .     A
C255   C257    1.415   .     A
C255   C287    1.541   .     S
C256   C266    1.419   .     A
C256   C297    1.542   .     S
C256   C258    1.410   .     A
C257   C259    1.394   .     A
C258   C260    1.393   .     A
C259   H271    1.080   .     S
C259   C261    1.399   .     A
C260   H272    1.081   .     S
C260   C262    1.397   .     A
C261   C263    1.424   .     A
C261   C267    1.425   .     A
C262   C268    1.423   .     A
C262   C264    1.423   .     A
C263   C265    1.423   .     A
C263   C182    1.414   1_655 S
C264   C266    1.423   .     A
C267   C307    1.537   .     S
C267   C167    1.395   1_655 S
C268   C317    1.541   .     S
Cu269  O286    1.951   .     S
Cu269  O279    1.927   .     S
Cu269  Cu270   2.701   .     S
Cu269  O283    1.971   .     S
Cu269  N278    2.030   .     S
Cu269  O282    1.928   .     S
Cu270  O285    1.951   .     S
Cu270  O284    1.971   .     S
Cu270  O281    1.928   .     S
Cu270  O280    1.927   .     S
Cu270  N277    2.030   .     S
H275   N769    1.029   .     S
H276   N1262   1.029   1_554 S
N277   H1259   1.029   1_554 S
N277   N1262   1.311   1_554 S
N278   N769    1.311   .     S
N278   H768    1.029   .     S
C287   H296    1.096   .     S
C287   C288    1.534   .     S
C287   H295    1.103   .     S
C288   H294    1.108   .     S
C288   H293    1.111   .     S
C288   C453    1.525   .     S
C289   H290    1.106   .     S
C289   H291    1.110   .     S
C289   H292    1.109   .     S
C297   C298    1.533   .     S
C297   H305    1.104   .     S
C297   H306    1.103   .     S
C298   H304    1.107   .     S
C298   H303    1.111   .     S
C299   H300    1.109   .     S
C299   H301    1.109   .     S
C299   H302    1.109   .     S
C299   C462    1.527   .     S
C307   H316    1.107   .     S
C307   H315    1.103   .     S
C308   H313    1.110   .     S
C308   C309    1.528   .     S
C308   H314    1.107   .     S
C308   C471    1.553   .     S
C309   H311    1.103   .     S
C309   H312    1.108   .     S
C309   H310    1.109   .     S
C317   H325    1.108   .     S
C317   H326    1.105   .     S
C317   C482    1.552   .     S
C318   H323    1.107   .     S
C318   H324    1.108   .     S
C318   C319    1.529   .     S
C319   H320    1.104   .     S
C319   H321    1.107   .     S
C319   H322    1.109   .     S
H327   C415    1.088   .     S
C329   O361    1.290   .     A
C329   C333    1.416   .     S
C329   O363    1.289   .     A
C330   O362    1.290   .     A
C330   C334    1.418   .     S
C330   O364    1.291   .     A
C331   C348    1.401   .     A
C331   H355    1.073   .     S
C331   C431    1.395   1_455 S
C332   C347    1.404   .     A
C332   H356    1.065   .     S
C332   C432    1.395   .     S
C334   C5      1.329   1_565 S
C334   H82     1.088   1_565 S
C335   C340    1.446   .     S
C335   O365    1.298   .     A
C335   O367    1.294   .     A
C336   O366    1.304   .     A
C336   C339    1.456   .     S
C336   O368    1.293   .     A
C337   C347    1.420   .     A
C337   C339    1.415   .     A
C337   C369    1.541   .     S
C338   C348    1.419   .     A
C338   C379    1.542   .     S
C338   C340    1.410   .     A
C339   C341    1.394   .     A
C340   C342    1.393   .     A
C341   H353    1.080   .     S
C341   C343    1.399   .     A
C342   H354    1.081   .     S
C342   C344    1.397   .     A
C343   C345    1.424   .     A
C343   C349    1.425   .     A
C344   C350    1.423   .     A
C344   C346    1.423   .     A
C345   C347    1.423   .     A
C345   C428    1.414   .     S
C346   C348    1.423   .     A
C346   C427    1.414   1_455 S
C349   C389    1.537   .     S
C349   C413    1.395   .     S
C350   C399    1.541   .     S
C350   C414    1.395   1_455 S
Cu351  O368    1.951   .     S
Cu351  O361    1.927   .     S
Cu351  Cu352   2.701   .     S
Cu351  O365    1.971   .     S
Cu351  N360    2.030   .     S
Cu351  O364    1.928   .     S
Cu352  O367    1.951   .     S
Cu352  O366    1.971   .     S
Cu352  O363    1.928   .     S
Cu352  O362    1.927   .     S
Cu352  N359    2.030   .     S
H357   N851    1.029   .     S
H358   N1344   1.029   1_554 S
N359   H1341   1.029   1_554 S
N359   N1344   1.311   1_554 S
N360   N851    1.311   .     S
N360   H850    1.029   .     S
C369   H378    1.096   .     S
C369   C370    1.534   .     S
C369   H377    1.103   .     S
C370   H376    1.108   .     S
C370   H375    1.111   .     S
C370   C43     1.525   1_565 S
C371   H372    1.106   .     S
C371   H373    1.110   .     S
C371   H374    1.109   .     S
C379   C380    1.533   .     S
C379   H387    1.104   .     S
C379   H388    1.103   .     S
C380   H386    1.107   .     S
C380   H385    1.111   .     S
C381   H382    1.109   .     S
C381   H383    1.109   .     S
C381   H384    1.109   .     S
C381   C52     1.527   1_565 S
C389   H398    1.107   .     S
C389   H397    1.103   .     S
C390   H395    1.110   .     S
C390   C391    1.528   .     S
C390   H396    1.107   .     S
C390   C61     1.553   1_565 S
C391   H393    1.103   .     S
C391   H394    1.108   .     S
C391   H392    1.109   .     S
C399   H407    1.108   .     S
C399   H408    1.105   .     S
C399   C72     1.552   1_565 S
C400   H405    1.107   .     S
C400   H406    1.108   .     S
C400   C401    1.529   .     S
C401   H402    1.104   .     S
C401   H403    1.107   .     S
C401   H404    1.109   .     S
H409   C5      1.088   1_565 S
C411   O443    1.290   .     A
C411   C415    1.416   .     S
C411   O445    1.289   .     A
C412   O444    1.290   .     A
C412   C416    1.418   .     S
C412   O446    1.291   .     A
C413   C430    1.401   .     A
C413   H437    1.073   .     S
C414   C429    1.404   .     A
C414   H438    1.065   .     S
C414   C350    1.395   1_655 S
C416   C87     1.329   1_565 S
C416   H164    1.088   1_565 S
C417   C422    1.446   .     S
C417   O447    1.298   .     A
C417   O449    1.294   .     A
C418   O448    1.304   .     A
C418   C421    1.456   .     S
C418   O450    1.293   .     A
C419   C429    1.420   .     A
C419   C421    1.415   .     A
C419   C451    1.541   .     S
C420   C430    1.419   .     A
C420   C461    1.542   .     S
C420   C422    1.410   .     A
C421   C423    1.394   .     A
C422   C424    1.393   .     A
C423   H435    1.080   .     S
C423   C425    1.399   .     A
C424   H436    1.081   .     S
C424   C426    1.397   .     A
C425   C427    1.424   .     A
C425   C431    1.425   .     A
C426   C432    1.423   .     A
C426   C428    1.423   .     A
C427   C429    1.423   .     A
C427   C346    1.414   1_655 S
C428   C430    1.423   .     A
C431   C471    1.537   .     S
C431   C331    1.395   1_655 S
C432   C481    1.541   .     S
Cu433  O450    1.951   .     S
Cu433  O443    1.927   .     S
Cu433  Cu434   2.701   .     S
Cu433  O447    1.971   .     S
Cu433  N442    2.030   .     S
Cu433  O446    1.928   .     S
Cu434  O449    1.951   .     S
Cu434  O448    1.971   .     S
Cu434  O445    1.928   .     S
Cu434  O444    1.927   .     S
Cu434  N441    2.030   .     S
H439   N933    1.029   .     S
H440   N1426   1.029   1_554 S
N441   H1423   1.029   1_554 S
N441   N1426   1.311   1_554 S
N442   N933    1.311   .     S
N442   H932    1.029   .     S
C451   H460    1.096   .     S
C451   C452    1.534   .     S
C451   H459    1.103   .     S
C452   H458    1.108   .     S
C452   H457    1.111   .     S
C452   C125    1.525   1_565 S
C453   H454    1.106   .     S
C453   H455    1.110   .     S
C453   H456    1.109   .     S
C461   C462    1.533   .     S
C461   H469    1.104   .     S
C461   H470    1.103   .     S
C462   H468    1.107   .     S
C462   H467    1.111   .     S
C463   H464    1.109   .     S
C463   H465    1.109   .     S
C463   H466    1.109   .     S
C463   C134    1.527   1_565 S
C471   H480    1.107   .     S
C471   H479    1.103   .     S
C472   H477    1.110   .     S
C472   C473    1.528   .     S
C472   H478    1.107   .     S
C472   C143    1.553   1_565 S
C473   H475    1.103   .     S
C473   H476    1.108   .     S
C473   H474    1.109   .     S
C481   H489    1.108   .     S
C481   H490    1.105   .     S
C481   C154    1.552   1_565 S
C482   H487    1.107   .     S
C482   H488    1.108   .     S
C482   C483    1.529   .     S
C483   H484    1.104   .     S
C483   H485    1.107   .     S
C483   H486    1.109   .     S
H491   C87     1.088   1_565 S
C493   O525    1.290   .     A
C493   C497    1.416   .     S
C493   O527    1.289   .     A
C494   O526    1.290   .     A
C494   C498    1.418   .     S
C494   O528    1.291   .     A
C495   C512    1.401   .     A
C495   H519    1.073   .     S
C495   C595    1.395   1_455 S
C496   C511    1.404   .     A
C496   H520    1.065   .     S
C496   C596    1.395   .     S
C497   C826    1.329   1_545 S
C497   H901    1.088   1_545 S
C498   C661    1.329   .     S
C498   H738    1.088   .     S
C499   C504    1.446   .     S
C499   O529    1.298   .     A
C499   O531    1.294   .     A
C500   O530    1.304   .     A
C500   C503    1.456   .     S
C500   O532    1.293   .     A
C501   C511    1.420   .     A
C501   C503    1.415   .     A
C501   C533    1.541   .     S
C502   C512    1.419   .     A
C502   C543    1.542   .     S
C502   C504    1.410   .     A
C503   C505    1.394   .     A
C504   C506    1.393   .     A
C505   H517    1.080   .     S
C505   C507    1.399   .     A
C506   H518    1.081   .     S
C506   C508    1.397   .     A
C507   C509    1.424   .     A
C507   C513    1.425   .     A
C508   C514    1.423   .     A
C508   C510    1.423   .     A
C509   C511    1.423   .     A
C509   C592    1.414   .     S
C510   C512    1.423   .     A
C510   C591    1.414   1_455 S
C513   C553    1.537   .     S
C513   C577    1.395   .     S
C514   C563    1.541   .     S
C514   C578    1.395   1_455 S
Cu515  O532    1.951   .     S
Cu515  O525    1.927   .     S
Cu515  Cu516   2.701   .     S
Cu515  O529    1.971   .     S
Cu515  N524    2.030   .     S
Cu515  O528    1.928   .     S
Cu516  O531    1.951   .     S
Cu516  O530    1.971   .     S
Cu516  O527    1.928   .     S
Cu516  O526    1.927   .     S
Cu516  N523    2.030   .     S
H521   N1015   1.029   .     S
N524   N1015   1.311   .     S
N524   H1014   1.029   .     S
C533   H542    1.096   .     S
C533   C534    1.534   .     S
C533   H541    1.103   .     S
C534   H540    1.108   .     S
C534   H539    1.111   .     S
C534   C699    1.525   .     S
C535   H536    1.106   .     S
C535   H537    1.110   .     S
C535   H538    1.109   .     S
C535   C862    1.525   1_545 S
C543   C544    1.533   .     S
C543   H551    1.104   .     S
C543   H552    1.103   .     S
C544   H550    1.107   .     S
C544   H549    1.111   .     S
C544   C873    1.527   1_545 S
C545   H546    1.109   .     S
C545   H547    1.109   .     S
C545   H548    1.109   .     S
C545   C708    1.527   .     S
C553   H562    1.107   .     S
C553   H561    1.103   .     S
C553   C882    1.553   1_545 S
C554   H559    1.110   .     S
C554   C555    1.528   .     S
C554   H560    1.107   .     S
C554   C717    1.553   .     S
C555   H557    1.103   .     S
C555   H558    1.108   .     S
C555   H556    1.109   .     S
C563   H571    1.108   .     S
C563   H572    1.105   .     S
C563   C728    1.552   .     S
C564   H569    1.107   .     S
C564   H570    1.108   .     S
C564   C565    1.529   .     S
C564   C891    1.552   1_545 S
C565   H566    1.104   .     S
C565   H567    1.107   .     S
C565   H568    1.109   .     S
H573   C661    1.088   .     S
H574   C826    1.088   1_545 S
C575   O607    1.290   .     A
C575   C579    1.416   .     S
C575   O609    1.289   .     A
C576   O608    1.290   .     A
C576   C580    1.418   .     S
C576   O610    1.291   .     A
C577   C594    1.401   .     A
C577   H601    1.073   .     S
C578   C593    1.404   .     A
C578   H602    1.065   .     S
C578   C514    1.395   1_655 S
C579   C908    1.329   1_545 S
C579   H983    1.088   1_545 S
C580   C743    1.329   .     S
C580   H820    1.088   .     S
C581   C586    1.446   .     S
C581   O611    1.298   .     A
C581   O613    1.294   .     A
C582   O612    1.304   .     A
C582   C585    1.456   .     S
C582   O614    1.293   .     A
C583   C593    1.420   .     A
C583   C585    1.415   .     A
C583   C615    1.541   .     S
C584   C594    1.419   .     A
C584   C625    1.542   .     S
C584   C586    1.410   .     A
C585   C587    1.394   .     A
C586   C588    1.393   .     A
C587   H599    1.080   .     S
C587   C589    1.399   .     A
C588   H600    1.081   .     S
C588   C590    1.397   .     A
C589   C591    1.424   .     A
C589   C595    1.425   .     A
C590   C596    1.423   .     A
C590   C592    1.423   .     A
C591   C593    1.423   .     A
C591   C510    1.414   1_655 S
C592   C594    1.423   .     A
C595   C635    1.537   .     S
C595   C495    1.395   1_655 S
C596   C645    1.541   .     S
Cu597  O614    1.951   .     S
Cu597  O607    1.927   .     S
Cu597  Cu598   2.701   .     S
Cu597  O611    1.971   .     S
Cu597  N606    2.030   .     S
Cu597  O610    1.928   .     S
Cu598  O613    1.951   .     S
Cu598  O612    1.971   .     S
Cu598  O609    1.928   .     S
Cu598  O608    1.927   .     S
Cu598  N605    2.030   .     S
H603   N1097   1.029   .     S
N606   N1097   1.311   .     S
N606   H1096   1.029   .     S
C615   H624    1.096   .     S
C615   C616    1.534   .     S
C615   H623    1.103   .     S
C616   H622    1.108   .     S
C616   H621    1.111   .     S
C616   C781    1.525   .     S
C617   H618    1.106   .     S
C617   H619    1.110   .     S
C617   H620    1.109   .     S
C617   C944    1.525   1_545 S
C625   C626    1.533   .     S
C625   H633    1.104   .     S
C625   H634    1.103   .     S
C626   H632    1.107   .     S
C626   H631    1.111   .     S
C626   C955    1.527   1_545 S
C627   H628    1.109   .     S
C627   H629    1.109   .     S
C627   H630    1.109   .     S
C627   C790    1.527   .     S
C635   H644    1.107   .     S
C635   H643    1.103   .     S
C635   C964    1.553   1_545 S
C636   H641    1.110   .     S
C636   C637    1.528   .     S
C636   H642    1.107   .     S
C636   C799    1.553   .     S
C637   H639    1.103   .     S
C637   H640    1.108   .     S
C637   H638    1.109   .     S
C645   H653    1.108   .     S
C645   H654    1.105   .     S
C645   C810    1.552   .     S
C646   H651    1.107   .     S
C646   H652    1.108   .     S
C646   C647    1.529   .     S
C646   C973    1.552   1_545 S
C647   H648    1.104   .     S
C647   H649    1.107   .     S
C647   H650    1.109   .     S
H655   C743    1.088   .     S
H656   C908    1.088   1_545 S
C657   O689    1.290   .     A
C657   C661    1.416   .     S
C657   O691    1.289   .     A
C658   O690    1.290   .     A
C658   C662    1.418   .     S
C658   O692    1.291   .     A
C659   C676    1.401   .     A
C659   H683    1.073   .     S
C659   C759    1.395   1_455 S
C660   C675    1.404   .     A
C660   H684    1.065   .     S
C660   C760    1.395   .     S
C662   C825    1.329   .     S
C662   H902    1.088   .     S
C663   C668    1.446   .     S
C663   O693    1.298   .     A
C663   O695    1.294   .     A
C664   O694    1.304   .     A
C664   C667    1.456   .     S
C664   O696    1.293   .     A
C665   C675    1.420   .     A
C665   C667    1.415   .     A
C665   C697    1.541   .     S
C666   C676    1.419   .     A
C666   C707    1.542   .     S
C666   C668    1.410   .     A
C667   C669    1.394   .     A
C668   C670    1.393   .     A
C669   H681    1.080   .     S
C669   C671    1.399   .     A
C670   H682    1.081   .     S
C670   C672    1.397   .     A
C671   C673    1.424   .     A
C671   C677    1.425   .     A
C672   C678    1.423   .     A
C672   C674    1.423   .     A
C673   C675    1.423   .     A
C673   C756    1.414   .     S
C674   C676    1.423   .     A
C674   C755    1.414   1_455 S
C677   C717    1.537   .     S
C677   C741    1.395   .     S
C678   C727    1.541   .     S
C678   C742    1.395   1_455 S
Cu679  O696    1.951   .     S
Cu679  O689    1.927   .     S
Cu679  Cu680   2.701   .     S
Cu679  O693    1.971   .     S
Cu679  N688    2.030   .     S
Cu679  O692    1.928   .     S
Cu680  O695    1.951   .     S
Cu680  O694    1.971   .     S
Cu680  O691    1.928   .     S
Cu680  O690    1.927   .     S
Cu680  N687    2.030   .     S
H685   N1179   1.029   .     S
N688   N1179   1.311   .     S
N688   H1178   1.029   .     S
C697   H706    1.096   .     S
C697   C698    1.534   .     S
C697   H705    1.103   .     S
C698   H704    1.108   .     S
C698   H703    1.111   .     S
C698   C863    1.525   .     S
C699   H700    1.106   .     S
C699   H701    1.110   .     S
C699   H702    1.109   .     S
C707   C708    1.533   .     S
C707   H715    1.104   .     S
C707   H716    1.103   .     S
C708   H714    1.107   .     S
C708   H713    1.111   .     S
C709   H710    1.109   .     S
C709   H711    1.109   .     S
C709   H712    1.109   .     S
C709   C872    1.527   .     S
C717   H726    1.107   .     S
C717   H725    1.103   .     S
C718   H723    1.110   .     S
C718   C719    1.528   .     S
C718   H724    1.107   .     S
C718   C881    1.553   .     S
C719   H721    1.103   .     S
C719   H722    1.108   .     S
C719   H720    1.109   .     S
C727   H735    1.108   .     S
C727   H736    1.105   .     S
C727   C892    1.552   .     S
C728   H733    1.107   .     S
C728   H734    1.108   .     S
C728   C729    1.529   .     S
C729   H730    1.104   .     S
C729   H731    1.107   .     S
C729   H732    1.109   .     S
H737   C825    1.088   .     S
C739   O771    1.290   .     A
C739   C743    1.416   .     S
C739   O773    1.289   .     A
C740   O772    1.290   .     A
C740   C744    1.418   .     S
C740   O774    1.291   .     A
C741   C758    1.401   .     A
C741   H765    1.073   .     S
C742   C757    1.404   .     A
C742   H766    1.065   .     S
C742   C678    1.395   1_655 S
C744   C907    1.329   .     S
C744   H984    1.088   .     S
C745   C750    1.446   .     S
C745   O775    1.298   .     A
C745   O777    1.294   .     A
C746   O776    1.304   .     A
C746   C749    1.456   .     S
C746   O778    1.293   .     A
C747   C757    1.420   .     A
C747   C749    1.415   .     A
C747   C779    1.541   .     S
C748   C758    1.419   .     A
C748   C789    1.542   .     S
C748   C750    1.410   .     A
C749   C751    1.394   .     A
C750   C752    1.393   .     A
C751   H763    1.080   .     S
C751   C753    1.399   .     A
C752   H764    1.081   .     S
C752   C754    1.397   .     A
C753   C755    1.424   .     A
C753   C759    1.425   .     A
C754   C760    1.423   .     A
C754   C756    1.423   .     A
C755   C757    1.423   .     A
C755   C674    1.414   1_655 S
C756   C758    1.423   .     A
C759   C799    1.537   .     S
C759   C659    1.395   1_655 S
C760   C809    1.541   .     S
Cu761  O778    1.951   .     S
Cu761  O771    1.927   .     S
Cu761  Cu762   2.701   .     S
Cu761  O775    1.971   .     S
Cu761  N770    2.030   .     S
Cu761  O774    1.928   .     S
Cu762  O777    1.951   .     S
Cu762  O776    1.971   .     S
Cu762  O773    1.928   .     S
Cu762  O772    1.927   .     S
Cu762  N769    2.030   .     S
H767   N1261   1.029   .     S
N770   N1261   1.311   .     S
N770   H1260   1.029   .     S
C779   H788    1.096   .     S
C779   C780    1.534   .     S
C779   H787    1.103   .     S
C780   H786    1.108   .     S
C780   H785    1.111   .     S
C780   C945    1.525   .     S
C781   H782    1.106   .     S
C781   H783    1.110   .     S
C781   H784    1.109   .     S
C789   C790    1.533   .     S
C789   H797    1.104   .     S
C789   H798    1.103   .     S
C790   H796    1.107   .     S
C790   H795    1.111   .     S
C791   H792    1.109   .     S
C791   H793    1.109   .     S
C791   H794    1.109   .     S
C791   C954    1.527   .     S
C799   H808    1.107   .     S
C799   H807    1.103   .     S
C800   H805    1.110   .     S
C800   C801    1.528   .     S
C800   H806    1.107   .     S
C800   C963    1.553   .     S
C801   H803    1.103   .     S
C801   H804    1.108   .     S
C801   H802    1.109   .     S
C809   H817    1.108   .     S
C809   H818    1.105   .     S
C809   C974    1.552   .     S
C810   H815    1.107   .     S
C810   H816    1.108   .     S
C810   C811    1.529   .     S
C811   H812    1.104   .     S
C811   H813    1.107   .     S
C811   H814    1.109   .     S
H819   C907    1.088   .     S
C821   O853    1.290   .     A
C821   C825    1.416   .     S
C821   O855    1.289   .     A
C822   O854    1.290   .     A
C822   C826    1.418   .     S
C822   O856    1.291   .     A
C823   C840    1.401   .     A
C823   H847    1.073   .     S
C823   C923    1.395   1_455 S
C824   C839    1.404   .     A
C824   H848    1.065   .     S
C824   C924    1.395   .     S
C826   C497    1.329   1_565 S
C826   H574    1.088   1_565 S
C827   C832    1.446   .     S
C827   O857    1.298   .     A
C827   O859    1.294   .     A
C828   O858    1.304   .     A
C828   C831    1.456   .     S
C828   O860    1.293   .     A
C829   C839    1.420   .     A
C829   C831    1.415   .     A
C829   C861    1.541   .     S
C830   C840    1.419   .     A
C830   C871    1.542   .     S
C830   C832    1.410   .     A
C831   C833    1.394   .     A
C832   C834    1.393   .     A
C833   H845    1.080   .     S
C833   C835    1.399   .     A
C834   H846    1.081   .     S
C834   C836    1.397   .     A
C835   C837    1.424   .     A
C835   C841    1.425   .     A
C836   C842    1.423   .     A
C836   C838    1.423   .     A
C837   C839    1.423   .     A
C837   C920    1.414   .     S
C838   C840    1.423   .     A
C838   C919    1.414   1_455 S
C841   C881    1.537   .     S
C841   C905    1.395   .     S
C842   C891    1.541   .     S
C842   C906    1.395   1_455 S
Cu843  O860    1.951   .     S
Cu843  O853    1.927   .     S
Cu843  Cu844   2.701   .     S
Cu843  O857    1.971   .     S
Cu843  N852    2.030   .     S
Cu843  O856    1.928   .     S
Cu844  O859    1.951   .     S
Cu844  O858    1.971   .     S
Cu844  O855    1.928   .     S
Cu844  O854    1.927   .     S
Cu844  N851    2.030   .     S
H849   N1343   1.029   .     S
N852   N1343   1.311   .     S
N852   H1342   1.029   .     S
C861   H870    1.096   .     S
C861   C862    1.534   .     S
C861   H869    1.103   .     S
C862   H868    1.108   .     S
C862   H867    1.111   .     S
C862   C535    1.525   1_565 S
C863   H864    1.106   .     S
C863   H865    1.110   .     S
C863   H866    1.109   .     S
C871   C872    1.533   .     S
C871   H879    1.104   .     S
C871   H880    1.103   .     S
C872   H878    1.107   .     S
C872   H877    1.111   .     S
C873   H874    1.109   .     S
C873   H875    1.109   .     S
C873   H876    1.109   .     S
C873   C544    1.527   1_565 S
C881   H890    1.107   .     S
C881   H889    1.103   .     S
C882   H887    1.110   .     S
C882   C883    1.528   .     S
C882   H888    1.107   .     S
C882   C553    1.553   1_565 S
C883   H885    1.103   .     S
C883   H886    1.108   .     S
C883   H884    1.109   .     S
C891   H899    1.108   .     S
C891   H900    1.105   .     S
C891   C564    1.552   1_565 S
C892   H897    1.107   .     S
C892   H898    1.108   .     S
C892   C893    1.529   .     S
C893   H894    1.104   .     S
C893   H895    1.107   .     S
C893   H896    1.109   .     S
H901   C497    1.088   1_565 S
C903   O935    1.290   .     A
C903   C907    1.416   .     S
C903   O937    1.289   .     A
C904   O936    1.290   .     A
C904   C908    1.418   .     S
C904   O938    1.291   .     A
C905   C922    1.401   .     A
C905   H929    1.073   .     S
C906   C921    1.404   .     A
C906   H930    1.065   .     S
C906   C842    1.395   1_655 S
C908   C579    1.329   1_565 S
C908   H656    1.088   1_565 S
C909   C914    1.446   .     S
C909   O939    1.298   .     A
C909   O941    1.294   .     A
C910   O940    1.304   .     A
C910   C913    1.456   .     S
C910   O942    1.293   .     A
C911   C921    1.420   .     A
C911   C913    1.415   .     A
C911   C943    1.541   .     S
C912   C922    1.419   .     A
C912   C953    1.542   .     S
C912   C914    1.410   .     A
C913   C915    1.394   .     A
C914   C916    1.393   .     A
C915   H927    1.080   .     S
C915   C917    1.399   .     A
C916   H928    1.081   .     S
C916   C918    1.397   .     A
C917   C919    1.424   .     A
C917   C923    1.425   .     A
C918   C924    1.423   .     A
C918   C920    1.423   .     A
C919   C921    1.423   .     A
C919   C838    1.414   1_655 S
C920   C922    1.423   .     A
C923   C963    1.537   .     S
C923   C823    1.395   1_655 S
C924   C973    1.541   .     S
Cu925  O942    1.951   .     S
Cu925  O935    1.927   .     S
Cu925  Cu926   2.701   .     S
Cu925  O939    1.971   .     S
Cu925  N934    2.030   .     S
Cu925  O938    1.928   .     S
Cu926  O941    1.951   .     S
Cu926  O940    1.971   .     S
Cu926  O937    1.928   .     S
Cu926  O936    1.927   .     S
Cu926  N933    2.030   .     S
H931   N1425   1.029   .     S
N934   N1425   1.311   .     S
N934   H1424   1.029   .     S
C943   H952    1.096   .     S
C943   C944    1.534   .     S
C943   H951    1.103   .     S
C944   H950    1.108   .     S
C944   H949    1.111   .     S
C944   C617    1.525   1_565 S
C945   H946    1.106   .     S
C945   H947    1.110   .     S
C945   H948    1.109   .     S
C953   C954    1.533   .     S
C953   H961    1.104   .     S
C953   H962    1.103   .     S
C954   H960    1.107   .     S
C954   H959    1.111   .     S
C955   H956    1.109   .     S
C955   H957    1.109   .     S
C955   H958    1.109   .     S
C955   C626    1.527   1_565 S
C963   H972    1.107   .     S
C963   H971    1.103   .     S
C964   H969    1.110   .     S
C964   C965    1.528   .     S
C964   H970    1.107   .     S
C964   C635    1.553   1_565 S
C965   H967    1.103   .     S
C965   H968    1.108   .     S
C965   H966    1.109   .     S
C973   H981    1.108   .     S
C973   H982    1.105   .     S
C973   C646    1.552   1_565 S
C974   H979    1.107   .     S
C974   H980    1.108   .     S
C974   C975    1.529   .     S
C975   H976    1.104   .     S
C975   H977    1.107   .     S
C975   H978    1.109   .     S
H983   C579    1.088   1_565 S
C985   O1017   1.290   .     A
C985   C989    1.416   .     S
C985   O1019   1.289   .     A
C986   O1018   1.290   .     A
C986   C990    1.418   .     S
C986   O1020   1.291   .     A
C987   C1004   1.401   .     A
C987   H1011   1.073   .     S
C987   C1087   1.395   1_455 S
C988   C1003   1.404   .     A
C988   H1012   1.065   .     S
C988   C1088   1.395   .     S
C989   C1318   1.329   1_545 S
C989   H1393   1.088   1_545 S
C990   C1153   1.329   .     S
C990   H1230   1.088   .     S
C991   C996    1.446   .     S
C991   O1021   1.298   .     A
C991   O1023   1.294   .     A
C992   O1022   1.304   .     A
C992   C995    1.456   .     S
C992   O1024   1.293   .     A
C993   C1003   1.420   .     A
C993   C995    1.415   .     A
C993   C1025   1.541   .     S
C994   C1004   1.419   .     A
C994   C1035   1.542   .     S
C994   C996    1.410   .     A
C995   C997    1.394   .     A
C996   C998    1.393   .     A
C997   H1009   1.080   .     S
C997   C999    1.399   .     A
C998   H1010   1.081   .     S
C998   C1000   1.397   .     A
C999   C1001   1.424   .     A
C999   C1005   1.425   .     A
C1000  C1006   1.423   .     A
C1000  C1002   1.423   .     A
C1001  C1003   1.423   .     A
C1001  C1084   1.414   .     S
C1002  C1004   1.423   .     A
C1002  C1083   1.414   1_455 S
C1005  C1045   1.537   .     S
C1005  C1069   1.395   .     S
C1006  C1055   1.541   .     S
C1006  C1070   1.395   1_455 S
Cu1007 O1024   1.951   .     S
Cu1007 O1017   1.927   .     S
Cu1007 Cu1008  2.701   .     S
Cu1007 O1021   1.971   .     S
Cu1007 N1016   2.030   .     S
Cu1007 O1020   1.928   .     S
Cu1008 O1023   1.951   .     S
Cu1008 O1022   1.971   .     S
Cu1008 O1019   1.928   .     S
Cu1008 O1018   1.927   .     S
Cu1008 N1015   2.030   .     S
H1013  N31     1.029   1_556 S
N1016  N31     1.311   1_556 S
N1016  H30     1.029   1_556 S
C1025  H1034   1.096   .     S
C1025  C1026   1.534   .     S
C1025  H1033   1.103   .     S
C1026  H1032   1.108   .     S
C1026  H1031   1.111   .     S
C1026  C1191   1.525   .     S
C1027  H1028   1.106   .     S
C1027  H1029   1.110   .     S
C1027  H1030   1.109   .     S
C1027  C1354   1.525   1_545 S
C1035  C1036   1.533   .     S
C1035  H1043   1.104   .     S
C1035  H1044   1.103   .     S
C1036  H1042   1.107   .     S
C1036  H1041   1.111   .     S
C1036  C1365   1.527   1_545 S
C1037  H1038   1.109   .     S
C1037  H1039   1.109   .     S
C1037  H1040   1.109   .     S
C1037  C1200   1.527   .     S
C1045  H1054   1.107   .     S
C1045  H1053   1.103   .     S
C1045  C1374   1.553   1_545 S
C1046  H1051   1.110   .     S
C1046  C1047   1.528   .     S
C1046  H1052   1.107   .     S
C1046  C1209   1.553   .     S
C1047  H1049   1.103   .     S
C1047  H1050   1.108   .     S
C1047  H1048   1.109   .     S
C1055  H1063   1.108   .     S
C1055  H1064   1.105   .     S
C1055  C1220   1.552   .     S
C1056  H1061   1.107   .     S
C1056  H1062   1.108   .     S
C1056  C1057   1.529   .     S
C1056  C1383   1.552   1_545 S
C1057  H1058   1.104   .     S
C1057  H1059   1.107   .     S
C1057  H1060   1.109   .     S
H1065  C1153   1.088   .     S
H1066  C1318   1.088   1_545 S
C1067  O1099   1.290   .     A
C1067  C1071   1.416   .     S
C1067  O1101   1.289   .     A
C1068  O1100   1.290   .     A
C1068  C1072   1.418   .     S
C1068  O1102   1.291   .     A
C1069  C1086   1.401   .     A
C1069  H1093   1.073   .     S
C1070  C1085   1.404   .     A
C1070  H1094   1.065   .     S
C1070  C1006   1.395   1_655 S
C1071  C1400   1.329   1_545 S
C1071  H1475   1.088   1_545 S
C1072  C1235   1.329   .     S
C1072  H1312   1.088   .     S
C1073  C1078   1.446   .     S
C1073  O1103   1.298   .     A
C1073  O1105   1.294   .     A
C1074  O1104   1.304   .     A
C1074  C1077   1.456   .     S
C1074  O1106   1.293   .     A
C1075  C1085   1.420   .     A
C1075  C1077   1.415   .     A
C1075  C1107   1.541   .     S
C1076  C1086   1.419   .     A
C1076  C1117   1.542   .     S
C1076  C1078   1.410   .     A
C1077  C1079   1.394   .     A
C1078  C1080   1.393   .     A
C1079  H1091   1.080   .     S
C1079  C1081   1.399   .     A
C1080  H1092   1.081   .     S
C1080  C1082   1.397   .     A
C1081  C1083   1.424   .     A
C1081  C1087   1.425   .     A
C1082  C1088   1.423   .     A
C1082  C1084   1.423   .     A
C1083  C1085   1.423   .     A
C1083  C1002   1.414   1_655 S
C1084  C1086   1.423   .     A
C1087  C1127   1.537   .     S
C1087  C987    1.395   1_655 S
C1088  C1137   1.541   .     S
Cu1089 O1106   1.951   .     S
Cu1089 O1099   1.927   .     S
Cu1089 Cu1090  2.701   .     S
Cu1089 O1103   1.971   .     S
Cu1089 N1098   2.030   .     S
Cu1089 O1102   1.928   .     S
Cu1090 O1105   1.951   .     S
Cu1090 O1104   1.971   .     S
Cu1090 O1101   1.928   .     S
Cu1090 O1100   1.927   .     S
Cu1090 N1097   2.030   .     S
H1095  N113    1.029   1_556 S
N1098  N113    1.311   1_556 S
N1098  H112    1.029   1_556 S
C1107  H1116   1.096   .     S
C1107  C1108   1.534   .     S
C1107  H1115   1.103   .     S
C1108  H1114   1.108   .     S
C1108  H1113   1.111   .     S
C1108  C1273   1.525   .     S
C1109  H1110   1.106   .     S
C1109  H1111   1.110   .     S
C1109  H1112   1.109   .     S
C1109  C1436   1.525   1_545 S
C1117  C1118   1.533   .     S
C1117  H1125   1.104   .     S
C1117  H1126   1.103   .     S
C1118  H1124   1.107   .     S
C1118  H1123   1.111   .     S
C1118  C1447   1.527   1_545 S
C1119  H1120   1.109   .     S
C1119  H1121   1.109   .     S
C1119  H1122   1.109   .     S
C1119  C1282   1.527   .     S
C1127  H1136   1.107   .     S
C1127  H1135   1.103   .     S
C1127  C1456   1.553   1_545 S
C1128  H1133   1.110   .     S
C1128  C1129   1.528   .     S
C1128  H1134   1.107   .     S
C1128  C1291   1.553   .     S
C1129  H1131   1.103   .     S
C1129  H1132   1.108   .     S
C1129  H1130   1.109   .     S
C1137  H1145   1.108   .     S
C1137  H1146   1.105   .     S
C1137  C1302   1.552   .     S
C1138  H1143   1.107   .     S
C1138  H1144   1.108   .     S
C1138  C1139   1.529   .     S
C1138  C1465   1.552   1_545 S
C1139  H1140   1.104   .     S
C1139  H1141   1.107   .     S
C1139  H1142   1.109   .     S
H1147  C1235   1.088   .     S
H1148  C1400   1.088   1_545 S
C1149  O1181   1.290   .     A
C1149  C1153   1.416   .     S
C1149  O1183   1.289   .     A
C1150  O1182   1.290   .     A
C1150  C1154   1.418   .     S
C1150  O1184   1.291   .     A
C1151  C1168   1.401   .     A
C1151  H1175   1.073   .     S
C1151  C1251   1.395   1_455 S
C1152  C1167   1.404   .     A
C1152  H1176   1.065   .     S
C1152  C1252   1.395   .     S
C1154  C1317   1.329   .     S
C1154  H1394   1.088   .     S
C1155  C1160   1.446   .     S
C1155  O1185   1.298   .     A
C1155  O1187   1.294   .     A
C1156  O1186   1.304   .     A
C1156  C1159   1.456   .     S
C1156  O1188   1.293   .     A
C1157  C1167   1.420   .     A
C1157  C1159   1.415   .     A
C1157  C1189   1.541   .     S
C1158  C1168   1.419   .     A
C1158  C1199   1.542   .     S
C1158  C1160   1.410   .     A
C1159  C1161   1.394   .     A
C1160  C1162   1.393   .     A
C1161  H1173   1.080   .     S
C1161  C1163   1.399   .     A
C1162  H1174   1.081   .     S
C1162  C1164   1.397   .     A
C1163  C1165   1.424   .     A
C1163  C1169   1.425   .     A
C1164  C1170   1.423   .     A
C1164  C1166   1.423   .     A
C1165  C1167   1.423   .     A
C1165  C1248   1.414   .     S
C1166  C1168   1.423   .     A
C1166  C1247   1.414   1_455 S
C1169  C1209   1.537   .     S
C1169  C1233   1.395   .     S
C1170  C1219   1.541   .     S
C1170  C1234   1.395   1_455 S
Cu1171 O1188   1.951   .     S
Cu1171 O1181   1.927   .     S
Cu1171 Cu1172  2.701   .     S
Cu1171 O1185   1.971   .     S
Cu1171 N1180   2.030   .     S
Cu1171 O1184   1.928   .     S
Cu1172 O1187   1.951   .     S
Cu1172 O1186   1.971   .     S
Cu1172 O1183   1.928   .     S
Cu1172 O1182   1.927   .     S
Cu1172 N1179   2.030   .     S
H1177  N195    1.029   1_556 S
N1180  N195    1.311   1_556 S
N1180  H194    1.029   1_556 S
C1189  H1198   1.096   .     S
C1189  C1190   1.534   .     S
C1189  H1197   1.103   .     S
C1190  H1196   1.108   .     S
C1190  H1195   1.111   .     S
C1190  C1355   1.525   .     S
C1191  H1192   1.106   .     S
C1191  H1193   1.110   .     S
C1191  H1194   1.109   .     S
C1199  C1200   1.533   .     S
C1199  H1207   1.104   .     S
C1199  H1208   1.103   .     S
C1200  H1206   1.107   .     S
C1200  H1205   1.111   .     S
C1201  H1202   1.109   .     S
C1201  H1203   1.109   .     S
C1201  H1204   1.109   .     S
C1201  C1364   1.527   .     S
C1209  H1218   1.107   .     S
C1209  H1217   1.103   .     S
C1210  H1215   1.110   .     S
C1210  C1211   1.528   .     S
C1210  H1216   1.107   .     S
C1210  C1373   1.553   .     S
C1211  H1213   1.103   .     S
C1211  H1214   1.108   .     S
C1211  H1212   1.109   .     S
C1219  H1227   1.108   .     S
C1219  H1228   1.105   .     S
C1219  C1384   1.552   .     S
C1220  H1225   1.107   .     S
C1220  H1226   1.108   .     S
C1220  C1221   1.529   .     S
C1221  H1222   1.104   .     S
C1221  H1223   1.107   .     S
C1221  H1224   1.109   .     S
H1229  C1317   1.088   .     S
C1231  O1263   1.290   .     A
C1231  C1235   1.416   .     S
C1231  O1265   1.289   .     A
C1232  O1264   1.290   .     A
C1232  C1236   1.418   .     S
C1232  O1266   1.291   .     A
C1233  C1250   1.401   .     A
C1233  H1257   1.073   .     S
C1234  C1249   1.404   .     A
C1234  H1258   1.065   .     S
C1234  C1170   1.395   1_655 S
C1236  C1399   1.329   .     S
C1236  H1476   1.088   .     S
C1237  C1242   1.446   .     S
C1237  O1267   1.298   .     A
C1237  O1269   1.294   .     A
C1238  O1268   1.304   .     A
C1238  C1241   1.456   .     S
C1238  O1270   1.293   .     A
C1239  C1249   1.420   .     A
C1239  C1241   1.415   .     A
C1239  C1271   1.541   .     S
C1240  C1250   1.419   .     A
C1240  C1281   1.542   .     S
C1240  C1242   1.410   .     A
C1241  C1243   1.394   .     A
C1242  C1244   1.393   .     A
C1243  H1255   1.080   .     S
C1243  C1245   1.399   .     A
C1244  H1256   1.081   .     S
C1244  C1246   1.397   .     A
C1245  C1247   1.424   .     A
C1245  C1251   1.425   .     A
C1246  C1252   1.423   .     A
C1246  C1248   1.423   .     A
C1247  C1249   1.423   .     A
C1247  C1166   1.414   1_655 S
C1248  C1250   1.423   .     A
C1251  C1291   1.537   .     S
C1251  C1151   1.395   1_655 S
C1252  C1301   1.541   .     S
Cu1253 O1270   1.951   .     S
Cu1253 O1263   1.927   .     S
Cu1253 Cu1254  2.701   .     S
Cu1253 O1267   1.971   .     S
Cu1253 N1262   2.030   .     S
Cu1253 O1266   1.928   .     S
Cu1254 O1269   1.951   .     S
Cu1254 O1268   1.971   .     S
Cu1254 O1265   1.928   .     S
Cu1254 O1264   1.927   .     S
Cu1254 N1261   2.030   .     S
H1259  N277    1.029   1_556 S
N1262  N277    1.311   1_556 S
N1262  H276    1.029   1_556 S
C1271  H1280   1.096   .     S
C1271  C1272   1.534   .     S
C1271  H1279   1.103   .     S
C1272  H1278   1.108   .     S
C1272  H1277   1.111   .     S
C1272  C1437   1.525   .     S
C1273  H1274   1.106   .     S
C1273  H1275   1.110   .     S
C1273  H1276   1.109   .     S
C1281  C1282   1.533   .     S
C1281  H1289   1.104   .     S
C1281  H1290   1.103   .     S
C1282  H1288   1.107   .     S
C1282  H1287   1.111   .     S
C1283  H1284   1.109   .     S
C1283  H1285   1.109   .     S
C1283  H1286   1.109   .     S
C1283  C1446   1.527   .     S
C1291  H1300   1.107   .     S
C1291  H1299   1.103   .     S
C1292  H1297   1.110   .     S
C1292  C1293   1.528   .     S
C1292  H1298   1.107   .     S
C1292  C1455   1.553   .     S
C1293  H1295   1.103   .     S
C1293  H1296   1.108   .     S
C1293  H1294   1.109   .     S
C1301  H1309   1.108   .     S
C1301  H1310   1.105   .     S
C1301  C1466   1.552   .     S
C1302  H1307   1.107   .     S
C1302  H1308   1.108   .     S
C1302  C1303   1.529   .     S
C1303  H1304   1.104   .     S
C1303  H1305   1.107   .     S
C1303  H1306   1.109   .     S
H1311  C1399   1.088   .     S
C1313  O1345   1.290   .     A
C1313  C1317   1.416   .     S
C1313  O1347   1.289   .     A
C1314  O1346   1.290   .     A
C1314  C1318   1.418   .     S
C1314  O1348   1.291   .     A
C1315  C1332   1.401   .     A
C1315  H1339   1.073   .     S
C1315  C1415   1.395   1_455 S
C1316  C1331   1.404   .     A
C1316  H1340   1.065   .     S
C1316  C1416   1.395   .     S
C1318  C989    1.329   1_565 S
C1318  H1066   1.088   1_565 S
C1319  C1324   1.446   .     S
C1319  O1349   1.298   .     A
C1319  O1351   1.294   .     A
C1320  O1350   1.304   .     A
C1320  C1323   1.456   .     S
C1320  O1352   1.293   .     A
C1321  C1331   1.420   .     A
C1321  C1323   1.415   .     A
C1321  C1353   1.541   .     S
C1322  C1332   1.419   .     A
C1322  C1363   1.542   .     S
C1322  C1324   1.410   .     A
C1323  C1325   1.394   .     A
C1324  C1326   1.393   .     A
C1325  H1337   1.080   .     S
C1325  C1327   1.399   .     A
C1326  H1338   1.081   .     S
C1326  C1328   1.397   .     A
C1327  C1329   1.424   .     A
C1327  C1333   1.425   .     A
C1328  C1334   1.423   .     A
C1328  C1330   1.423   .     A
C1329  C1331   1.423   .     A
C1329  C1412   1.414   .     S
C1330  C1332   1.423   .     A
C1330  C1411   1.414   1_455 S
C1333  C1373   1.537   .     S
C1333  C1397   1.395   .     S
C1334  C1383   1.541   .     S
C1334  C1398   1.395   1_455 S
Cu1335 O1352   1.951   .     S
Cu1335 O1345   1.927   .     S
Cu1335 Cu1336  2.701   .     S
Cu1335 O1349   1.971   .     S
Cu1335 N1344   2.030   .     S
Cu1335 O1348   1.928   .     S
Cu1336 O1351   1.951   .     S
Cu1336 O1350   1.971   .     S
Cu1336 O1347   1.928   .     S
Cu1336 O1346   1.927   .     S
Cu1336 N1343   2.030   .     S
H1341  N359    1.029   1_556 S
N1344  N359    1.311   1_556 S
N1344  H358    1.029   1_556 S
C1353  H1362   1.096   .     S
C1353  C1354   1.534   .     S
C1353  H1361   1.103   .     S
C1354  H1360   1.108   .     S
C1354  H1359   1.111   .     S
C1354  C1027   1.525   1_565 S
C1355  H1356   1.106   .     S
C1355  H1357   1.110   .     S
C1355  H1358   1.109   .     S
C1363  C1364   1.533   .     S
C1363  H1371   1.104   .     S
C1363  H1372   1.103   .     S
C1364  H1370   1.107   .     S
C1364  H1369   1.111   .     S
C1365  H1366   1.109   .     S
C1365  H1367   1.109   .     S
C1365  H1368   1.109   .     S
C1365  C1036   1.527   1_565 S
C1373  H1382   1.107   .     S
C1373  H1381   1.103   .     S
C1374  H1379   1.110   .     S
C1374  C1375   1.528   .     S
C1374  H1380   1.107   .     S
C1374  C1045   1.553   1_565 S
C1375  H1377   1.103   .     S
C1375  H1378   1.108   .     S
C1375  H1376   1.109   .     S
C1383  H1391   1.108   .     S
C1383  H1392   1.105   .     S
C1383  C1056   1.552   1_565 S
C1384  H1389   1.107   .     S
C1384  H1390   1.108   .     S
C1384  C1385   1.529   .     S
C1385  H1386   1.104   .     S
C1385  H1387   1.107   .     S
C1385  H1388   1.109   .     S
H1393  C989    1.088   1_565 S
C1395  O1427   1.290   .     A
C1395  C1399   1.416   .     S
C1395  O1429   1.289   .     A
C1396  O1428   1.290   .     A
C1396  C1400   1.418   .     S
C1396  O1430   1.291   .     A
C1397  C1414   1.401   .     A
C1397  H1421   1.073   .     S
C1398  C1413   1.404   .     A
C1398  H1422   1.065   .     S
C1398  C1334   1.395   1_655 S
C1400  C1071   1.329   1_565 S
C1400  H1148   1.088   1_565 S
C1401  C1406   1.446   .     S
C1401  O1431   1.298   .     A
C1401  O1433   1.294   .     A
C1402  O1432   1.304   .     A
C1402  C1405   1.456   .     S
C1402  O1434   1.293   .     A
C1403  C1413   1.420   .     A
C1403  C1405   1.415   .     A
C1403  C1435   1.541   .     S
C1404  C1414   1.419   .     A
C1404  C1445   1.542   .     S
C1404  C1406   1.410   .     A
C1405  C1407   1.394   .     A
C1406  C1408   1.393   .     A
C1407  H1419   1.080   .     S
C1407  C1409   1.399   .     A
C1408  H1420   1.081   .     S
C1408  C1410   1.397   .     A
C1409  C1411   1.424   .     A
C1409  C1415   1.425   .     A
C1410  C1416   1.423   .     A
C1410  C1412   1.423   .     A
C1411  C1413   1.423   .     A
C1411  C1330   1.414   1_655 S
C1412  C1414   1.423   .     A
C1415  C1455   1.537   .     S
C1415  C1315   1.395   1_655 S
C1416  C1465   1.541   .     S
Cu1417 O1434   1.951   .     S
Cu1417 O1427   1.927   .     S
Cu1417 Cu1418  2.701   .     S
Cu1417 O1431   1.971   .     S
Cu1417 N1426   2.030   .     S
Cu1417 O1430   1.928   .     S
Cu1418 O1433   1.951   .     S
Cu1418 O1432   1.971   .     S
Cu1418 O1429   1.928   .     S
Cu1418 O1428   1.927   .     S
Cu1418 N1425   2.030   .     S
H1423  N441    1.029   1_556 S
N1426  N441    1.311   1_556 S
N1426  H440    1.029   1_556 S
C1435  H1444   1.096   .     S
C1435  C1436   1.534   .     S
C1435  H1443   1.103   .     S
C1436  H1442   1.108   .     S
C1436  H1441   1.111   .     S
C1436  C1109   1.525   1_565 S
C1437  H1438   1.106   .     S
C1437  H1439   1.110   .     S
C1437  H1440   1.109   .     S
C1445  C1446   1.533   .     S
C1445  H1453   1.104   .     S
C1445  H1454   1.103   .     S
C1446  H1452   1.107   .     S
C1446  H1451   1.111   .     S
C1447  H1448   1.109   .     S
C1447  H1449   1.109   .     S
C1447  H1450   1.109   .     S
C1447  C1118   1.527   1_565 S
C1455  H1464   1.107   .     S
C1455  H1463   1.103   .     S
C1456  H1461   1.110   .     S
C1456  C1457   1.528   .     S
C1456  H1462   1.107   .     S
C1456  C1127   1.553   1_565 S
C1457  H1459   1.103   .     S
C1457  H1460   1.108   .     S
C1457  H1458   1.109   .     S
C1465  H1473   1.108   .     S
C1465  H1474   1.105   .     S
C1465  C1138   1.552   1_565 S
C1466  H1471   1.107   .     S
C1466  H1472   1.108   .     S
C1466  C1467   1.529   .     S
C1467  H1468   1.104   .     S
C1467  H1469   1.107   .     S
C1467  H1470   1.109   .     S
H1475  C1071   1.088   1_565 S
