data_str_m2_o1_o17_pcu_sym.162
_audit_creation_date              2020-01-03
_audit_creation_method            'Materials Studio'
_symmetry_space_group_name_H-M    'P1'
_symmetry_Int_Tables_number       1
_symmetry_cell_setting            triclinic
loop_
_symmetry_equiv_pos_as_xyz
  x,y,z
_cell_length_a                    32.6850
_cell_length_b                    28.8401
_cell_length_c                    30.0963
_cell_angle_alpha                 90.2151
_cell_angle_beta                  92.1322
_cell_angle_gamma                 90.2768
loop_
_atom_site_label
_atom_site_type_symbol
_atom_site_fract_x
_atom_site_fract_y
_atom_site_fract_z
_atom_site_U_iso_or_equiv
_atom_site_adp_type
_atom_site_occupancy
C1     C     0.08747   0.16660   0.25254   0.00000  Uiso   1.00
C2     C     0.24570   0.16671   0.24641   0.00000  Uiso   1.00
C3     C     0.09888   0.13102   0.02137   0.00000  Uiso   1.00
C4     C     0.24523   0.16083   0.48026   0.00000  Uiso   1.00
C5     C     0.02053   0.12419   0.25332   0.00000  Uiso   1.00
C6     C     0.31245   0.20893   0.24384   0.00000  Uiso   1.00
C7     C     0.31200   0.12435   0.24307   0.00000  Uiso   1.00
C8     C     0.02093   0.20885   0.25430   0.00000  Uiso   1.00
C9     C     0.29043   0.16669   0.24263   0.00000  Uiso   1.00
C10    C     0.04256   0.16650   0.25502   0.00000  Uiso   1.00
C11    C     0.14165   0.02445   0.22080   0.00000  Uiso   1.00
C12    C     0.19181   0.30900   0.27899   0.00000  Uiso   1.00
C13    C     0.19176   0.02498   0.27913   0.00000  Uiso   1.00
C14    C     0.14159   0.30844   0.22084   0.00000  Uiso   1.00
C15    C     0.16689   0.16654   0.16466   0.00000  Uiso   1.00
C16    C     0.16677   0.16656   0.33548   0.00000  Uiso   1.00
C17    C     0.20606   0.16724   0.40767   0.00000  Uiso   1.00
C18    C     0.13147   0.16273   0.09090   0.00000  Uiso   1.00
C19    C     0.16799   0.16492   0.38413   0.00000  Uiso   1.00
C20    C     0.16825   0.16564   0.11631   0.00000  Uiso   1.00
C21    C     0.13153   0.15698   0.40641   0.00000  Uiso   1.00
C22    C     0.20628   0.16234   0.09613   0.00000  Uiso   1.00
C23    C     0.13330   0.14762   0.45243   0.00000  Uiso   1.00
C24    C     0.20761   0.16336   0.04898   0.00000  Uiso   1.00
C25    C     0.17063   0.15487   0.47692   0.00000  Uiso   1.00
C26    C     0.17057   0.15582   0.02380   0.00000  Uiso   1.00
C27    C     0.20777   0.16088   0.45465   0.00000  Uiso   1.00
C28    C     0.13300   0.15053   0.04544   0.00000  Uiso   1.00
C29    C     0.09923   0.12911   0.47460   0.00000  Uiso   1.00
C30    C     0.24475   0.16932   0.02642   0.00000  Uiso   1.00
Cu31   Cu    0.16667   0.21355   0.25000   0.00000  Uiso   1.00
Cu32   Cu    0.16667   0.11978   0.25000   0.00000  Uiso   1.00
N33    N     0.16667   0.28402   0.25000   0.00000  Uiso   1.00
N34    N     0.16667   0.04931   0.25000   0.00000  Uiso   1.00
O35    O     0.10655   0.20625   0.25000   0.00000  Uiso   1.00
O36    O     0.22679   0.12709   0.25000   0.00000  Uiso   1.00
O37    O     0.22679   0.20625   0.25000   0.00000  Uiso   1.00
O38    O     0.10655   0.12709   0.25000   0.00000  Uiso   1.00
O39    O     0.16666   0.20627   0.18513   0.00000  Uiso   1.00
O40    O     0.16668   0.12707   0.31487   0.00000  Uiso   1.00
O41    O     0.16668   0.20627   0.31487   0.00000  Uiso   1.00
O42    O     0.16666   0.12707   0.18513   0.00000  Uiso   1.00
C43    C     0.24237   0.18210   0.38274   0.00000  Uiso   1.00
H44    H     0.24805   0.16711   0.35044   0.00000  Uiso   1.00
O45    O     0.26498   0.21296   0.39710   0.00000  Uiso   1.00
C46    C     0.09229   0.17513   0.11177   0.00000  Uiso   1.00
H47    H     0.08803   0.16891   0.14683   0.00000  Uiso   1.00
O48    O     0.06494   0.19432   0.09022   0.00000  Uiso   1.00
C49    C     0.09118   0.16513   0.38333   0.00000  Uiso   1.00
H50    H     0.06762   0.18391   0.40030   0.00000  Uiso   1.00
O51    O     0.08312   0.14886   0.34665   0.00000  Uiso   1.00
C52    C     0.24332   0.15367   0.12506   0.00000  Uiso   1.00
H53    H     0.24891   0.17406   0.15497   0.00000  Uiso   1.00
O54    O     0.26690   0.12248   0.11638   0.00000  Uiso   1.00
C55    C     0.06729   0.10105   0.44995   0.00000  Uiso   1.00
H56    H     0.03541   0.10350   0.45815   0.00000  Uiso   1.00
O57    O     0.07677   0.07386   0.42091   0.00000  Uiso   1.00
C58    C     0.28114   0.19101   0.04959   0.00000  Uiso   1.00
H59    H     0.27674   0.21960   0.07247   0.00000  Uiso   1.00
O60    O     0.31569   0.17637   0.04514   0.00000  Uiso   1.00
C61    C     0.06618   0.10562   0.04470   0.00000  Uiso   1.00
H62    H     0.03464   0.10671   0.03241   0.00000  Uiso   1.00
O63    O     0.07459   0.08187   0.07721   0.00000  Uiso   1.00
C64    C     0.28411   0.14604   0.46053   0.00000  Uiso   1.00
H65    H     0.31217   0.16564   0.46626   0.00000  Uiso   1.00
O66    O     0.28486   0.11128   0.43728   0.00000  Uiso   1.00
Br67   Br    0.04402   0.06594   0.27325   0.00000  Uiso   1.00
Br68   Br    0.28872   0.26680   0.22328   0.00000  Uiso   1.00
Br69   Br    0.28748   0.06655   0.22207   0.00000  Uiso   1.00
Br70   Br    0.04491   0.26663   0.27593   0.00000  Uiso   1.00
Br71   Br    0.10566   0.05556   0.17858   0.00000  Uiso   1.00
Br72   Br    0.22850   0.27829   0.32035   0.00000  Uiso   1.00
Br73   Br    0.22804   0.05673   0.32134   0.00000  Uiso   1.00
Br74   Br    0.10528   0.27691   0.17867   0.00000  Uiso   1.00
C75    C     0.42080   0.16660   0.25254   0.00000  Uiso   1.00
C76    C     0.57903   0.16671   0.24641   0.00000  Uiso   1.00
C77    C     0.43222   0.13102   0.02137   0.00000  Uiso   1.00
C78    C     0.57856   0.16083   0.48026   0.00000  Uiso   1.00
C79    C     0.35386   0.12419   0.25332   0.00000  Uiso   1.00
C80    C     0.64578   0.20893   0.24384   0.00000  Uiso   1.00
C81    C     0.64533   0.12435   0.24307   0.00000  Uiso   1.00
C82    C     0.35426   0.20885   0.25430   0.00000  Uiso   1.00
C83    C     0.62376   0.16669   0.24263   0.00000  Uiso   1.00
C84    C     0.37589   0.16650   0.25502   0.00000  Uiso   1.00
C85    C     0.47499   0.02445   0.22080   0.00000  Uiso   1.00
C86    C     0.52515   0.30900   0.27899   0.00000  Uiso   1.00
C87    C     0.52509   0.02498   0.27913   0.00000  Uiso   1.00
C88    C     0.47492   0.30844   0.22084   0.00000  Uiso   1.00
C89    C     0.50022   0.16654   0.16466   0.00000  Uiso   1.00
C90    C     0.50011   0.16656   0.33548   0.00000  Uiso   1.00
C91    C     0.53940   0.16724   0.40767   0.00000  Uiso   1.00
C92    C     0.46481   0.16273   0.09090   0.00000  Uiso   1.00
C93    C     0.50132   0.16492   0.38413   0.00000  Uiso   1.00
C94    C     0.50159   0.16564   0.11631   0.00000  Uiso   1.00
C95    C     0.46486   0.15698   0.40641   0.00000  Uiso   1.00
C96    C     0.53962   0.16234   0.09613   0.00000  Uiso   1.00
C97    C     0.46664   0.14762   0.45243   0.00000  Uiso   1.00
C98    C     0.54095   0.16336   0.04898   0.00000  Uiso   1.00
C99    C     0.50396   0.15487   0.47692   0.00000  Uiso   1.00
C100   C     0.50391   0.15582   0.02380   0.00000  Uiso   1.00
C101   C     0.54110   0.16088   0.45465   0.00000  Uiso   1.00
C102   C     0.46634   0.15053   0.04544   0.00000  Uiso   1.00
C103   C     0.43256   0.12911   0.47460   0.00000  Uiso   1.00
C104   C     0.57808   0.16932   0.02642   0.00000  Uiso   1.00
Cu105  Cu    0.50000   0.21355   0.25000   0.00000  Uiso   1.00
Cu106  Cu    0.50000   0.11978   0.25000   0.00000  Uiso   1.00
N107   N     0.50000   0.28402   0.25000   0.00000  Uiso   1.00
N108   N     0.50000   0.04931   0.25000   0.00000  Uiso   1.00
O109   O     0.43988   0.20625   0.25000   0.00000  Uiso   1.00
O110   O     0.56012   0.12709   0.25000   0.00000  Uiso   1.00
O111   O     0.56012   0.20625   0.25000   0.00000  Uiso   1.00
O112   O     0.43988   0.12709   0.25000   0.00000  Uiso   1.00
O113   O     0.49999   0.20627   0.18513   0.00000  Uiso   1.00
O114   O     0.50001   0.12707   0.31487   0.00000  Uiso   1.00
O115   O     0.50001   0.20627   0.31487   0.00000  Uiso   1.00
O116   O     0.49999   0.12707   0.18513   0.00000  Uiso   1.00
C117   C     0.57571   0.18210   0.38274   0.00000  Uiso   1.00
H118   H     0.58138   0.16711   0.35044   0.00000  Uiso   1.00
O119   O     0.59831   0.21296   0.39710   0.00000  Uiso   1.00
C120   C     0.42562   0.17513   0.11177   0.00000  Uiso   1.00
H121   H     0.42136   0.16891   0.14683   0.00000  Uiso   1.00
O122   O     0.39827   0.19432   0.09022   0.00000  Uiso   1.00
C123   C     0.42452   0.16513   0.38333   0.00000  Uiso   1.00
H124   H     0.40095   0.18391   0.40030   0.00000  Uiso   1.00
O125   O     0.41645   0.14886   0.34665   0.00000  Uiso   1.00
C126   C     0.57665   0.15367   0.12506   0.00000  Uiso   1.00
H127   H     0.58224   0.17406   0.15497   0.00000  Uiso   1.00
O128   O     0.60024   0.12248   0.11638   0.00000  Uiso   1.00
C129   C     0.40063   0.10105   0.44995   0.00000  Uiso   1.00
H130   H     0.36875   0.10350   0.45815   0.00000  Uiso   1.00
O131   O     0.41010   0.07386   0.42091   0.00000  Uiso   1.00
C132   C     0.61447   0.19101   0.04959   0.00000  Uiso   1.00
H133   H     0.61007   0.21960   0.07247   0.00000  Uiso   1.00
O134   O     0.64902   0.17637   0.04514   0.00000  Uiso   1.00
C135   C     0.39951   0.10562   0.04470   0.00000  Uiso   1.00
H136   H     0.36797   0.10671   0.03241   0.00000  Uiso   1.00
O137   O     0.40793   0.08187   0.07721   0.00000  Uiso   1.00
C138   C     0.61745   0.14604   0.46053   0.00000  Uiso   1.00
H139   H     0.64551   0.16564   0.46626   0.00000  Uiso   1.00
O140   O     0.61819   0.11128   0.43728   0.00000  Uiso   1.00
Br141  Br    0.37736   0.06594   0.27325   0.00000  Uiso   1.00
Br142  Br    0.62206   0.26680   0.22328   0.00000  Uiso   1.00
Br143  Br    0.62082   0.06655   0.22207   0.00000  Uiso   1.00
Br144  Br    0.37824   0.26663   0.27593   0.00000  Uiso   1.00
Br145  Br    0.43899   0.05556   0.17858   0.00000  Uiso   1.00
Br146  Br    0.56183   0.27829   0.32035   0.00000  Uiso   1.00
Br147  Br    0.56137   0.05673   0.32134   0.00000  Uiso   1.00
Br148  Br    0.43861   0.27691   0.17867   0.00000  Uiso   1.00
C149   C     0.75413   0.16660   0.25254   0.00000  Uiso   1.00
C150   C     0.91236   0.16671   0.24641   0.00000  Uiso   1.00
C151   C     0.76555   0.13102   0.02137   0.00000  Uiso   1.00
C152   C     0.91189   0.16083   0.48026   0.00000  Uiso   1.00
C153   C     0.68719   0.12419   0.25332   0.00000  Uiso   1.00
C154   C     0.97911   0.20893   0.24384   0.00000  Uiso   1.00
C155   C     0.97866   0.12435   0.24307   0.00000  Uiso   1.00
C156   C     0.68759   0.20885   0.25430   0.00000  Uiso   1.00
C157   C     0.95710   0.16669   0.24263   0.00000  Uiso   1.00
C158   C     0.70923   0.16650   0.25502   0.00000  Uiso   1.00
C159   C     0.80832   0.02445   0.22080   0.00000  Uiso   1.00
C160   C     0.85848   0.30900   0.27899   0.00000  Uiso   1.00
C161   C     0.85842   0.02498   0.27913   0.00000  Uiso   1.00
C162   C     0.80825   0.30844   0.22084   0.00000  Uiso   1.00
C163   C     0.83355   0.16654   0.16466   0.00000  Uiso   1.00
C164   C     0.83344   0.16656   0.33548   0.00000  Uiso   1.00
C165   C     0.87273   0.16724   0.40767   0.00000  Uiso   1.00
C166   C     0.79814   0.16273   0.09090   0.00000  Uiso   1.00
C167   C     0.83466   0.16492   0.38413   0.00000  Uiso   1.00
C168   C     0.83492   0.16564   0.11631   0.00000  Uiso   1.00
C169   C     0.79819   0.15698   0.40641   0.00000  Uiso   1.00
C170   C     0.87295   0.16234   0.09613   0.00000  Uiso   1.00
C171   C     0.79997   0.14762   0.45243   0.00000  Uiso   1.00
C172   C     0.87428   0.16336   0.04898   0.00000  Uiso   1.00
C173   C     0.83729   0.15487   0.47692   0.00000  Uiso   1.00
C174   C     0.83724   0.15582   0.02380   0.00000  Uiso   1.00
C175   C     0.87444   0.16088   0.45465   0.00000  Uiso   1.00
C176   C     0.79967   0.15053   0.04544   0.00000  Uiso   1.00
C177   C     0.76590   0.12911   0.47460   0.00000  Uiso   1.00
C178   C     0.91141   0.16932   0.02642   0.00000  Uiso   1.00
Cu179  Cu    0.83333   0.21355   0.25000   0.00000  Uiso   1.00
Cu180  Cu    0.83333   0.11978   0.25000   0.00000  Uiso   1.00
N181   N     0.83333   0.28402   0.25000   0.00000  Uiso   1.00
N182   N     0.83333   0.04931   0.25000   0.00000  Uiso   1.00
O183   O     0.77321   0.20625   0.25000   0.00000  Uiso   1.00
O184   O     0.89345   0.12709   0.25000   0.00000  Uiso   1.00
O185   O     0.89345   0.20625   0.25000   0.00000  Uiso   1.00
O186   O     0.77321   0.12709   0.25000   0.00000  Uiso   1.00
O187   O     0.83332   0.20627   0.18513   0.00000  Uiso   1.00
O188   O     0.83334   0.12707   0.31487   0.00000  Uiso   1.00
O189   O     0.83334   0.20627   0.31487   0.00000  Uiso   1.00
O190   O     0.83332   0.12707   0.18513   0.00000  Uiso   1.00
C191   C     0.90904   0.18210   0.38274   0.00000  Uiso   1.00
H192   H     0.91472   0.16711   0.35044   0.00000  Uiso   1.00
O193   O     0.93165   0.21296   0.39710   0.00000  Uiso   1.00
C194   C     0.75895   0.17513   0.11177   0.00000  Uiso   1.00
H195   H     0.75470   0.16891   0.14683   0.00000  Uiso   1.00
O196   O     0.73160   0.19432   0.09022   0.00000  Uiso   1.00
C197   C     0.75785   0.16513   0.38333   0.00000  Uiso   1.00
H198   H     0.73428   0.18391   0.40030   0.00000  Uiso   1.00
O199   O     0.74978   0.14886   0.34665   0.00000  Uiso   1.00
C200   C     0.90998   0.15367   0.12506   0.00000  Uiso   1.00
H201   H     0.91558   0.17406   0.15497   0.00000  Uiso   1.00
O202   O     0.93357   0.12248   0.11638   0.00000  Uiso   1.00
C203   C     0.73396   0.10105   0.44995   0.00000  Uiso   1.00
H204   H     0.70208   0.10350   0.45815   0.00000  Uiso   1.00
O205   O     0.74343   0.07386   0.42091   0.00000  Uiso   1.00
C206   C     0.94781   0.19101   0.04959   0.00000  Uiso   1.00
H207   H     0.94341   0.21960   0.07247   0.00000  Uiso   1.00
O208   O     0.98235   0.17637   0.04514   0.00000  Uiso   1.00
C209   C     0.73285   0.10562   0.04470   0.00000  Uiso   1.00
H210   H     0.70130   0.10671   0.03241   0.00000  Uiso   1.00
O211   O     0.74126   0.08187   0.07721   0.00000  Uiso   1.00
C212   C     0.95078   0.14604   0.46053   0.00000  Uiso   1.00
H213   H     0.97884   0.16564   0.46626   0.00000  Uiso   1.00
O214   O     0.95152   0.11128   0.43728   0.00000  Uiso   1.00
Br215  Br    0.71069   0.06594   0.27325   0.00000  Uiso   1.00
Br216  Br    0.95539   0.26680   0.22328   0.00000  Uiso   1.00
Br217  Br    0.95415   0.06655   0.22207   0.00000  Uiso   1.00
Br218  Br    0.71158   0.26663   0.27593   0.00000  Uiso   1.00
Br219  Br    0.77233   0.05556   0.17858   0.00000  Uiso   1.00
Br220  Br    0.89517   0.27829   0.32035   0.00000  Uiso   1.00
Br221  Br    0.89470   0.05673   0.32134   0.00000  Uiso   1.00
Br222  Br    0.77195   0.27691   0.17867   0.00000  Uiso   1.00
C223   C     0.08747   0.49994   0.25254   0.00000  Uiso   1.00
C224   C     0.24570   0.50004   0.24641   0.00000  Uiso   1.00
C225   C     0.09888   0.46435   0.02137   0.00000  Uiso   1.00
C226   C     0.24523   0.49416   0.48026   0.00000  Uiso   1.00
C227   C     0.02053   0.45752   0.25332   0.00000  Uiso   1.00
C228   C     0.31245   0.54226   0.24384   0.00000  Uiso   1.00
C229   C     0.31200   0.45768   0.24307   0.00000  Uiso   1.00
C230   C     0.02093   0.54218   0.25430   0.00000  Uiso   1.00
C231   C     0.29043   0.50003   0.24263   0.00000  Uiso   1.00
C232   C     0.04256   0.49984   0.25502   0.00000  Uiso   1.00
C233   C     0.14165   0.35778   0.22080   0.00000  Uiso   1.00
C234   C     0.19181   0.64234   0.27899   0.00000  Uiso   1.00
C235   C     0.19176   0.35831   0.27913   0.00000  Uiso   1.00
C236   C     0.14159   0.64178   0.22084   0.00000  Uiso   1.00
C237   C     0.16689   0.49988   0.16466   0.00000  Uiso   1.00
C238   C     0.16677   0.49989   0.33548   0.00000  Uiso   1.00
C239   C     0.20606   0.50057   0.40767   0.00000  Uiso   1.00
C240   C     0.13147   0.49606   0.09090   0.00000  Uiso   1.00
C241   C     0.16799   0.49825   0.38413   0.00000  Uiso   1.00
C242   C     0.16825   0.49897   0.11631   0.00000  Uiso   1.00
C243   C     0.13153   0.49031   0.40641   0.00000  Uiso   1.00
C244   C     0.20628   0.49568   0.09613   0.00000  Uiso   1.00
C245   C     0.13330   0.48095   0.45243   0.00000  Uiso   1.00
C246   C     0.20761   0.49670   0.04898   0.00000  Uiso   1.00
C247   C     0.17063   0.48821   0.47692   0.00000  Uiso   1.00
C248   C     0.17057   0.48915   0.02380   0.00000  Uiso   1.00
C249   C     0.20777   0.49421   0.45465   0.00000  Uiso   1.00
C250   C     0.13300   0.48387   0.04544   0.00000  Uiso   1.00
C251   C     0.09923   0.46244   0.47460   0.00000  Uiso   1.00
C252   C     0.24475   0.50265   0.02642   0.00000  Uiso   1.00
Cu253  Cu    0.16667   0.54689   0.25000   0.00000  Uiso   1.00
Cu254  Cu    0.16667   0.45311   0.25000   0.00000  Uiso   1.00
N255   N     0.16667   0.61736   0.25000   0.00000  Uiso   1.00
N256   N     0.16667   0.38264   0.25000   0.00000  Uiso   1.00
O257   O     0.10655   0.53958   0.25000   0.00000  Uiso   1.00
O258   O     0.22679   0.46042   0.25000   0.00000  Uiso   1.00
O259   O     0.22679   0.53958   0.25000   0.00000  Uiso   1.00
O260   O     0.10655   0.46042   0.25000   0.00000  Uiso   1.00
O261   O     0.16666   0.53960   0.18513   0.00000  Uiso   1.00
O262   O     0.16668   0.46040   0.31487   0.00000  Uiso   1.00
O263   O     0.16668   0.53960   0.31487   0.00000  Uiso   1.00
O264   O     0.16666   0.46040   0.18513   0.00000  Uiso   1.00
C265   C     0.24237   0.51543   0.38274   0.00000  Uiso   1.00
H266   H     0.24805   0.50044   0.35044   0.00000  Uiso   1.00
O267   O     0.26498   0.54629   0.39710   0.00000  Uiso   1.00
C268   C     0.09229   0.50847   0.11177   0.00000  Uiso   1.00
H269   H     0.08803   0.50224   0.14683   0.00000  Uiso   1.00
O270   O     0.06494   0.52766   0.09022   0.00000  Uiso   1.00
C271   C     0.09118   0.49846   0.38333   0.00000  Uiso   1.00
H272   H     0.06762   0.51724   0.40030   0.00000  Uiso   1.00
O273   O     0.08312   0.48219   0.34665   0.00000  Uiso   1.00
C274   C     0.24332   0.48700   0.12506   0.00000  Uiso   1.00
H275   H     0.24891   0.50740   0.15497   0.00000  Uiso   1.00
O276   O     0.26690   0.45582   0.11638   0.00000  Uiso   1.00
C277   C     0.06729   0.43439   0.44995   0.00000  Uiso   1.00
H278   H     0.03541   0.43683   0.45815   0.00000  Uiso   1.00
O279   O     0.07677   0.40719   0.42091   0.00000  Uiso   1.00
C280   C     0.28114   0.52435   0.04959   0.00000  Uiso   1.00
H281   H     0.27674   0.55293   0.07247   0.00000  Uiso   1.00
O282   O     0.31569   0.50970   0.04514   0.00000  Uiso   1.00
C283   C     0.06618   0.43896   0.04470   0.00000  Uiso   1.00
H284   H     0.03464   0.44004   0.03241   0.00000  Uiso   1.00
O285   O     0.07459   0.41520   0.07721   0.00000  Uiso   1.00
C286   C     0.28411   0.47937   0.46053   0.00000  Uiso   1.00
H287   H     0.31217   0.49897   0.46626   0.00000  Uiso   1.00
O288   O     0.28486   0.44461   0.43728   0.00000  Uiso   1.00
Br289  Br    0.04402   0.39927   0.27325   0.00000  Uiso   1.00
Br290  Br    0.28872   0.60014   0.22328   0.00000  Uiso   1.00
Br291  Br    0.28748   0.39989   0.22207   0.00000  Uiso   1.00
Br292  Br    0.04491   0.59997   0.27593   0.00000  Uiso   1.00
Br293  Br    0.10566   0.38889   0.17858   0.00000  Uiso   1.00
Br294  Br    0.22850   0.61162   0.32035   0.00000  Uiso   1.00
Br295  Br    0.22804   0.39007   0.32134   0.00000  Uiso   1.00
Br296  Br    0.10528   0.61024   0.17867   0.00000  Uiso   1.00
C297   C     0.42080   0.49994   0.25254   0.00000  Uiso   1.00
C298   C     0.57903   0.50004   0.24641   0.00000  Uiso   1.00
C299   C     0.43222   0.46435   0.02137   0.00000  Uiso   1.00
C300   C     0.57856   0.49416   0.48026   0.00000  Uiso   1.00
C301   C     0.35386   0.45752   0.25332   0.00000  Uiso   1.00
C302   C     0.64578   0.54226   0.24384   0.00000  Uiso   1.00
C303   C     0.64533   0.45768   0.24307   0.00000  Uiso   1.00
C304   C     0.35426   0.54218   0.25430   0.00000  Uiso   1.00
C305   C     0.62376   0.50003   0.24263   0.00000  Uiso   1.00
C306   C     0.37589   0.49984   0.25502   0.00000  Uiso   1.00
C307   C     0.47499   0.35778   0.22080   0.00000  Uiso   1.00
C308   C     0.52515   0.64234   0.27899   0.00000  Uiso   1.00
C309   C     0.52509   0.35831   0.27913   0.00000  Uiso   1.00
C310   C     0.47492   0.64178   0.22084   0.00000  Uiso   1.00
C311   C     0.50022   0.49988   0.16466   0.00000  Uiso   1.00
C312   C     0.50011   0.49989   0.33548   0.00000  Uiso   1.00
C313   C     0.53940   0.50057   0.40767   0.00000  Uiso   1.00
C314   C     0.46481   0.49606   0.09090   0.00000  Uiso   1.00
C315   C     0.50132   0.49825   0.38413   0.00000  Uiso   1.00
C316   C     0.50159   0.49897   0.11631   0.00000  Uiso   1.00
C317   C     0.46486   0.49031   0.40641   0.00000  Uiso   1.00
C318   C     0.53962   0.49568   0.09613   0.00000  Uiso   1.00
C319   C     0.46664   0.48095   0.45243   0.00000  Uiso   1.00
C320   C     0.54095   0.49670   0.04898   0.00000  Uiso   1.00
C321   C     0.50396   0.48821   0.47692   0.00000  Uiso   1.00
C322   C     0.50391   0.48915   0.02380   0.00000  Uiso   1.00
C323   C     0.54110   0.49421   0.45465   0.00000  Uiso   1.00
C324   C     0.46634   0.48387   0.04544   0.00000  Uiso   1.00
C325   C     0.43256   0.46244   0.47460   0.00000  Uiso   1.00
C326   C     0.57808   0.50265   0.02642   0.00000  Uiso   1.00
Cu327  Cu    0.50000   0.54689   0.25000   0.00000  Uiso   1.00
Cu328  Cu    0.50000   0.45311   0.25000   0.00000  Uiso   1.00
N329   N     0.50000   0.61736   0.25000   0.00000  Uiso   1.00
N330   N     0.50000   0.38264   0.25000   0.00000  Uiso   1.00
O331   O     0.43988   0.53958   0.25000   0.00000  Uiso   1.00
O332   O     0.56012   0.46042   0.25000   0.00000  Uiso   1.00
O333   O     0.56012   0.53958   0.25000   0.00000  Uiso   1.00
O334   O     0.43988   0.46042   0.25000   0.00000  Uiso   1.00
O335   O     0.49999   0.53960   0.18513   0.00000  Uiso   1.00
O336   O     0.50001   0.46040   0.31487   0.00000  Uiso   1.00
O337   O     0.50001   0.53960   0.31487   0.00000  Uiso   1.00
O338   O     0.49999   0.46040   0.18513   0.00000  Uiso   1.00
C339   C     0.57571   0.51543   0.38274   0.00000  Uiso   1.00
H340   H     0.58138   0.50044   0.35044   0.00000  Uiso   1.00
O341   O     0.59831   0.54629   0.39710   0.00000  Uiso   1.00
C342   C     0.42562   0.50847   0.11177   0.00000  Uiso   1.00
H343   H     0.42136   0.50224   0.14683   0.00000  Uiso   1.00
O344   O     0.39827   0.52766   0.09022   0.00000  Uiso   1.00
C345   C     0.42452   0.49846   0.38333   0.00000  Uiso   1.00
H346   H     0.40095   0.51724   0.40030   0.00000  Uiso   1.00
O347   O     0.41645   0.48219   0.34665   0.00000  Uiso   1.00
C348   C     0.57665   0.48700   0.12506   0.00000  Uiso   1.00
H349   H     0.58224   0.50740   0.15497   0.00000  Uiso   1.00
O350   O     0.60024   0.45582   0.11638   0.00000  Uiso   1.00
C351   C     0.40063   0.43439   0.44995   0.00000  Uiso   1.00
H352   H     0.36875   0.43683   0.45815   0.00000  Uiso   1.00
O353   O     0.41010   0.40719   0.42091   0.00000  Uiso   1.00
C354   C     0.61447   0.52435   0.04959   0.00000  Uiso   1.00
H355   H     0.61007   0.55293   0.07247   0.00000  Uiso   1.00
O356   O     0.64902   0.50970   0.04514   0.00000  Uiso   1.00
C357   C     0.39951   0.43896   0.04470   0.00000  Uiso   1.00
H358   H     0.36797   0.44004   0.03241   0.00000  Uiso   1.00
O359   O     0.40793   0.41520   0.07721   0.00000  Uiso   1.00
C360   C     0.61745   0.47937   0.46053   0.00000  Uiso   1.00
H361   H     0.64551   0.49897   0.46626   0.00000  Uiso   1.00
O362   O     0.61819   0.44461   0.43728   0.00000  Uiso   1.00
Br363  Br    0.37736   0.39927   0.27325   0.00000  Uiso   1.00
Br364  Br    0.62206   0.60014   0.22328   0.00000  Uiso   1.00
Br365  Br    0.62082   0.39989   0.22207   0.00000  Uiso   1.00
Br366  Br    0.37824   0.59997   0.27593   0.00000  Uiso   1.00
Br367  Br    0.43899   0.38889   0.17858   0.00000  Uiso   1.00
Br368  Br    0.56183   0.61162   0.32035   0.00000  Uiso   1.00
Br369  Br    0.56137   0.39007   0.32134   0.00000  Uiso   1.00
Br370  Br    0.43861   0.61024   0.17867   0.00000  Uiso   1.00
C371   C     0.75413   0.49994   0.25254   0.00000  Uiso   1.00
C372   C     0.91236   0.50004   0.24641   0.00000  Uiso   1.00
C373   C     0.76555   0.46435   0.02137   0.00000  Uiso   1.00
C374   C     0.91189   0.49416   0.48026   0.00000  Uiso   1.00
C375   C     0.68719   0.45752   0.25332   0.00000  Uiso   1.00
C376   C     0.97911   0.54226   0.24384   0.00000  Uiso   1.00
C377   C     0.97866   0.45768   0.24307   0.00000  Uiso   1.00
C378   C     0.68759   0.54218   0.25430   0.00000  Uiso   1.00
C379   C     0.95710   0.50003   0.24263   0.00000  Uiso   1.00
C380   C     0.70923   0.49984   0.25502   0.00000  Uiso   1.00
C381   C     0.80832   0.35778   0.22080   0.00000  Uiso   1.00
C382   C     0.85848   0.64234   0.27899   0.00000  Uiso   1.00
C383   C     0.85842   0.35831   0.27913   0.00000  Uiso   1.00
C384   C     0.80825   0.64178   0.22084   0.00000  Uiso   1.00
C385   C     0.83355   0.49988   0.16466   0.00000  Uiso   1.00
C386   C     0.83344   0.49989   0.33548   0.00000  Uiso   1.00
C387   C     0.87273   0.50057   0.40767   0.00000  Uiso   1.00
C388   C     0.79814   0.49606   0.09090   0.00000  Uiso   1.00
C389   C     0.83466   0.49825   0.38413   0.00000  Uiso   1.00
C390   C     0.83492   0.49897   0.11631   0.00000  Uiso   1.00
C391   C     0.79819   0.49031   0.40641   0.00000  Uiso   1.00
C392   C     0.87295   0.49568   0.09613   0.00000  Uiso   1.00
C393   C     0.79997   0.48095   0.45243   0.00000  Uiso   1.00
C394   C     0.87428   0.49670   0.04898   0.00000  Uiso   1.00
C395   C     0.83729   0.48821   0.47692   0.00000  Uiso   1.00
C396   C     0.83724   0.48915   0.02380   0.00000  Uiso   1.00
C397   C     0.87444   0.49421   0.45465   0.00000  Uiso   1.00
C398   C     0.79967   0.48387   0.04544   0.00000  Uiso   1.00
C399   C     0.76590   0.46244   0.47460   0.00000  Uiso   1.00
C400   C     0.91141   0.50265   0.02642   0.00000  Uiso   1.00
Cu401  Cu    0.83333   0.54689   0.25000   0.00000  Uiso   1.00
Cu402  Cu    0.83333   0.45311   0.25000   0.00000  Uiso   1.00
N403   N     0.83333   0.61736   0.25000   0.00000  Uiso   1.00
N404   N     0.83333   0.38264   0.25000   0.00000  Uiso   1.00
O405   O     0.77321   0.53958   0.25000   0.00000  Uiso   1.00
O406   O     0.89345   0.46042   0.25000   0.00000  Uiso   1.00
O407   O     0.89345   0.53958   0.25000   0.00000  Uiso   1.00
O408   O     0.77321   0.46042   0.25000   0.00000  Uiso   1.00
O409   O     0.83332   0.53960   0.18513   0.00000  Uiso   1.00
O410   O     0.83334   0.46040   0.31487   0.00000  Uiso   1.00
O411   O     0.83334   0.53960   0.31487   0.00000  Uiso   1.00
O412   O     0.83332   0.46040   0.18513   0.00000  Uiso   1.00
C413   C     0.90904   0.51543   0.38274   0.00000  Uiso   1.00
H414   H     0.91472   0.50044   0.35044   0.00000  Uiso   1.00
O415   O     0.93165   0.54629   0.39710   0.00000  Uiso   1.00
C416   C     0.75895   0.50847   0.11177   0.00000  Uiso   1.00
H417   H     0.75470   0.50224   0.14683   0.00000  Uiso   1.00
O418   O     0.73160   0.52766   0.09022   0.00000  Uiso   1.00
C419   C     0.75785   0.49846   0.38333   0.00000  Uiso   1.00
H420   H     0.73428   0.51724   0.40030   0.00000  Uiso   1.00
O421   O     0.74978   0.48219   0.34665   0.00000  Uiso   1.00
C422   C     0.90998   0.48700   0.12506   0.00000  Uiso   1.00
H423   H     0.91558   0.50740   0.15497   0.00000  Uiso   1.00
O424   O     0.93357   0.45582   0.11638   0.00000  Uiso   1.00
C425   C     0.73396   0.43439   0.44995   0.00000  Uiso   1.00
H426   H     0.70208   0.43683   0.45815   0.00000  Uiso   1.00
O427   O     0.74343   0.40719   0.42091   0.00000  Uiso   1.00
C428   C     0.94781   0.52435   0.04959   0.00000  Uiso   1.00
H429   H     0.94341   0.55293   0.07247   0.00000  Uiso   1.00
O430   O     0.98235   0.50970   0.04514   0.00000  Uiso   1.00
C431   C     0.73285   0.43896   0.04470   0.00000  Uiso   1.00
H432   H     0.70130   0.44004   0.03241   0.00000  Uiso   1.00
O433   O     0.74126   0.41520   0.07721   0.00000  Uiso   1.00
C434   C     0.95078   0.47937   0.46053   0.00000  Uiso   1.00
H435   H     0.97884   0.49897   0.46626   0.00000  Uiso   1.00
O436   O     0.95152   0.44461   0.43728   0.00000  Uiso   1.00
Br437  Br    0.71069   0.39927   0.27325   0.00000  Uiso   1.00
Br438  Br    0.95539   0.60014   0.22328   0.00000  Uiso   1.00
Br439  Br    0.95415   0.39989   0.22207   0.00000  Uiso   1.00
Br440  Br    0.71158   0.59997   0.27593   0.00000  Uiso   1.00
Br441  Br    0.77233   0.38889   0.17858   0.00000  Uiso   1.00
Br442  Br    0.89517   0.61162   0.32035   0.00000  Uiso   1.00
Br443  Br    0.89470   0.39007   0.32134   0.00000  Uiso   1.00
Br444  Br    0.77195   0.61024   0.17867   0.00000  Uiso   1.00
C445   C     0.08747   0.83327   0.25254   0.00000  Uiso   1.00
C446   C     0.24570   0.83338   0.24641   0.00000  Uiso   1.00
C447   C     0.09888   0.79769   0.02137   0.00000  Uiso   1.00
C448   C     0.24523   0.82750   0.48026   0.00000  Uiso   1.00
C449   C     0.02053   0.79085   0.25332   0.00000  Uiso   1.00
C450   C     0.31245   0.87559   0.24384   0.00000  Uiso   1.00
C451   C     0.31200   0.79101   0.24307   0.00000  Uiso   1.00
C452   C     0.02093   0.87551   0.25430   0.00000  Uiso   1.00
C453   C     0.29043   0.83336   0.24263   0.00000  Uiso   1.00
C454   C     0.04256   0.83317   0.25502   0.00000  Uiso   1.00
C455   C     0.14165   0.69111   0.22080   0.00000  Uiso   1.00
C456   C     0.19181   0.97567   0.27899   0.00000  Uiso   1.00
C457   C     0.19176   0.69164   0.27913   0.00000  Uiso   1.00
C458   C     0.14159   0.97511   0.22084   0.00000  Uiso   1.00
C459   C     0.16689   0.83321   0.16466   0.00000  Uiso   1.00
C460   C     0.16677   0.83322   0.33548   0.00000  Uiso   1.00
C461   C     0.20606   0.83390   0.40767   0.00000  Uiso   1.00
C462   C     0.13147   0.82939   0.09090   0.00000  Uiso   1.00
C463   C     0.16799   0.83158   0.38413   0.00000  Uiso   1.00
C464   C     0.16825   0.83231   0.11631   0.00000  Uiso   1.00
C465   C     0.13153   0.82365   0.40641   0.00000  Uiso   1.00
C466   C     0.20628   0.82901   0.09613   0.00000  Uiso   1.00
C467   C     0.13330   0.81428   0.45243   0.00000  Uiso   1.00
C468   C     0.20761   0.83003   0.04898   0.00000  Uiso   1.00
C469   C     0.17063   0.82154   0.47692   0.00000  Uiso   1.00
C470   C     0.17057   0.82249   0.02380   0.00000  Uiso   1.00
C471   C     0.20777   0.82754   0.45465   0.00000  Uiso   1.00
C472   C     0.13300   0.81720   0.04544   0.00000  Uiso   1.00
C473   C     0.09923   0.79577   0.47460   0.00000  Uiso   1.00
C474   C     0.24475   0.83598   0.02642   0.00000  Uiso   1.00
Cu475  Cu    0.16667   0.88022   0.25000   0.00000  Uiso   1.00
Cu476  Cu    0.16667   0.78645   0.25000   0.00000  Uiso   1.00
N477   N     0.16667   0.95069   0.25000   0.00000  Uiso   1.00
N478   N     0.16667   0.71598   0.25000   0.00000  Uiso   1.00
O479   O     0.10655   0.87291   0.25000   0.00000  Uiso   1.00
O480   O     0.22679   0.79375   0.25000   0.00000  Uiso   1.00
O481   O     0.22679   0.87291   0.25000   0.00000  Uiso   1.00
O482   O     0.10655   0.79375   0.25000   0.00000  Uiso   1.00
O483   O     0.16666   0.87293   0.18513   0.00000  Uiso   1.00
O484   O     0.16668   0.79373   0.31487   0.00000  Uiso   1.00
O485   O     0.16668   0.87293   0.31487   0.00000  Uiso   1.00
O486   O     0.16666   0.79373   0.18513   0.00000  Uiso   1.00
C487   C     0.24237   0.84876   0.38274   0.00000  Uiso   1.00
H488   H     0.24805   0.83378   0.35044   0.00000  Uiso   1.00
O489   O     0.26498   0.87962   0.39710   0.00000  Uiso   1.00
C490   C     0.09229   0.84180   0.11177   0.00000  Uiso   1.00
H491   H     0.08803   0.83557   0.14683   0.00000  Uiso   1.00
O492   O     0.06494   0.86099   0.09022   0.00000  Uiso   1.00
C493   C     0.09118   0.83179   0.38333   0.00000  Uiso   1.00
H494   H     0.06762   0.85057   0.40030   0.00000  Uiso   1.00
O495   O     0.08312   0.81552   0.34665   0.00000  Uiso   1.00
C496   C     0.24332   0.82033   0.12506   0.00000  Uiso   1.00
H497   H     0.24891   0.84073   0.15497   0.00000  Uiso   1.00
O498   O     0.26690   0.78915   0.11638   0.00000  Uiso   1.00
C499   C     0.06729   0.76772   0.44995   0.00000  Uiso   1.00
H500   H     0.03541   0.77016   0.45815   0.00000  Uiso   1.00
O501   O     0.07677   0.74052   0.42091   0.00000  Uiso   1.00
C502   C     0.28114   0.85768   0.04959   0.00000  Uiso   1.00
H503   H     0.27674   0.88626   0.07247   0.00000  Uiso   1.00
O504   O     0.31569   0.84303   0.04514   0.00000  Uiso   1.00
C505   C     0.06618   0.77229   0.04470   0.00000  Uiso   1.00
H506   H     0.03464   0.77337   0.03241   0.00000  Uiso   1.00
O507   O     0.07459   0.74854   0.07721   0.00000  Uiso   1.00
C508   C     0.28411   0.81271   0.46053   0.00000  Uiso   1.00
H509   H     0.31217   0.83231   0.46626   0.00000  Uiso   1.00
O510   O     0.28486   0.77794   0.43728   0.00000  Uiso   1.00
Br511  Br    0.04402   0.73260   0.27325   0.00000  Uiso   1.00
Br512  Br    0.28872   0.93347   0.22328   0.00000  Uiso   1.00
Br513  Br    0.28748   0.73322   0.22207   0.00000  Uiso   1.00
Br514  Br    0.04491   0.93330   0.27593   0.00000  Uiso   1.00
Br515  Br    0.10566   0.72223   0.17858   0.00000  Uiso   1.00
Br516  Br    0.22850   0.94496   0.32035   0.00000  Uiso   1.00
Br517  Br    0.22804   0.72340   0.32134   0.00000  Uiso   1.00
Br518  Br    0.10528   0.94358   0.17867   0.00000  Uiso   1.00
C519   C     0.42080   0.83327   0.25254   0.00000  Uiso   1.00
C520   C     0.57903   0.83338   0.24641   0.00000  Uiso   1.00
C521   C     0.43222   0.79769   0.02137   0.00000  Uiso   1.00
C522   C     0.57856   0.82750   0.48026   0.00000  Uiso   1.00
C523   C     0.35386   0.79085   0.25332   0.00000  Uiso   1.00
C524   C     0.64578   0.87559   0.24384   0.00000  Uiso   1.00
C525   C     0.64533   0.79101   0.24307   0.00000  Uiso   1.00
C526   C     0.35426   0.87551   0.25430   0.00000  Uiso   1.00
C527   C     0.62376   0.83336   0.24263   0.00000  Uiso   1.00
C528   C     0.37589   0.83317   0.25502   0.00000  Uiso   1.00
C529   C     0.47499   0.69111   0.22080   0.00000  Uiso   1.00
C530   C     0.52515   0.97567   0.27899   0.00000  Uiso   1.00
C531   C     0.52509   0.69164   0.27913   0.00000  Uiso   1.00
C532   C     0.47492   0.97511   0.22084   0.00000  Uiso   1.00
C533   C     0.50022   0.83321   0.16466   0.00000  Uiso   1.00
C534   C     0.50011   0.83322   0.33548   0.00000  Uiso   1.00
C535   C     0.53940   0.83390   0.40767   0.00000  Uiso   1.00
C536   C     0.46481   0.82939   0.09090   0.00000  Uiso   1.00
C537   C     0.50132   0.83158   0.38413   0.00000  Uiso   1.00
C538   C     0.50159   0.83231   0.11631   0.00000  Uiso   1.00
C539   C     0.46486   0.82365   0.40641   0.00000  Uiso   1.00
C540   C     0.53962   0.82901   0.09613   0.00000  Uiso   1.00
C541   C     0.46664   0.81428   0.45243   0.00000  Uiso   1.00
C542   C     0.54095   0.83003   0.04898   0.00000  Uiso   1.00
C543   C     0.50396   0.82154   0.47692   0.00000  Uiso   1.00
C544   C     0.50391   0.82249   0.02380   0.00000  Uiso   1.00
C545   C     0.54110   0.82754   0.45465   0.00000  Uiso   1.00
C546   C     0.46634   0.81720   0.04544   0.00000  Uiso   1.00
C547   C     0.43256   0.79577   0.47460   0.00000  Uiso   1.00
C548   C     0.57808   0.83598   0.02642   0.00000  Uiso   1.00
Cu549  Cu    0.50000   0.88022   0.25000   0.00000  Uiso   1.00
Cu550  Cu    0.50000   0.78645   0.25000   0.00000  Uiso   1.00
N551   N     0.50000   0.95069   0.25000   0.00000  Uiso   1.00
N552   N     0.50000   0.71598   0.25000   0.00000  Uiso   1.00
O553   O     0.43988   0.87291   0.25000   0.00000  Uiso   1.00
O554   O     0.56012   0.79375   0.25000   0.00000  Uiso   1.00
O555   O     0.56012   0.87291   0.25000   0.00000  Uiso   1.00
O556   O     0.43988   0.79375   0.25000   0.00000  Uiso   1.00
O557   O     0.49999   0.87293   0.18513   0.00000  Uiso   1.00
O558   O     0.50001   0.79373   0.31487   0.00000  Uiso   1.00
O559   O     0.50001   0.87293   0.31487   0.00000  Uiso   1.00
O560   O     0.49999   0.79373   0.18513   0.00000  Uiso   1.00
C561   C     0.57571   0.84876   0.38274   0.00000  Uiso   1.00
H562   H     0.58138   0.83378   0.35044   0.00000  Uiso   1.00
O563   O     0.59831   0.87962   0.39710   0.00000  Uiso   1.00
C564   C     0.42562   0.84180   0.11177   0.00000  Uiso   1.00
H565   H     0.42136   0.83557   0.14683   0.00000  Uiso   1.00
O566   O     0.39827   0.86099   0.09022   0.00000  Uiso   1.00
C567   C     0.42452   0.83179   0.38333   0.00000  Uiso   1.00
H568   H     0.40095   0.85057   0.40030   0.00000  Uiso   1.00
O569   O     0.41645   0.81552   0.34665   0.00000  Uiso   1.00
C570   C     0.57665   0.82033   0.12506   0.00000  Uiso   1.00
H571   H     0.58224   0.84073   0.15497   0.00000  Uiso   1.00
O572   O     0.60024   0.78915   0.11638   0.00000  Uiso   1.00
C573   C     0.40063   0.76772   0.44995   0.00000  Uiso   1.00
H574   H     0.36875   0.77016   0.45815   0.00000  Uiso   1.00
O575   O     0.41010   0.74052   0.42091   0.00000  Uiso   1.00
C576   C     0.61447   0.85768   0.04959   0.00000  Uiso   1.00
H577   H     0.61007   0.88626   0.07247   0.00000  Uiso   1.00
O578   O     0.64902   0.84303   0.04514   0.00000  Uiso   1.00
C579   C     0.39951   0.77229   0.04470   0.00000  Uiso   1.00
H580   H     0.36797   0.77337   0.03241   0.00000  Uiso   1.00
O581   O     0.40793   0.74854   0.07721   0.00000  Uiso   1.00
C582   C     0.61745   0.81271   0.46053   0.00000  Uiso   1.00
H583   H     0.64551   0.83231   0.46626   0.00000  Uiso   1.00
O584   O     0.61819   0.77794   0.43728   0.00000  Uiso   1.00
Br585  Br    0.37736   0.73260   0.27325   0.00000  Uiso   1.00
Br586  Br    0.62206   0.93347   0.22328   0.00000  Uiso   1.00
Br587  Br    0.62082   0.73322   0.22207   0.00000  Uiso   1.00
Br588  Br    0.37824   0.93330   0.27593   0.00000  Uiso   1.00
Br589  Br    0.43899   0.72223   0.17858   0.00000  Uiso   1.00
Br590  Br    0.56183   0.94496   0.32035   0.00000  Uiso   1.00
Br591  Br    0.56137   0.72340   0.32134   0.00000  Uiso   1.00
Br592  Br    0.43861   0.94358   0.17867   0.00000  Uiso   1.00
C593   C     0.75413   0.83327   0.25254   0.00000  Uiso   1.00
C594   C     0.91236   0.83338   0.24641   0.00000  Uiso   1.00
C595   C     0.76555   0.79769   0.02137   0.00000  Uiso   1.00
C596   C     0.91189   0.82750   0.48026   0.00000  Uiso   1.00
C597   C     0.68719   0.79085   0.25332   0.00000  Uiso   1.00
C598   C     0.97911   0.87559   0.24384   0.00000  Uiso   1.00
C599   C     0.97866   0.79101   0.24307   0.00000  Uiso   1.00
C600   C     0.68759   0.87551   0.25430   0.00000  Uiso   1.00
C601   C     0.95710   0.83336   0.24263   0.00000  Uiso   1.00
C602   C     0.70923   0.83317   0.25502   0.00000  Uiso   1.00
C603   C     0.80832   0.69111   0.22080   0.00000  Uiso   1.00
C604   C     0.85848   0.97567   0.27899   0.00000  Uiso   1.00
C605   C     0.85842   0.69164   0.27913   0.00000  Uiso   1.00
C606   C     0.80825   0.97511   0.22084   0.00000  Uiso   1.00
C607   C     0.83355   0.83321   0.16466   0.00000  Uiso   1.00
C608   C     0.83344   0.83322   0.33548   0.00000  Uiso   1.00
C609   C     0.87273   0.83390   0.40767   0.00000  Uiso   1.00
C610   C     0.79814   0.82939   0.09090   0.00000  Uiso   1.00
C611   C     0.83466   0.83158   0.38413   0.00000  Uiso   1.00
C612   C     0.83492   0.83231   0.11631   0.00000  Uiso   1.00
C613   C     0.79819   0.82365   0.40641   0.00000  Uiso   1.00
C614   C     0.87295   0.82901   0.09613   0.00000  Uiso   1.00
C615   C     0.79997   0.81428   0.45243   0.00000  Uiso   1.00
C616   C     0.87428   0.83003   0.04898   0.00000  Uiso   1.00
C617   C     0.83729   0.82154   0.47692   0.00000  Uiso   1.00
C618   C     0.83724   0.82249   0.02380   0.00000  Uiso   1.00
C619   C     0.87444   0.82754   0.45465   0.00000  Uiso   1.00
C620   C     0.79967   0.81720   0.04544   0.00000  Uiso   1.00
C621   C     0.76590   0.79577   0.47460   0.00000  Uiso   1.00
C622   C     0.91141   0.83598   0.02642   0.00000  Uiso   1.00
Cu623  Cu    0.83333   0.88022   0.25000   0.00000  Uiso   1.00
Cu624  Cu    0.83333   0.78645   0.25000   0.00000  Uiso   1.00
N625   N     0.83333   0.95069   0.25000   0.00000  Uiso   1.00
N626   N     0.83333   0.71598   0.25000   0.00000  Uiso   1.00
O627   O     0.77321   0.87291   0.25000   0.00000  Uiso   1.00
O628   O     0.89345   0.79375   0.25000   0.00000  Uiso   1.00
O629   O     0.89345   0.87291   0.25000   0.00000  Uiso   1.00
O630   O     0.77321   0.79375   0.25000   0.00000  Uiso   1.00
O631   O     0.83332   0.87293   0.18513   0.00000  Uiso   1.00
O632   O     0.83334   0.79373   0.31487   0.00000  Uiso   1.00
O633   O     0.83334   0.87293   0.31487   0.00000  Uiso   1.00
O634   O     0.83332   0.79373   0.18513   0.00000  Uiso   1.00
C635   C     0.90904   0.84876   0.38274   0.00000  Uiso   1.00
H636   H     0.91472   0.83378   0.35044   0.00000  Uiso   1.00
O637   O     0.93165   0.87962   0.39710   0.00000  Uiso   1.00
C638   C     0.75895   0.84180   0.11177   0.00000  Uiso   1.00
H639   H     0.75470   0.83557   0.14683   0.00000  Uiso   1.00
O640   O     0.73160   0.86099   0.09022   0.00000  Uiso   1.00
C641   C     0.75785   0.83179   0.38333   0.00000  Uiso   1.00
H642   H     0.73428   0.85057   0.40030   0.00000  Uiso   1.00
O643   O     0.74978   0.81552   0.34665   0.00000  Uiso   1.00
C644   C     0.90998   0.82033   0.12506   0.00000  Uiso   1.00
H645   H     0.91558   0.84073   0.15497   0.00000  Uiso   1.00
O646   O     0.93357   0.78915   0.11638   0.00000  Uiso   1.00
C647   C     0.73396   0.76772   0.44995   0.00000  Uiso   1.00
H648   H     0.70208   0.77016   0.45815   0.00000  Uiso   1.00
O649   O     0.74343   0.74052   0.42091   0.00000  Uiso   1.00
C650   C     0.94781   0.85768   0.04959   0.00000  Uiso   1.00
H651   H     0.94341   0.88626   0.07247   0.00000  Uiso   1.00
O652   O     0.98235   0.84303   0.04514   0.00000  Uiso   1.00
C653   C     0.73285   0.77229   0.04470   0.00000  Uiso   1.00
H654   H     0.70130   0.77337   0.03241   0.00000  Uiso   1.00
O655   O     0.74126   0.74854   0.07721   0.00000  Uiso   1.00
C656   C     0.95078   0.81271   0.46053   0.00000  Uiso   1.00
H657   H     0.97884   0.83231   0.46626   0.00000  Uiso   1.00
O658   O     0.95152   0.77794   0.43728   0.00000  Uiso   1.00
Br659  Br    0.71069   0.73260   0.27325   0.00000  Uiso   1.00
Br660  Br    0.95539   0.93347   0.22328   0.00000  Uiso   1.00
Br661  Br    0.95415   0.73322   0.22207   0.00000  Uiso   1.00
Br662  Br    0.71158   0.93330   0.27593   0.00000  Uiso   1.00
Br663  Br    0.77233   0.72223   0.17858   0.00000  Uiso   1.00
Br664  Br    0.89517   0.94496   0.32035   0.00000  Uiso   1.00
Br665  Br    0.89470   0.72340   0.32134   0.00000  Uiso   1.00
Br666  Br    0.77195   0.94358   0.17867   0.00000  Uiso   1.00
C667   C     0.08747   0.16660   0.75254   0.00000  Uiso   1.00
C668   C     0.24570   0.16671   0.74641   0.00000  Uiso   1.00
C669   C     0.09888   0.13102   0.52137   0.00000  Uiso   1.00
C670   C     0.24523   0.16083   0.98026   0.00000  Uiso   1.00
C671   C     0.02053   0.12419   0.75332   0.00000  Uiso   1.00
C672   C     0.31245   0.20893   0.74384   0.00000  Uiso   1.00
C673   C     0.31200   0.12435   0.74307   0.00000  Uiso   1.00
C674   C     0.02093   0.20885   0.75430   0.00000  Uiso   1.00
C675   C     0.29043   0.16669   0.74263   0.00000  Uiso   1.00
C676   C     0.04256   0.16650   0.75502   0.00000  Uiso   1.00
C677   C     0.14165   0.02445   0.72080   0.00000  Uiso   1.00
C678   C     0.19181   0.30900   0.77899   0.00000  Uiso   1.00
C679   C     0.19176   0.02498   0.77913   0.00000  Uiso   1.00
C680   C     0.14159   0.30844   0.72084   0.00000  Uiso   1.00
C681   C     0.16689   0.16654   0.66466   0.00000  Uiso   1.00
C682   C     0.16677   0.16656   0.83548   0.00000  Uiso   1.00
C683   C     0.20606   0.16724   0.90767   0.00000  Uiso   1.00
C684   C     0.13147   0.16273   0.59090   0.00000  Uiso   1.00
C685   C     0.16799   0.16492   0.88413   0.00000  Uiso   1.00
C686   C     0.16825   0.16564   0.61631   0.00000  Uiso   1.00
C687   C     0.13153   0.15698   0.90641   0.00000  Uiso   1.00
C688   C     0.20628   0.16234   0.59613   0.00000  Uiso   1.00
C689   C     0.13330   0.14762   0.95243   0.00000  Uiso   1.00
C690   C     0.20761   0.16336   0.54898   0.00000  Uiso   1.00
C691   C     0.17063   0.15487   0.97692   0.00000  Uiso   1.00
C692   C     0.17057   0.15582   0.52380   0.00000  Uiso   1.00
C693   C     0.20777   0.16088   0.95465   0.00000  Uiso   1.00
C694   C     0.13300   0.15053   0.54544   0.00000  Uiso   1.00
C695   C     0.09923   0.12911   0.97460   0.00000  Uiso   1.00
C696   C     0.24475   0.16932   0.52642   0.00000  Uiso   1.00
Cu697  Cu    0.16667   0.21355   0.75000   0.00000  Uiso   1.00
Cu698  Cu    0.16667   0.11978   0.75000   0.00000  Uiso   1.00
N699   N     0.16667   0.28402   0.75000   0.00000  Uiso   1.00
N700   N     0.16667   0.04931   0.75000   0.00000  Uiso   1.00
O701   O     0.10655   0.20625   0.75000   0.00000  Uiso   1.00
O702   O     0.22679   0.12709   0.75000   0.00000  Uiso   1.00
O703   O     0.22679   0.20625   0.75000   0.00000  Uiso   1.00
O704   O     0.10655   0.12709   0.75000   0.00000  Uiso   1.00
O705   O     0.16666   0.20627   0.68513   0.00000  Uiso   1.00
O706   O     0.16668   0.12707   0.81487   0.00000  Uiso   1.00
O707   O     0.16668   0.20627   0.81487   0.00000  Uiso   1.00
O708   O     0.16666   0.12707   0.68513   0.00000  Uiso   1.00
C709   C     0.24237   0.18210   0.88274   0.00000  Uiso   1.00
H710   H     0.24805   0.16711   0.85044   0.00000  Uiso   1.00
O711   O     0.26498   0.21296   0.89710   0.00000  Uiso   1.00
C712   C     0.09229   0.17513   0.61177   0.00000  Uiso   1.00
H713   H     0.08803   0.16891   0.64683   0.00000  Uiso   1.00
O714   O     0.06494   0.19432   0.59022   0.00000  Uiso   1.00
C715   C     0.09118   0.16513   0.88333   0.00000  Uiso   1.00
H716   H     0.06762   0.18391   0.90030   0.00000  Uiso   1.00
O717   O     0.08312   0.14886   0.84665   0.00000  Uiso   1.00
C718   C     0.24332   0.15367   0.62506   0.00000  Uiso   1.00
H719   H     0.24891   0.17406   0.65497   0.00000  Uiso   1.00
O720   O     0.26690   0.12248   0.61638   0.00000  Uiso   1.00
C721   C     0.06729   0.10105   0.94995   0.00000  Uiso   1.00
H722   H     0.03541   0.10350   0.95815   0.00000  Uiso   1.00
O723   O     0.07677   0.07386   0.92091   0.00000  Uiso   1.00
C724   C     0.28114   0.19101   0.54959   0.00000  Uiso   1.00
H725   H     0.27674   0.21960   0.57247   0.00000  Uiso   1.00
O726   O     0.31569   0.17637   0.54514   0.00000  Uiso   1.00
C727   C     0.06618   0.10562   0.54470   0.00000  Uiso   1.00
H728   H     0.03464   0.10671   0.53241   0.00000  Uiso   1.00
O729   O     0.07459   0.08187   0.57721   0.00000  Uiso   1.00
C730   C     0.28411   0.14604   0.96053   0.00000  Uiso   1.00
H731   H     0.31217   0.16564   0.96626   0.00000  Uiso   1.00
O732   O     0.28486   0.11128   0.93728   0.00000  Uiso   1.00
Br733  Br    0.04402   0.06594   0.77325   0.00000  Uiso   1.00
Br734  Br    0.28872   0.26680   0.72328   0.00000  Uiso   1.00
Br735  Br    0.28748   0.06655   0.72207   0.00000  Uiso   1.00
Br736  Br    0.04491   0.26663   0.77593   0.00000  Uiso   1.00
Br737  Br    0.10566   0.05556   0.67858   0.00000  Uiso   1.00
Br738  Br    0.22850   0.27829   0.82035   0.00000  Uiso   1.00
Br739  Br    0.22804   0.05673   0.82134   0.00000  Uiso   1.00
Br740  Br    0.10528   0.27691   0.67867   0.00000  Uiso   1.00
C741   C     0.42080   0.16660   0.75254   0.00000  Uiso   1.00
C742   C     0.57903   0.16671   0.74641   0.00000  Uiso   1.00
C743   C     0.43222   0.13102   0.52137   0.00000  Uiso   1.00
C744   C     0.57856   0.16083   0.98026   0.00000  Uiso   1.00
C745   C     0.35386   0.12419   0.75332   0.00000  Uiso   1.00
C746   C     0.64578   0.20893   0.74384   0.00000  Uiso   1.00
C747   C     0.64533   0.12435   0.74307   0.00000  Uiso   1.00
C748   C     0.35426   0.20885   0.75430   0.00000  Uiso   1.00
C749   C     0.62376   0.16669   0.74263   0.00000  Uiso   1.00
C750   C     0.37589   0.16650   0.75502   0.00000  Uiso   1.00
C751   C     0.47499   0.02445   0.72080   0.00000  Uiso   1.00
C752   C     0.52515   0.30900   0.77899   0.00000  Uiso   1.00
C753   C     0.52509   0.02498   0.77913   0.00000  Uiso   1.00
C754   C     0.47492   0.30844   0.72084   0.00000  Uiso   1.00
C755   C     0.50022   0.16654   0.66466   0.00000  Uiso   1.00
C756   C     0.50011   0.16656   0.83548   0.00000  Uiso   1.00
C757   C     0.53940   0.16724   0.90767   0.00000  Uiso   1.00
C758   C     0.46481   0.16273   0.59090   0.00000  Uiso   1.00
C759   C     0.50132   0.16492   0.88413   0.00000  Uiso   1.00
C760   C     0.50159   0.16564   0.61631   0.00000  Uiso   1.00
C761   C     0.46486   0.15698   0.90641   0.00000  Uiso   1.00
C762   C     0.53962   0.16234   0.59613   0.00000  Uiso   1.00
C763   C     0.46664   0.14762   0.95243   0.00000  Uiso   1.00
C764   C     0.54095   0.16336   0.54898   0.00000  Uiso   1.00
C765   C     0.50396   0.15487   0.97692   0.00000  Uiso   1.00
C766   C     0.50391   0.15582   0.52380   0.00000  Uiso   1.00
C767   C     0.54110   0.16088   0.95465   0.00000  Uiso   1.00
C768   C     0.46634   0.15053   0.54544   0.00000  Uiso   1.00
C769   C     0.43256   0.12911   0.97460   0.00000  Uiso   1.00
C770   C     0.57808   0.16932   0.52642   0.00000  Uiso   1.00
Cu771  Cu    0.50000   0.21355   0.75000   0.00000  Uiso   1.00
Cu772  Cu    0.50000   0.11978   0.75000   0.00000  Uiso   1.00
N773   N     0.50000   0.28402   0.75000   0.00000  Uiso   1.00
N774   N     0.50000   0.04931   0.75000   0.00000  Uiso   1.00
O775   O     0.43988   0.20625   0.75000   0.00000  Uiso   1.00
O776   O     0.56012   0.12709   0.75000   0.00000  Uiso   1.00
O777   O     0.56012   0.20625   0.75000   0.00000  Uiso   1.00
O778   O     0.43988   0.12709   0.75000   0.00000  Uiso   1.00
O779   O     0.49999   0.20627   0.68513   0.00000  Uiso   1.00
O780   O     0.50001   0.12707   0.81487   0.00000  Uiso   1.00
O781   O     0.50001   0.20627   0.81487   0.00000  Uiso   1.00
O782   O     0.49999   0.12707   0.68513   0.00000  Uiso   1.00
C783   C     0.57571   0.18210   0.88274   0.00000  Uiso   1.00
H784   H     0.58138   0.16711   0.85044   0.00000  Uiso   1.00
O785   O     0.59831   0.21296   0.89710   0.00000  Uiso   1.00
C786   C     0.42562   0.17513   0.61177   0.00000  Uiso   1.00
H787   H     0.42136   0.16891   0.64683   0.00000  Uiso   1.00
O788   O     0.39827   0.19432   0.59022   0.00000  Uiso   1.00
C789   C     0.42452   0.16513   0.88333   0.00000  Uiso   1.00
H790   H     0.40095   0.18391   0.90030   0.00000  Uiso   1.00
O791   O     0.41645   0.14886   0.84665   0.00000  Uiso   1.00
C792   C     0.57665   0.15367   0.62506   0.00000  Uiso   1.00
H793   H     0.58224   0.17406   0.65497   0.00000  Uiso   1.00
O794   O     0.60024   0.12248   0.61638   0.00000  Uiso   1.00
C795   C     0.40063   0.10105   0.94995   0.00000  Uiso   1.00
H796   H     0.36875   0.10350   0.95815   0.00000  Uiso   1.00
O797   O     0.41010   0.07386   0.92091   0.00000  Uiso   1.00
C798   C     0.61447   0.19101   0.54959   0.00000  Uiso   1.00
H799   H     0.61007   0.21960   0.57247   0.00000  Uiso   1.00
O800   O     0.64902   0.17637   0.54514   0.00000  Uiso   1.00
C801   C     0.39951   0.10562   0.54470   0.00000  Uiso   1.00
H802   H     0.36797   0.10671   0.53241   0.00000  Uiso   1.00
O803   O     0.40793   0.08187   0.57721   0.00000  Uiso   1.00
C804   C     0.61745   0.14604   0.96053   0.00000  Uiso   1.00
H805   H     0.64551   0.16564   0.96626   0.00000  Uiso   1.00
O806   O     0.61819   0.11128   0.93728   0.00000  Uiso   1.00
Br807  Br    0.37736   0.06594   0.77325   0.00000  Uiso   1.00
Br808  Br    0.62206   0.26680   0.72328   0.00000  Uiso   1.00
Br809  Br    0.62082   0.06655   0.72207   0.00000  Uiso   1.00
Br810  Br    0.37824   0.26663   0.77593   0.00000  Uiso   1.00
Br811  Br    0.43899   0.05556   0.67858   0.00000  Uiso   1.00
Br812  Br    0.56183   0.27829   0.82035   0.00000  Uiso   1.00
Br813  Br    0.56137   0.05673   0.82134   0.00000  Uiso   1.00
Br814  Br    0.43861   0.27691   0.67867   0.00000  Uiso   1.00
C815   C     0.75413   0.16660   0.75254   0.00000  Uiso   1.00
C816   C     0.91236   0.16671   0.74641   0.00000  Uiso   1.00
C817   C     0.76555   0.13102   0.52137   0.00000  Uiso   1.00
C818   C     0.91189   0.16083   0.98026   0.00000  Uiso   1.00
C819   C     0.68719   0.12419   0.75332   0.00000  Uiso   1.00
C820   C     0.97911   0.20893   0.74384   0.00000  Uiso   1.00
C821   C     0.97866   0.12435   0.74307   0.00000  Uiso   1.00
C822   C     0.68759   0.20885   0.75430   0.00000  Uiso   1.00
C823   C     0.95710   0.16669   0.74263   0.00000  Uiso   1.00
C824   C     0.70923   0.16650   0.75502   0.00000  Uiso   1.00
C825   C     0.80832   0.02445   0.72080   0.00000  Uiso   1.00
C826   C     0.85848   0.30900   0.77899   0.00000  Uiso   1.00
C827   C     0.85842   0.02498   0.77913   0.00000  Uiso   1.00
C828   C     0.80825   0.30844   0.72084   0.00000  Uiso   1.00
C829   C     0.83355   0.16654   0.66466   0.00000  Uiso   1.00
C830   C     0.83344   0.16656   0.83548   0.00000  Uiso   1.00
C831   C     0.87273   0.16724   0.90767   0.00000  Uiso   1.00
C832   C     0.79814   0.16273   0.59090   0.00000  Uiso   1.00
C833   C     0.83466   0.16492   0.88413   0.00000  Uiso   1.00
C834   C     0.83492   0.16564   0.61631   0.00000  Uiso   1.00
C835   C     0.79819   0.15698   0.90641   0.00000  Uiso   1.00
C836   C     0.87295   0.16234   0.59613   0.00000  Uiso   1.00
C837   C     0.79997   0.14762   0.95243   0.00000  Uiso   1.00
C838   C     0.87428   0.16336   0.54898   0.00000  Uiso   1.00
C839   C     0.83729   0.15487   0.97692   0.00000  Uiso   1.00
C840   C     0.83724   0.15582   0.52380   0.00000  Uiso   1.00
C841   C     0.87444   0.16088   0.95465   0.00000  Uiso   1.00
C842   C     0.79967   0.15053   0.54544   0.00000  Uiso   1.00
C843   C     0.76590   0.12911   0.97460   0.00000  Uiso   1.00
C844   C     0.91141   0.16932   0.52642   0.00000  Uiso   1.00
Cu845  Cu    0.83333   0.21355   0.75000   0.00000  Uiso   1.00
Cu846  Cu    0.83333   0.11978   0.75000   0.00000  Uiso   1.00
N847   N     0.83333   0.28402   0.75000   0.00000  Uiso   1.00
N848   N     0.83333   0.04931   0.75000   0.00000  Uiso   1.00
O849   O     0.77321   0.20625   0.75000   0.00000  Uiso   1.00
O850   O     0.89345   0.12709   0.75000   0.00000  Uiso   1.00
O851   O     0.89345   0.20625   0.75000   0.00000  Uiso   1.00
O852   O     0.77321   0.12709   0.75000   0.00000  Uiso   1.00
O853   O     0.83332   0.20627   0.68513   0.00000  Uiso   1.00
O854   O     0.83334   0.12707   0.81487   0.00000  Uiso   1.00
O855   O     0.83334   0.20627   0.81487   0.00000  Uiso   1.00
O856   O     0.83332   0.12707   0.68513   0.00000  Uiso   1.00
C857   C     0.90904   0.18210   0.88274   0.00000  Uiso   1.00
H858   H     0.91472   0.16711   0.85044   0.00000  Uiso   1.00
O859   O     0.93165   0.21296   0.89710   0.00000  Uiso   1.00
C860   C     0.75895   0.17513   0.61177   0.00000  Uiso   1.00
H861   H     0.75470   0.16891   0.64683   0.00000  Uiso   1.00
O862   O     0.73160   0.19432   0.59022   0.00000  Uiso   1.00
C863   C     0.75785   0.16513   0.88333   0.00000  Uiso   1.00
H864   H     0.73428   0.18391   0.90030   0.00000  Uiso   1.00
O865   O     0.74978   0.14886   0.84665   0.00000  Uiso   1.00
C866   C     0.90998   0.15367   0.62506   0.00000  Uiso   1.00
H867   H     0.91558   0.17406   0.65497   0.00000  Uiso   1.00
O868   O     0.93357   0.12248   0.61638   0.00000  Uiso   1.00
C869   C     0.73396   0.10105   0.94995   0.00000  Uiso   1.00
H870   H     0.70208   0.10350   0.95815   0.00000  Uiso   1.00
O871   O     0.74343   0.07386   0.92091   0.00000  Uiso   1.00
C872   C     0.94781   0.19101   0.54959   0.00000  Uiso   1.00
H873   H     0.94341   0.21960   0.57247   0.00000  Uiso   1.00
O874   O     0.98235   0.17637   0.54514   0.00000  Uiso   1.00
C875   C     0.73285   0.10562   0.54470   0.00000  Uiso   1.00
H876   H     0.70130   0.10671   0.53241   0.00000  Uiso   1.00
O877   O     0.74126   0.08187   0.57721   0.00000  Uiso   1.00
C878   C     0.95078   0.14604   0.96053   0.00000  Uiso   1.00
H879   H     0.97884   0.16564   0.96626   0.00000  Uiso   1.00
O880   O     0.95152   0.11128   0.93728   0.00000  Uiso   1.00
Br881  Br    0.71069   0.06594   0.77325   0.00000  Uiso   1.00
Br882  Br    0.95539   0.26680   0.72328   0.00000  Uiso   1.00
Br883  Br    0.95415   0.06655   0.72207   0.00000  Uiso   1.00
Br884  Br    0.71158   0.26663   0.77593   0.00000  Uiso   1.00
Br885  Br    0.77233   0.05556   0.67858   0.00000  Uiso   1.00
Br886  Br    0.89517   0.27829   0.82035   0.00000  Uiso   1.00
Br887  Br    0.89470   0.05673   0.82134   0.00000  Uiso   1.00
Br888  Br    0.77195   0.27691   0.67867   0.00000  Uiso   1.00
C889   C     0.08747   0.49994   0.75254   0.00000  Uiso   1.00
C890   C     0.24570   0.50004   0.74641   0.00000  Uiso   1.00
C891   C     0.09888   0.46435   0.52137   0.00000  Uiso   1.00
C892   C     0.24523   0.49416   0.98026   0.00000  Uiso   1.00
C893   C     0.02053   0.45752   0.75332   0.00000  Uiso   1.00
C894   C     0.31245   0.54226   0.74384   0.00000  Uiso   1.00
C895   C     0.31200   0.45768   0.74307   0.00000  Uiso   1.00
C896   C     0.02093   0.54218   0.75430   0.00000  Uiso   1.00
C897   C     0.29043   0.50003   0.74263   0.00000  Uiso   1.00
C898   C     0.04256   0.49984   0.75502   0.00000  Uiso   1.00
C899   C     0.14165   0.35778   0.72080   0.00000  Uiso   1.00
C900   C     0.19181   0.64234   0.77899   0.00000  Uiso   1.00
C901   C     0.19176   0.35831   0.77913   0.00000  Uiso   1.00
C902   C     0.14159   0.64178   0.72084   0.00000  Uiso   1.00
C903   C     0.16689   0.49988   0.66466   0.00000  Uiso   1.00
C904   C     0.16677   0.49989   0.83548   0.00000  Uiso   1.00
C905   C     0.20606   0.50057   0.90767   0.00000  Uiso   1.00
C906   C     0.13147   0.49606   0.59090   0.00000  Uiso   1.00
C907   C     0.16799   0.49825   0.88413   0.00000  Uiso   1.00
C908   C     0.16825   0.49897   0.61631   0.00000  Uiso   1.00
C909   C     0.13153   0.49031   0.90641   0.00000  Uiso   1.00
C910   C     0.20628   0.49568   0.59613   0.00000  Uiso   1.00
C911   C     0.13330   0.48095   0.95243   0.00000  Uiso   1.00
C912   C     0.20761   0.49670   0.54898   0.00000  Uiso   1.00
C913   C     0.17063   0.48821   0.97692   0.00000  Uiso   1.00
C914   C     0.17057   0.48915   0.52380   0.00000  Uiso   1.00
C915   C     0.20777   0.49421   0.95465   0.00000  Uiso   1.00
C916   C     0.13300   0.48387   0.54544   0.00000  Uiso   1.00
C917   C     0.09923   0.46244   0.97460   0.00000  Uiso   1.00
C918   C     0.24475   0.50265   0.52642   0.00000  Uiso   1.00
Cu919  Cu    0.16667   0.54689   0.75000   0.00000  Uiso   1.00
Cu920  Cu    0.16667   0.45311   0.75000   0.00000  Uiso   1.00
N921   N     0.16667   0.61736   0.75000   0.00000  Uiso   1.00
N922   N     0.16667   0.38264   0.75000   0.00000  Uiso   1.00
O923   O     0.10655   0.53958   0.75000   0.00000  Uiso   1.00
O924   O     0.22679   0.46042   0.75000   0.00000  Uiso   1.00
O925   O     0.22679   0.53958   0.75000   0.00000  Uiso   1.00
O926   O     0.10655   0.46042   0.75000   0.00000  Uiso   1.00
O927   O     0.16666   0.53960   0.68513   0.00000  Uiso   1.00
O928   O     0.16668   0.46040   0.81487   0.00000  Uiso   1.00
O929   O     0.16668   0.53960   0.81487   0.00000  Uiso   1.00
O930   O     0.16666   0.46040   0.68513   0.00000  Uiso   1.00
C931   C     0.24237   0.51543   0.88274   0.00000  Uiso   1.00
H932   H     0.24805   0.50044   0.85044   0.00000  Uiso   1.00
O933   O     0.26498   0.54629   0.89710   0.00000  Uiso   1.00
C934   C     0.09229   0.50847   0.61177   0.00000  Uiso   1.00
H935   H     0.08803   0.50224   0.64683   0.00000  Uiso   1.00
O936   O     0.06494   0.52766   0.59022   0.00000  Uiso   1.00
C937   C     0.09118   0.49846   0.88333   0.00000  Uiso   1.00
H938   H     0.06762   0.51724   0.90030   0.00000  Uiso   1.00
O939   O     0.08312   0.48219   0.84665   0.00000  Uiso   1.00
C940   C     0.24332   0.48700   0.62506   0.00000  Uiso   1.00
H941   H     0.24891   0.50740   0.65497   0.00000  Uiso   1.00
O942   O     0.26690   0.45582   0.61638   0.00000  Uiso   1.00
C943   C     0.06729   0.43439   0.94995   0.00000  Uiso   1.00
H944   H     0.03541   0.43683   0.95815   0.00000  Uiso   1.00
O945   O     0.07677   0.40719   0.92091   0.00000  Uiso   1.00
C946   C     0.28114   0.52435   0.54959   0.00000  Uiso   1.00
H947   H     0.27674   0.55293   0.57247   0.00000  Uiso   1.00
O948   O     0.31569   0.50970   0.54514   0.00000  Uiso   1.00
C949   C     0.06618   0.43896   0.54470   0.00000  Uiso   1.00
H950   H     0.03464   0.44004   0.53241   0.00000  Uiso   1.00
O951   O     0.07459   0.41520   0.57721   0.00000  Uiso   1.00
C952   C     0.28411   0.47937   0.96053   0.00000  Uiso   1.00
H953   H     0.31217   0.49897   0.96626   0.00000  Uiso   1.00
O954   O     0.28486   0.44461   0.93728   0.00000  Uiso   1.00
Br955  Br    0.04402   0.39927   0.77325   0.00000  Uiso   1.00
Br956  Br    0.28872   0.60014   0.72328   0.00000  Uiso   1.00
Br957  Br    0.28748   0.39989   0.72207   0.00000  Uiso   1.00
Br958  Br    0.04491   0.59997   0.77593   0.00000  Uiso   1.00
Br959  Br    0.10566   0.38889   0.67858   0.00000  Uiso   1.00
Br960  Br    0.22850   0.61162   0.82035   0.00000  Uiso   1.00
Br961  Br    0.22804   0.39007   0.82134   0.00000  Uiso   1.00
Br962  Br    0.10528   0.61024   0.67867   0.00000  Uiso   1.00
C963   C     0.42080   0.49994   0.75254   0.00000  Uiso   1.00
C964   C     0.57903   0.50004   0.74641   0.00000  Uiso   1.00
C965   C     0.43222   0.46435   0.52137   0.00000  Uiso   1.00
C966   C     0.57856   0.49416   0.98026   0.00000  Uiso   1.00
C967   C     0.35386   0.45752   0.75332   0.00000  Uiso   1.00
C968   C     0.64578   0.54226   0.74384   0.00000  Uiso   1.00
C969   C     0.64533   0.45768   0.74307   0.00000  Uiso   1.00
C970   C     0.35426   0.54218   0.75430   0.00000  Uiso   1.00
C971   C     0.62376   0.50003   0.74263   0.00000  Uiso   1.00
C972   C     0.37589   0.49984   0.75502   0.00000  Uiso   1.00
C973   C     0.47499   0.35778   0.72080   0.00000  Uiso   1.00
C974   C     0.52515   0.64234   0.77899   0.00000  Uiso   1.00
C975   C     0.52509   0.35831   0.77913   0.00000  Uiso   1.00
C976   C     0.47492   0.64178   0.72084   0.00000  Uiso   1.00
C977   C     0.50022   0.49988   0.66466   0.00000  Uiso   1.00
C978   C     0.50011   0.49989   0.83548   0.00000  Uiso   1.00
C979   C     0.53940   0.50057   0.90767   0.00000  Uiso   1.00
C980   C     0.46481   0.49606   0.59090   0.00000  Uiso   1.00
C981   C     0.50132   0.49825   0.88413   0.00000  Uiso   1.00
C982   C     0.50159   0.49897   0.61631   0.00000  Uiso   1.00
C983   C     0.46486   0.49031   0.90641   0.00000  Uiso   1.00
C984   C     0.53962   0.49568   0.59613   0.00000  Uiso   1.00
C985   C     0.46664   0.48095   0.95243   0.00000  Uiso   1.00
C986   C     0.54095   0.49670   0.54898   0.00000  Uiso   1.00
C987   C     0.50396   0.48821   0.97692   0.00000  Uiso   1.00
C988   C     0.50391   0.48915   0.52380   0.00000  Uiso   1.00
C989   C     0.54110   0.49421   0.95465   0.00000  Uiso   1.00
C990   C     0.46634   0.48387   0.54544   0.00000  Uiso   1.00
C991   C     0.43256   0.46244   0.97460   0.00000  Uiso   1.00
C992   C     0.57808   0.50265   0.52642   0.00000  Uiso   1.00
Cu993  Cu    0.50000   0.54689   0.75000   0.00000  Uiso   1.00
Cu994  Cu    0.50000   0.45311   0.75000   0.00000  Uiso   1.00
N995   N     0.50000   0.61736   0.75000   0.00000  Uiso   1.00
N996   N     0.50000   0.38264   0.75000   0.00000  Uiso   1.00
O997   O     0.43988   0.53958   0.75000   0.00000  Uiso   1.00
O998   O     0.56012   0.46042   0.75000   0.00000  Uiso   1.00
O999   O     0.56012   0.53958   0.75000   0.00000  Uiso   1.00
O1000  O     0.43988   0.46042   0.75000   0.00000  Uiso   1.00
O1001  O     0.49999   0.53960   0.68513   0.00000  Uiso   1.00
O1002  O     0.50001   0.46040   0.81487   0.00000  Uiso   1.00
O1003  O     0.50001   0.53960   0.81487   0.00000  Uiso   1.00
O1004  O     0.49999   0.46040   0.68513   0.00000  Uiso   1.00
C1005  C     0.57571   0.51543   0.88274   0.00000  Uiso   1.00
H1006  H     0.58138   0.50044   0.85044   0.00000  Uiso   1.00
O1007  O     0.59831   0.54629   0.89710   0.00000  Uiso   1.00
C1008  C     0.42562   0.50847   0.61177   0.00000  Uiso   1.00
H1009  H     0.42136   0.50224   0.64683   0.00000  Uiso   1.00
O1010  O     0.39827   0.52766   0.59022   0.00000  Uiso   1.00
C1011  C     0.42452   0.49846   0.88333   0.00000  Uiso   1.00
H1012  H     0.40095   0.51724   0.90030   0.00000  Uiso   1.00
O1013  O     0.41645   0.48219   0.84665   0.00000  Uiso   1.00
C1014  C     0.57665   0.48700   0.62506   0.00000  Uiso   1.00
H1015  H     0.58224   0.50740   0.65497   0.00000  Uiso   1.00
O1016  O     0.60024   0.45582   0.61638   0.00000  Uiso   1.00
C1017  C     0.40063   0.43439   0.94995   0.00000  Uiso   1.00
H1018  H     0.36875   0.43683   0.95815   0.00000  Uiso   1.00
O1019  O     0.41010   0.40719   0.92091   0.00000  Uiso   1.00
C1020  C     0.61447   0.52435   0.54959   0.00000  Uiso   1.00
H1021  H     0.61007   0.55293   0.57247   0.00000  Uiso   1.00
O1022  O     0.64902   0.50970   0.54514   0.00000  Uiso   1.00
C1023  C     0.39951   0.43896   0.54470   0.00000  Uiso   1.00
H1024  H     0.36797   0.44004   0.53241   0.00000  Uiso   1.00
O1025  O     0.40793   0.41520   0.57721   0.00000  Uiso   1.00
C1026  C     0.61745   0.47937   0.96053   0.00000  Uiso   1.00
H1027  H     0.64551   0.49897   0.96626   0.00000  Uiso   1.00
O1028  O     0.61819   0.44461   0.93728   0.00000  Uiso   1.00
Br1029 Br    0.37736   0.39927   0.77325   0.00000  Uiso   1.00
Br1030 Br    0.62206   0.60014   0.72328   0.00000  Uiso   1.00
Br1031 Br    0.62082   0.39989   0.72207   0.00000  Uiso   1.00
Br1032 Br    0.37824   0.59997   0.77593   0.00000  Uiso   1.00
Br1033 Br    0.43899   0.38889   0.67858   0.00000  Uiso   1.00
Br1034 Br    0.56183   0.61162   0.82035   0.00000  Uiso   1.00
Br1035 Br    0.56137   0.39007   0.82134   0.00000  Uiso   1.00
Br1036 Br    0.43861   0.61024   0.67867   0.00000  Uiso   1.00
C1037  C     0.75413   0.49994   0.75254   0.00000  Uiso   1.00
C1038  C     0.91236   0.50004   0.74641   0.00000  Uiso   1.00
C1039  C     0.76555   0.46435   0.52137   0.00000  Uiso   1.00
C1040  C     0.91189   0.49416   0.98026   0.00000  Uiso   1.00
C1041  C     0.68719   0.45752   0.75332   0.00000  Uiso   1.00
C1042  C     0.97911   0.54226   0.74384   0.00000  Uiso   1.00
C1043  C     0.97866   0.45768   0.74307   0.00000  Uiso   1.00
C1044  C     0.68759   0.54218   0.75430   0.00000  Uiso   1.00
C1045  C     0.95710   0.50003   0.74263   0.00000  Uiso   1.00
C1046  C     0.70923   0.49984   0.75502   0.00000  Uiso   1.00
C1047  C     0.80832   0.35778   0.72080   0.00000  Uiso   1.00
C1048  C     0.85848   0.64234   0.77899   0.00000  Uiso   1.00
C1049  C     0.85842   0.35831   0.77913   0.00000  Uiso   1.00
C1050  C     0.80825   0.64178   0.72084   0.00000  Uiso   1.00
C1051  C     0.83355   0.49988   0.66466   0.00000  Uiso   1.00
C1052  C     0.83344   0.49989   0.83548   0.00000  Uiso   1.00
C1053  C     0.87273   0.50057   0.90767   0.00000  Uiso   1.00
C1054  C     0.79814   0.49606   0.59090   0.00000  Uiso   1.00
C1055  C     0.83466   0.49825   0.88413   0.00000  Uiso   1.00
C1056  C     0.83492   0.49897   0.61631   0.00000  Uiso   1.00
C1057  C     0.79819   0.49031   0.90641   0.00000  Uiso   1.00
C1058  C     0.87295   0.49568   0.59613   0.00000  Uiso   1.00
C1059  C     0.79997   0.48095   0.95243   0.00000  Uiso   1.00
C1060  C     0.87428   0.49670   0.54898   0.00000  Uiso   1.00
C1061  C     0.83729   0.48821   0.97692   0.00000  Uiso   1.00
C1062  C     0.83724   0.48915   0.52380   0.00000  Uiso   1.00
C1063  C     0.87444   0.49421   0.95465   0.00000  Uiso   1.00
C1064  C     0.79967   0.48387   0.54544   0.00000  Uiso   1.00
C1065  C     0.76590   0.46244   0.97460   0.00000  Uiso   1.00
C1066  C     0.91141   0.50265   0.52642   0.00000  Uiso   1.00
Cu1067 Cu    0.83333   0.54689   0.75000   0.00000  Uiso   1.00
Cu1068 Cu    0.83333   0.45311   0.75000   0.00000  Uiso   1.00
N1069  N     0.83333   0.61736   0.75000   0.00000  Uiso   1.00
N1070  N     0.83333   0.38264   0.75000   0.00000  Uiso   1.00
O1071  O     0.77321   0.53958   0.75000   0.00000  Uiso   1.00
O1072  O     0.89345   0.46042   0.75000   0.00000  Uiso   1.00
O1073  O     0.89345   0.53958   0.75000   0.00000  Uiso   1.00
O1074  O     0.77321   0.46042   0.75000   0.00000  Uiso   1.00
O1075  O     0.83332   0.53960   0.68513   0.00000  Uiso   1.00
O1076  O     0.83334   0.46040   0.81487   0.00000  Uiso   1.00
O1077  O     0.83334   0.53960   0.81487   0.00000  Uiso   1.00
O1078  O     0.83332   0.46040   0.68513   0.00000  Uiso   1.00
C1079  C     0.90904   0.51543   0.88274   0.00000  Uiso   1.00
H1080  H     0.91472   0.50044   0.85044   0.00000  Uiso   1.00
O1081  O     0.93165   0.54629   0.89710   0.00000  Uiso   1.00
C1082  C     0.75895   0.50847   0.61177   0.00000  Uiso   1.00
H1083  H     0.75470   0.50224   0.64683   0.00000  Uiso   1.00
O1084  O     0.73160   0.52766   0.59022   0.00000  Uiso   1.00
C1085  C     0.75785   0.49846   0.88333   0.00000  Uiso   1.00
H1086  H     0.73428   0.51724   0.90030   0.00000  Uiso   1.00
O1087  O     0.74978   0.48219   0.84665   0.00000  Uiso   1.00
C1088  C     0.90998   0.48700   0.62506   0.00000  Uiso   1.00
H1089  H     0.91558   0.50740   0.65497   0.00000  Uiso   1.00
O1090  O     0.93357   0.45582   0.61638   0.00000  Uiso   1.00
C1091  C     0.73396   0.43439   0.94995   0.00000  Uiso   1.00
H1092  H     0.70208   0.43683   0.95815   0.00000  Uiso   1.00
O1093  O     0.74343   0.40719   0.92091   0.00000  Uiso   1.00
C1094  C     0.94781   0.52435   0.54959   0.00000  Uiso   1.00
H1095  H     0.94341   0.55293   0.57247   0.00000  Uiso   1.00
O1096  O     0.98235   0.50970   0.54514   0.00000  Uiso   1.00
C1097  C     0.73285   0.43896   0.54470   0.00000  Uiso   1.00
H1098  H     0.70130   0.44004   0.53241   0.00000  Uiso   1.00
O1099  O     0.74126   0.41520   0.57721   0.00000  Uiso   1.00
C1100  C     0.95078   0.47937   0.96053   0.00000  Uiso   1.00
H1101  H     0.97884   0.49897   0.96626   0.00000  Uiso   1.00
O1102  O     0.95152   0.44461   0.93728   0.00000  Uiso   1.00
Br1103 Br    0.71069   0.39927   0.77325   0.00000  Uiso   1.00
Br1104 Br    0.95539   0.60014   0.72328   0.00000  Uiso   1.00
Br1105 Br    0.95415   0.39989   0.72207   0.00000  Uiso   1.00
Br1106 Br    0.71158   0.59997   0.77593   0.00000  Uiso   1.00
Br1107 Br    0.77233   0.38889   0.67858   0.00000  Uiso   1.00
Br1108 Br    0.89517   0.61162   0.82035   0.00000  Uiso   1.00
Br1109 Br    0.89470   0.39007   0.82134   0.00000  Uiso   1.00
Br1110 Br    0.77195   0.61024   0.67867   0.00000  Uiso   1.00
C1111  C     0.08747   0.83327   0.75254   0.00000  Uiso   1.00
C1112  C     0.24570   0.83338   0.74641   0.00000  Uiso   1.00
C1113  C     0.09888   0.79769   0.52137   0.00000  Uiso   1.00
C1114  C     0.24523   0.82750   0.98026   0.00000  Uiso   1.00
C1115  C     0.02053   0.79085   0.75332   0.00000  Uiso   1.00
C1116  C     0.31245   0.87559   0.74384   0.00000  Uiso   1.00
C1117  C     0.31200   0.79101   0.74307   0.00000  Uiso   1.00
C1118  C     0.02093   0.87551   0.75430   0.00000  Uiso   1.00
C1119  C     0.29043   0.83336   0.74263   0.00000  Uiso   1.00
C1120  C     0.04256   0.83317   0.75502   0.00000  Uiso   1.00
C1121  C     0.14165   0.69111   0.72080   0.00000  Uiso   1.00
C1122  C     0.19181   0.97567   0.77899   0.00000  Uiso   1.00
C1123  C     0.19176   0.69164   0.77913   0.00000  Uiso   1.00
C1124  C     0.14159   0.97511   0.72084   0.00000  Uiso   1.00
C1125  C     0.16689   0.83321   0.66466   0.00000  Uiso   1.00
C1126  C     0.16677   0.83322   0.83548   0.00000  Uiso   1.00
C1127  C     0.20606   0.83390   0.90767   0.00000  Uiso   1.00
C1128  C     0.13147   0.82939   0.59090   0.00000  Uiso   1.00
C1129  C     0.16799   0.83158   0.88413   0.00000  Uiso   1.00
C1130  C     0.16825   0.83231   0.61631   0.00000  Uiso   1.00
C1131  C     0.13153   0.82365   0.90641   0.00000  Uiso   1.00
C1132  C     0.20628   0.82901   0.59613   0.00000  Uiso   1.00
C1133  C     0.13330   0.81428   0.95243   0.00000  Uiso   1.00
C1134  C     0.20761   0.83003   0.54898   0.00000  Uiso   1.00
C1135  C     0.17063   0.82154   0.97692   0.00000  Uiso   1.00
C1136  C     0.17057   0.82249   0.52380   0.00000  Uiso   1.00
C1137  C     0.20777   0.82754   0.95465   0.00000  Uiso   1.00
C1138  C     0.13300   0.81720   0.54544   0.00000  Uiso   1.00
C1139  C     0.09923   0.79577   0.97460   0.00000  Uiso   1.00
C1140  C     0.24475   0.83598   0.52642   0.00000  Uiso   1.00
Cu1141 Cu    0.16667   0.88022   0.75000   0.00000  Uiso   1.00
Cu1142 Cu    0.16667   0.78645   0.75000   0.00000  Uiso   1.00
N1143  N     0.16667   0.95069   0.75000   0.00000  Uiso   1.00
N1144  N     0.16667   0.71598   0.75000   0.00000  Uiso   1.00
O1145  O     0.10655   0.87291   0.75000   0.00000  Uiso   1.00
O1146  O     0.22679   0.79375   0.75000   0.00000  Uiso   1.00
O1147  O     0.22679   0.87291   0.75000   0.00000  Uiso   1.00
O1148  O     0.10655   0.79375   0.75000   0.00000  Uiso   1.00
O1149  O     0.16666   0.87293   0.68513   0.00000  Uiso   1.00
O1150  O     0.16668   0.79373   0.81487   0.00000  Uiso   1.00
O1151  O     0.16668   0.87293   0.81487   0.00000  Uiso   1.00
O1152  O     0.16666   0.79373   0.68513   0.00000  Uiso   1.00
C1153  C     0.24237   0.84876   0.88274   0.00000  Uiso   1.00
H1154  H     0.24805   0.83378   0.85044   0.00000  Uiso   1.00
O1155  O     0.26498   0.87962   0.89710   0.00000  Uiso   1.00
C1156  C     0.09229   0.84180   0.61177   0.00000  Uiso   1.00
H1157  H     0.08803   0.83557   0.64683   0.00000  Uiso   1.00
O1158  O     0.06494   0.86099   0.59022   0.00000  Uiso   1.00
C1159  C     0.09118   0.83179   0.88333   0.00000  Uiso   1.00
H1160  H     0.06762   0.85057   0.90030   0.00000  Uiso   1.00
O1161  O     0.08312   0.81552   0.84665   0.00000  Uiso   1.00
C1162  C     0.24332   0.82033   0.62506   0.00000  Uiso   1.00
H1163  H     0.24891   0.84073   0.65497   0.00000  Uiso   1.00
O1164  O     0.26690   0.78915   0.61638   0.00000  Uiso   1.00
C1165  C     0.06729   0.76772   0.94995   0.00000  Uiso   1.00
H1166  H     0.03541   0.77016   0.95815   0.00000  Uiso   1.00
O1167  O     0.07677   0.74052   0.92091   0.00000  Uiso   1.00
C1168  C     0.28114   0.85768   0.54959   0.00000  Uiso   1.00
H1169  H     0.27674   0.88626   0.57247   0.00000  Uiso   1.00
O1170  O     0.31569   0.84303   0.54514   0.00000  Uiso   1.00
C1171  C     0.06618   0.77229   0.54470   0.00000  Uiso   1.00
H1172  H     0.03464   0.77337   0.53241   0.00000  Uiso   1.00
O1173  O     0.07459   0.74854   0.57721   0.00000  Uiso   1.00
C1174  C     0.28411   0.81271   0.96053   0.00000  Uiso   1.00
H1175  H     0.31217   0.83231   0.96626   0.00000  Uiso   1.00
O1176  O     0.28486   0.77794   0.93728   0.00000  Uiso   1.00
Br1177 Br    0.04402   0.73260   0.77325   0.00000  Uiso   1.00
Br1178 Br    0.28872   0.93347   0.72328   0.00000  Uiso   1.00
Br1179 Br    0.28748   0.73322   0.72207   0.00000  Uiso   1.00
Br1180 Br    0.04491   0.93330   0.77593   0.00000  Uiso   1.00
Br1181 Br    0.10566   0.72223   0.67858   0.00000  Uiso   1.00
Br1182 Br    0.22850   0.94496   0.82035   0.00000  Uiso   1.00
Br1183 Br    0.22804   0.72340   0.82134   0.00000  Uiso   1.00
Br1184 Br    0.10528   0.94358   0.67867   0.00000  Uiso   1.00
C1185  C     0.42080   0.83327   0.75254   0.00000  Uiso   1.00
C1186  C     0.57903   0.83338   0.74641   0.00000  Uiso   1.00
C1187  C     0.43222   0.79769   0.52137   0.00000  Uiso   1.00
C1188  C     0.57856   0.82750   0.98026   0.00000  Uiso   1.00
C1189  C     0.35386   0.79085   0.75332   0.00000  Uiso   1.00
C1190  C     0.64578   0.87559   0.74384   0.00000  Uiso   1.00
C1191  C     0.64533   0.79101   0.74307   0.00000  Uiso   1.00
C1192  C     0.35426   0.87551   0.75430   0.00000  Uiso   1.00
C1193  C     0.62376   0.83336   0.74263   0.00000  Uiso   1.00
C1194  C     0.37589   0.83317   0.75502   0.00000  Uiso   1.00
C1195  C     0.47499   0.69111   0.72080   0.00000  Uiso   1.00
C1196  C     0.52515   0.97567   0.77899   0.00000  Uiso   1.00
C1197  C     0.52509   0.69164   0.77913   0.00000  Uiso   1.00
C1198  C     0.47492   0.97511   0.72084   0.00000  Uiso   1.00
C1199  C     0.50022   0.83321   0.66466   0.00000  Uiso   1.00
C1200  C     0.50011   0.83322   0.83548   0.00000  Uiso   1.00
C1201  C     0.53940   0.83390   0.90767   0.00000  Uiso   1.00
C1202  C     0.46481   0.82939   0.59090   0.00000  Uiso   1.00
C1203  C     0.50132   0.83158   0.88413   0.00000  Uiso   1.00
C1204  C     0.50159   0.83231   0.61631   0.00000  Uiso   1.00
C1205  C     0.46486   0.82365   0.90641   0.00000  Uiso   1.00
C1206  C     0.53962   0.82901   0.59613   0.00000  Uiso   1.00
C1207  C     0.46664   0.81428   0.95243   0.00000  Uiso   1.00
C1208  C     0.54095   0.83003   0.54898   0.00000  Uiso   1.00
C1209  C     0.50396   0.82154   0.97692   0.00000  Uiso   1.00
C1210  C     0.50391   0.82249   0.52380   0.00000  Uiso   1.00
C1211  C     0.54110   0.82754   0.95465   0.00000  Uiso   1.00
C1212  C     0.46634   0.81720   0.54544   0.00000  Uiso   1.00
C1213  C     0.43256   0.79577   0.97460   0.00000  Uiso   1.00
C1214  C     0.57808   0.83598   0.52642   0.00000  Uiso   1.00
Cu1215 Cu    0.50000   0.88022   0.75000   0.00000  Uiso   1.00
Cu1216 Cu    0.50000   0.78645   0.75000   0.00000  Uiso   1.00
N1217  N     0.50000   0.95069   0.75000   0.00000  Uiso   1.00
N1218  N     0.50000   0.71598   0.75000   0.00000  Uiso   1.00
O1219  O     0.43988   0.87291   0.75000   0.00000  Uiso   1.00
O1220  O     0.56012   0.79375   0.75000   0.00000  Uiso   1.00
O1221  O     0.56012   0.87291   0.75000   0.00000  Uiso   1.00
O1222  O     0.43988   0.79375   0.75000   0.00000  Uiso   1.00
O1223  O     0.49999   0.87293   0.68513   0.00000  Uiso   1.00
O1224  O     0.50001   0.79373   0.81487   0.00000  Uiso   1.00
O1225  O     0.50001   0.87293   0.81487   0.00000  Uiso   1.00
O1226  O     0.49999   0.79373   0.68513   0.00000  Uiso   1.00
C1227  C     0.57571   0.84876   0.88274   0.00000  Uiso   1.00
H1228  H     0.58138   0.83378   0.85044   0.00000  Uiso   1.00
O1229  O     0.59831   0.87962   0.89710   0.00000  Uiso   1.00
C1230  C     0.42562   0.84180   0.61177   0.00000  Uiso   1.00
H1231  H     0.42136   0.83557   0.64683   0.00000  Uiso   1.00
O1232  O     0.39827   0.86099   0.59022   0.00000  Uiso   1.00
C1233  C     0.42452   0.83179   0.88333   0.00000  Uiso   1.00
H1234  H     0.40095   0.85057   0.90030   0.00000  Uiso   1.00
O1235  O     0.41645   0.81552   0.84665   0.00000  Uiso   1.00
C1236  C     0.57665   0.82033   0.62506   0.00000  Uiso   1.00
H1237  H     0.58224   0.84073   0.65497   0.00000  Uiso   1.00
O1238  O     0.60024   0.78915   0.61638   0.00000  Uiso   1.00
C1239  C     0.40063   0.76772   0.94995   0.00000  Uiso   1.00
H1240  H     0.36875   0.77016   0.95815   0.00000  Uiso   1.00
O1241  O     0.41010   0.74052   0.92091   0.00000  Uiso   1.00
C1242  C     0.61447   0.85768   0.54959   0.00000  Uiso   1.00
H1243  H     0.61007   0.88626   0.57247   0.00000  Uiso   1.00
O1244  O     0.64902   0.84303   0.54514   0.00000  Uiso   1.00
C1245  C     0.39951   0.77229   0.54470   0.00000  Uiso   1.00
H1246  H     0.36797   0.77337   0.53241   0.00000  Uiso   1.00
O1247  O     0.40793   0.74854   0.57721   0.00000  Uiso   1.00
C1248  C     0.61745   0.81271   0.96053   0.00000  Uiso   1.00
H1249  H     0.64551   0.83231   0.96626   0.00000  Uiso   1.00
O1250  O     0.61819   0.77794   0.93728   0.00000  Uiso   1.00
Br1251 Br    0.37736   0.73260   0.77325   0.00000  Uiso   1.00
Br1252 Br    0.62206   0.93347   0.72328   0.00000  Uiso   1.00
Br1253 Br    0.62082   0.73322   0.72207   0.00000  Uiso   1.00
Br1254 Br    0.37824   0.93330   0.77593   0.00000  Uiso   1.00
Br1255 Br    0.43899   0.72223   0.67858   0.00000  Uiso   1.00
Br1256 Br    0.56183   0.94496   0.82035   0.00000  Uiso   1.00
Br1257 Br    0.56137   0.72340   0.82134   0.00000  Uiso   1.00
Br1258 Br    0.43861   0.94358   0.67867   0.00000  Uiso   1.00
C1259  C     0.75413   0.83327   0.75254   0.00000  Uiso   1.00
C1260  C     0.91236   0.83338   0.74641   0.00000  Uiso   1.00
C1261  C     0.76555   0.79769   0.52137   0.00000  Uiso   1.00
C1262  C     0.91189   0.82750   0.98026   0.00000  Uiso   1.00
C1263  C     0.68719   0.79085   0.75332   0.00000  Uiso   1.00
C1264  C     0.97911   0.87559   0.74384   0.00000  Uiso   1.00
C1265  C     0.97866   0.79101   0.74307   0.00000  Uiso   1.00
C1266  C     0.68759   0.87551   0.75430   0.00000  Uiso   1.00
C1267  C     0.95710   0.83336   0.74263   0.00000  Uiso   1.00
C1268  C     0.70923   0.83317   0.75502   0.00000  Uiso   1.00
C1269  C     0.80832   0.69111   0.72080   0.00000  Uiso   1.00
C1270  C     0.85848   0.97567   0.77899   0.00000  Uiso   1.00
C1271  C     0.85842   0.69164   0.77913   0.00000  Uiso   1.00
C1272  C     0.80825   0.97511   0.72084   0.00000  Uiso   1.00
C1273  C     0.83355   0.83321   0.66466   0.00000  Uiso   1.00
C1274  C     0.83344   0.83322   0.83548   0.00000  Uiso   1.00
C1275  C     0.87273   0.83390   0.90767   0.00000  Uiso   1.00
C1276  C     0.79814   0.82939   0.59090   0.00000  Uiso   1.00
C1277  C     0.83466   0.83158   0.88413   0.00000  Uiso   1.00
C1278  C     0.83492   0.83231   0.61631   0.00000  Uiso   1.00
C1279  C     0.79819   0.82365   0.90641   0.00000  Uiso   1.00
C1280  C     0.87295   0.82901   0.59613   0.00000  Uiso   1.00
C1281  C     0.79997   0.81428   0.95243   0.00000  Uiso   1.00
C1282  C     0.87428   0.83003   0.54898   0.00000  Uiso   1.00
C1283  C     0.83729   0.82154   0.97692   0.00000  Uiso   1.00
C1284  C     0.83724   0.82249   0.52380   0.00000  Uiso   1.00
C1285  C     0.87444   0.82754   0.95465   0.00000  Uiso   1.00
C1286  C     0.79967   0.81720   0.54544   0.00000  Uiso   1.00
C1287  C     0.76590   0.79577   0.97460   0.00000  Uiso   1.00
C1288  C     0.91141   0.83598   0.52642   0.00000  Uiso   1.00
Cu1289 Cu    0.83333   0.88022   0.75000   0.00000  Uiso   1.00
Cu1290 Cu    0.83333   0.78645   0.75000   0.00000  Uiso   1.00
N1291  N     0.83333   0.95069   0.75000   0.00000  Uiso   1.00
N1292  N     0.83333   0.71598   0.75000   0.00000  Uiso   1.00
O1293  O     0.77321   0.87291   0.75000   0.00000  Uiso   1.00
O1294  O     0.89345   0.79375   0.75000   0.00000  Uiso   1.00
O1295  O     0.89345   0.87291   0.75000   0.00000  Uiso   1.00
O1296  O     0.77321   0.79375   0.75000   0.00000  Uiso   1.00
O1297  O     0.83332   0.87293   0.68513   0.00000  Uiso   1.00
O1298  O     0.83334   0.79373   0.81487   0.00000  Uiso   1.00
O1299  O     0.83334   0.87293   0.81487   0.00000  Uiso   1.00
O1300  O     0.83332   0.79373   0.68513   0.00000  Uiso   1.00
C1301  C     0.90904   0.84876   0.88274   0.00000  Uiso   1.00
H1302  H     0.91472   0.83378   0.85044   0.00000  Uiso   1.00
O1303  O     0.93165   0.87962   0.89710   0.00000  Uiso   1.00
C1304  C     0.75895   0.84180   0.61177   0.00000  Uiso   1.00
H1305  H     0.75470   0.83557   0.64683   0.00000  Uiso   1.00
O1306  O     0.73160   0.86099   0.59022   0.00000  Uiso   1.00
C1307  C     0.75785   0.83179   0.88333   0.00000  Uiso   1.00
H1308  H     0.73428   0.85057   0.90030   0.00000  Uiso   1.00
O1309  O     0.74978   0.81552   0.84665   0.00000  Uiso   1.00
C1310  C     0.90998   0.82033   0.62506   0.00000  Uiso   1.00
H1311  H     0.91558   0.84073   0.65497   0.00000  Uiso   1.00
O1312  O     0.93357   0.78915   0.61638   0.00000  Uiso   1.00
C1313  C     0.73396   0.76772   0.94995   0.00000  Uiso   1.00
H1314  H     0.70208   0.77016   0.95815   0.00000  Uiso   1.00
O1315  O     0.74343   0.74052   0.92091   0.00000  Uiso   1.00
C1316  C     0.94781   0.85768   0.54959   0.00000  Uiso   1.00
H1317  H     0.94341   0.88626   0.57247   0.00000  Uiso   1.00
O1318  O     0.98235   0.84303   0.54514   0.00000  Uiso   1.00
C1319  C     0.73285   0.77229   0.54470   0.00000  Uiso   1.00
H1320  H     0.70130   0.77337   0.53241   0.00000  Uiso   1.00
O1321  O     0.74126   0.74854   0.57721   0.00000  Uiso   1.00
C1322  C     0.95078   0.81271   0.96053   0.00000  Uiso   1.00
H1323  H     0.97884   0.83231   0.96626   0.00000  Uiso   1.00
O1324  O     0.95152   0.77794   0.93728   0.00000  Uiso   1.00
Br1325 Br    0.71069   0.73260   0.77325   0.00000  Uiso   1.00
Br1326 Br    0.95539   0.93347   0.72328   0.00000  Uiso   1.00
Br1327 Br    0.95415   0.73322   0.72207   0.00000  Uiso   1.00
Br1328 Br    0.71158   0.93330   0.77593   0.00000  Uiso   1.00
Br1329 Br    0.77233   0.72223   0.67858   0.00000  Uiso   1.00
Br1330 Br    0.89517   0.94496   0.82035   0.00000  Uiso   1.00
Br1331 Br    0.89470   0.72340   0.82134   0.00000  Uiso   1.00
Br1332 Br    0.77195   0.94358   0.67867   0.00000  Uiso   1.00
loop_
_geom_bond_atom_site_label_1
_geom_bond_atom_site_label_2
_geom_bond_distance
_geom_bond_site_symmetry_2
_ccdc_geom_bond_type
C1     O38     1.305   .     A
C1     O35     1.304   .     A
C1     C10     1.472   .     S
C2     O36     1.303   .     A
C2     O37     1.306   .     A
C2     C9      1.471   .     S
C3     C28     1.420   .     A
C3     C61     1.491   .     S
C3     C695    1.409   1_554 S
C4     C27     1.422   .     A
C4     C64     1.486   .     S
C4     C696    1.410   .     S
C5     Br67    1.939   .     S
C5     C10     1.414   .     A
C5     C155    1.391   1_455 S
C6     C9      1.411   .     A
C6     Br68    1.938   .     S
C6     C82     1.391   .     S
C7     C9      1.413   .     A
C7     Br69    1.939   .     S
C7     C79     1.391   .     S
C8     Br70    1.938   .     S
C8     C10     1.414   .     A
C8     C154    1.391   1_455 S
C11    Br71    1.926   .     S
C11    N34     1.375   .     A
C11    C458    1.423   1_545 S
C12    Br72    1.918   .     S
C12    N33     1.375   .     A
C12    C235    1.422   .     S
C13    Br73    1.931   .     S
C13    N34     1.375   .     A
C13    C456    1.422   1_545 S
C14    Br74    1.927   .     S
C14    N33     1.377   .     A
C14    C233    1.423   .     S
C15    C20     1.457   .     S
C15    O39     1.299   .     A
C15    O42     1.297   .     A
C16    O40     1.295   .     A
C16    C19     1.464   .     S
C16    O41     1.304   .     A
C17    C27     1.425   .     A
C17    C43     1.490   .     S
C17    C19     1.410   .     A
C18    C46     1.492   .     S
C18    C28     1.414   .     A
C18    C20     1.403   .     A
C19    C21     1.407   .     A
C20    C22     1.407   .     A
C21    C49     1.487   .     S
C21    C23     1.411   .     A
C22    C24     1.422   .     A
C22    C52     1.487   .     S
C23    C29     1.422   .     A
C23    C25     1.416   .     A
C24    C26     1.420   .     A
C24    C30     1.423   .     A
C25    C27     1.419   .     A
C25    C692    1.411   .     S
C26    C28     1.419   .     A
C26    C691    1.411   1_554 S
C29    C55     1.491   .     S
C29    C669    1.409   .     S
C30    C58     1.490   .     S
C30    C670    1.410   1_554 S
Cu31   N33     2.032   .     S
Cu31   O37     1.977   .     S
Cu31   Cu32    2.704   .     S
Cu31   O41     1.964   .     S
Cu31   O35     1.975   .     S
Cu31   O39     1.963   .     S
Cu32   O36     1.975   .     S
Cu32   O38     1.977   .     S
Cu32   N34     2.032   .     S
Cu32   O40     1.963   .     S
Cu32   O42     1.964   .     S
C43    H44     1.085   .     S
C43    O45     1.221   .     D
C46    O48     1.221   .     D
C46    H47     1.085   .     S
C49    O51     1.217   .     D
C49    H50     1.086   .     S
C52    O54     1.221   .     D
C52    H53     1.083   .     S
C55    H56     1.082   .     S
C55    O57     1.222   .     D
C58    O60     1.219   .     D
C58    H59     1.086   .     S
C61    O63     1.220   .     D
C61    H62     1.083   .     S
C64    H65     1.083   .     S
C64    O66     1.221   .     D
C75    O112    1.305   .     A
C75    O109    1.304   .     A
C75    C84     1.472   .     S
C76    O110    1.303   .     A
C76    O111    1.306   .     A
C76    C83     1.471   .     S
C77    C102    1.420   .     A
C77    C135    1.491   .     S
C77    C769    1.409   1_554 S
C78    C101    1.422   .     A
C78    C138    1.486   .     S
C78    C770    1.410   .     S
C79    Br141   1.939   .     S
C79    C84     1.414   .     A
C80    C83     1.411   .     A
C80    Br142   1.938   .     S
C80    C156    1.391   .     S
C81    C83     1.413   .     A
C81    Br143   1.939   .     S
C81    C153    1.391   .     S
C82    Br144   1.938   .     S
C82    C84     1.414   .     A
C85    Br145   1.926   .     S
C85    N108    1.375   .     A
C85    C532    1.423   1_545 S
C86    Br146   1.918   .     S
C86    N107    1.375   .     A
C86    C309    1.422   .     S
C87    Br147   1.931   .     S
C87    N108    1.375   .     A
C87    C530    1.422   1_545 S
C88    Br148   1.927   .     S
C88    N107    1.377   .     A
C88    C307    1.423   .     S
C89    C94     1.457   .     S
C89    O113    1.299   .     A
C89    O116    1.297   .     A
C90    O114    1.295   .     A
C90    C93     1.464   .     S
C90    O115    1.304   .     A
C91    C101    1.425   .     A
C91    C117    1.490   .     S
C91    C93     1.410   .     A
C92    C120    1.492   .     S
C92    C102    1.414   .     A
C92    C94     1.403   .     A
C93    C95     1.407   .     A
C94    C96     1.407   .     A
C95    C123    1.487   .     S
C95    C97     1.411   .     A
C96    C98     1.422   .     A
C96    C126    1.487   .     S
C97    C103    1.422   .     A
C97    C99     1.416   .     A
C98    C100    1.420   .     A
C98    C104    1.423   .     A
C99    C101    1.419   .     A
C99    C766    1.411   .     S
C100   C102    1.419   .     A
C100   C765    1.411   1_554 S
C103   C129    1.491   .     S
C103   C743    1.409   .     S
C104   C132    1.490   .     S
C104   C744    1.410   1_554 S
Cu105  N107    2.032   .     S
Cu105  O111    1.977   .     S
Cu105  Cu106   2.704   .     S
Cu105  O115    1.964   .     S
Cu105  O109    1.975   .     S
Cu105  O113    1.963   .     S
Cu106  O110    1.975   .     S
Cu106  O112    1.977   .     S
Cu106  N108    2.032   .     S
Cu106  O114    1.963   .     S
Cu106  O116    1.964   .     S
C117   H118    1.085   .     S
C117   O119    1.221   .     D
C120   O122    1.221   .     D
C120   H121    1.085   .     S
C123   O125    1.217   .     D
C123   H124    1.086   .     S
C126   O128    1.221   .     D
C126   H127    1.083   .     S
C129   H130    1.082   .     S
C129   O131    1.222   .     D
C132   O134    1.219   .     D
C132   H133    1.086   .     S
C135   O137    1.220   .     D
C135   H136    1.083   .     S
C138   H139    1.083   .     S
C138   O140    1.221   .     D
C149   O186    1.305   .     A
C149   O183    1.304   .     A
C149   C158    1.472   .     S
C150   O184    1.303   .     A
C150   O185    1.306   .     A
C150   C157    1.471   .     S
C151   C176    1.420   .     A
C151   C209    1.491   .     S
C151   C843    1.409   1_554 S
C152   C175    1.422   .     A
C152   C212    1.486   .     S
C152   C844    1.410   .     S
C153   Br215   1.939   .     S
C153   C158    1.414   .     A
C154   C157    1.411   .     A
C154   Br216   1.938   .     S
C154   C8      1.391   1_655 S
C155   C157    1.413   .     A
C155   Br217   1.939   .     S
C155   C5      1.391   1_655 S
C156   Br218   1.938   .     S
C156   C158    1.414   .     A
C159   Br219   1.926   .     S
C159   N182    1.375   .     A
C159   C606    1.423   1_545 S
C160   Br220   1.918   .     S
C160   N181    1.375   .     A
C160   C383    1.422   .     S
C161   Br221   1.931   .     S
C161   N182    1.375   .     A
C161   C604    1.422   1_545 S
C162   Br222   1.927   .     S
C162   N181    1.377   .     A
C162   C381    1.423   .     S
C163   C168    1.457   .     S
C163   O187    1.299   .     A
C163   O190    1.297   .     A
C164   O188    1.295   .     A
C164   C167    1.464   .     S
C164   O189    1.304   .     A
C165   C175    1.425   .     A
C165   C191    1.490   .     S
C165   C167    1.410   .     A
C166   C194    1.492   .     S
C166   C176    1.414   .     A
C166   C168    1.403   .     A
C167   C169    1.407   .     A
C168   C170    1.407   .     A
C169   C197    1.487   .     S
C169   C171    1.411   .     A
C170   C172    1.422   .     A
C170   C200    1.487   .     S
C171   C177    1.422   .     A
C171   C173    1.416   .     A
C172   C174    1.420   .     A
C172   C178    1.423   .     A
C173   C175    1.419   .     A
C173   C840    1.411   .     S
C174   C176    1.419   .     A
C174   C839    1.411   1_554 S
C177   C203    1.491   .     S
C177   C817    1.409   .     S
C178   C206    1.490   .     S
C178   C818    1.410   1_554 S
Cu179  N181    2.032   .     S
Cu179  O185    1.977   .     S
Cu179  Cu180   2.704   .     S
Cu179  O189    1.964   .     S
Cu179  O183    1.975   .     S
Cu179  O187    1.963   .     S
Cu180  O184    1.975   .     S
Cu180  O186    1.977   .     S
Cu180  N182    2.032   .     S
Cu180  O188    1.963   .     S
Cu180  O190    1.964   .     S
C191   H192    1.085   .     S
C191   O193    1.221   .     D
C194   O196    1.221   .     D
C194   H195    1.085   .     S
C197   O199    1.217   .     D
C197   H198    1.086   .     S
C200   O202    1.221   .     D
C200   H201    1.083   .     S
C203   H204    1.082   .     S
C203   O205    1.222   .     D
C206   O208    1.219   .     D
C206   H207    1.086   .     S
C209   O211    1.220   .     D
C209   H210    1.083   .     S
C212   H213    1.083   .     S
C212   O214    1.221   .     D
C223   O260    1.305   .     A
C223   O257    1.304   .     A
C223   C232    1.472   .     S
C224   O258    1.303   .     A
C224   O259    1.306   .     A
C224   C231    1.471   .     S
C225   C250    1.420   .     A
C225   C283    1.491   .     S
C225   C917    1.409   1_554 S
C226   C249    1.422   .     A
C226   C286    1.486   .     S
C226   C918    1.410   .     S
C227   Br289   1.939   .     S
C227   C232    1.414   .     A
C227   C377    1.391   1_455 S
C228   C231    1.411   .     A
C228   Br290   1.938   .     S
C228   C304    1.391   .     S
C229   C231    1.413   .     A
C229   Br291   1.939   .     S
C229   C301    1.391   .     S
C230   Br292   1.938   .     S
C230   C232    1.414   .     A
C230   C376    1.391   1_455 S
C233   Br293   1.926   .     S
C233   N256    1.375   .     A
C234   Br294   1.918   .     S
C234   N255    1.375   .     A
C234   C457    1.422   .     S
C235   Br295   1.931   .     S
C235   N256    1.375   .     A
C236   Br296   1.927   .     S
C236   N255    1.377   .     A
C236   C455    1.423   .     S
C237   C242    1.457   .     S
C237   O261    1.299   .     A
C237   O264    1.297   .     A
C238   O262    1.295   .     A
C238   C241    1.464   .     S
C238   O263    1.304   .     A
C239   C249    1.425   .     A
C239   C265    1.490   .     S
C239   C241    1.410   .     A
C240   C268    1.492   .     S
C240   C250    1.414   .     A
C240   C242    1.403   .     A
C241   C243    1.407   .     A
C242   C244    1.407   .     A
C243   C271    1.487   .     S
C243   C245    1.411   .     A
C244   C246    1.422   .     A
C244   C274    1.487   .     S
C245   C251    1.422   .     A
C245   C247    1.416   .     A
C246   C248    1.420   .     A
C246   C252    1.423   .     A
C247   C249    1.419   .     A
C247   C914    1.411   .     S
C248   C250    1.419   .     A
C248   C913    1.411   1_554 S
C251   C277    1.491   .     S
C251   C891    1.409   .     S
C252   C280    1.490   .     S
C252   C892    1.410   1_554 S
Cu253  N255    2.032   .     S
Cu253  O259    1.977   .     S
Cu253  Cu254   2.704   .     S
Cu253  O263    1.964   .     S
Cu253  O257    1.975   .     S
Cu253  O261    1.963   .     S
Cu254  O258    1.975   .     S
Cu254  O260    1.977   .     S
Cu254  N256    2.032   .     S
Cu254  O262    1.963   .     S
Cu254  O264    1.964   .     S
C265   H266    1.085   .     S
C265   O267    1.221   .     D
C268   O270    1.221   .     D
C268   H269    1.085   .     S
C271   O273    1.217   .     D
C271   H272    1.086   .     S
C274   O276    1.221   .     D
C274   H275    1.083   .     S
C277   H278    1.082   .     S
C277   O279    1.222   .     D
C280   O282    1.219   .     D
C280   H281    1.086   .     S
C283   O285    1.220   .     D
C283   H284    1.083   .     S
C286   H287    1.083   .     S
C286   O288    1.221   .     D
C297   O334    1.305   .     A
C297   O331    1.304   .     A
C297   C306    1.472   .     S
C298   O332    1.303   .     A
C298   O333    1.306   .     A
C298   C305    1.471   .     S
C299   C324    1.420   .     A
C299   C357    1.491   .     S
C299   C991    1.409   1_554 S
C300   C323    1.422   .     A
C300   C360    1.486   .     S
C300   C992    1.410   .     S
C301   Br363   1.939   .     S
C301   C306    1.414   .     A
C302   C305    1.411   .     A
C302   Br364   1.938   .     S
C302   C378    1.391   .     S
C303   C305    1.413   .     A
C303   Br365   1.939   .     S
C303   C375    1.391   .     S
C304   Br366   1.938   .     S
C304   C306    1.414   .     A
C307   Br367   1.926   .     S
C307   N330    1.375   .     A
C308   Br368   1.918   .     S
C308   N329    1.375   .     A
C308   C531    1.422   .     S
C309   Br369   1.931   .     S
C309   N330    1.375   .     A
C310   Br370   1.927   .     S
C310   N329    1.377   .     A
C310   C529    1.423   .     S
C311   C316    1.457   .     S
C311   O335    1.299   .     A
C311   O338    1.297   .     A
C312   O336    1.295   .     A
C312   C315    1.464   .     S
C312   O337    1.304   .     A
C313   C323    1.425   .     A
C313   C339    1.490   .     S
C313   C315    1.410   .     A
C314   C342    1.492   .     S
C314   C324    1.414   .     A
C314   C316    1.403   .     A
C315   C317    1.407   .     A
C316   C318    1.407   .     A
C317   C345    1.487   .     S
C317   C319    1.411   .     A
C318   C320    1.422   .     A
C318   C348    1.487   .     S
C319   C325    1.422   .     A
C319   C321    1.416   .     A
C320   C322    1.420   .     A
C320   C326    1.423   .     A
C321   C323    1.419   .     A
C321   C988    1.411   .     S
C322   C324    1.419   .     A
C322   C987    1.411   1_554 S
C325   C351    1.491   .     S
C325   C965    1.409   .     S
C326   C354    1.490   .     S
C326   C966    1.410   1_554 S
Cu327  N329    2.032   .     S
Cu327  O333    1.977   .     S
Cu327  Cu328   2.704   .     S
Cu327  O337    1.964   .     S
Cu327  O331    1.975   .     S
Cu327  O335    1.963   .     S
Cu328  O332    1.975   .     S
Cu328  O334    1.977   .     S
Cu328  N330    2.032   .     S
Cu328  O336    1.963   .     S
Cu328  O338    1.964   .     S
C339   H340    1.085   .     S
C339   O341    1.221   .     D
C342   O344    1.221   .     D
C342   H343    1.085   .     S
C345   O347    1.217   .     D
C345   H346    1.086   .     S
C348   O350    1.221   .     D
C348   H349    1.083   .     S
C351   H352    1.082   .     S
C351   O353    1.222   .     D
C354   O356    1.219   .     D
C354   H355    1.086   .     S
C357   O359    1.220   .     D
C357   H358    1.083   .     S
C360   H361    1.083   .     S
C360   O362    1.221   .     D
C371   O408    1.305   .     A
C371   O405    1.304   .     A
C371   C380    1.472   .     S
C372   O406    1.303   .     A
C372   O407    1.306   .     A
C372   C379    1.471   .     S
C373   C398    1.420   .     A
C373   C431    1.491   .     S
C373   C1065   1.409   1_554 S
C374   C397    1.422   .     A
C374   C434    1.486   .     S
C374   C1066   1.410   .     S
C375   Br437   1.939   .     S
C375   C380    1.414   .     A
C376   C379    1.411   .     A
C376   Br438   1.938   .     S
C376   C230    1.391   1_655 S
C377   C379    1.413   .     A
C377   Br439   1.939   .     S
C377   C227    1.391   1_655 S
C378   Br440   1.938   .     S
C378   C380    1.414   .     A
C381   Br441   1.926   .     S
C381   N404    1.375   .     A
C382   Br442   1.918   .     S
C382   N403    1.375   .     A
C382   C605    1.422   .     S
C383   Br443   1.931   .     S
C383   N404    1.375   .     A
C384   Br444   1.927   .     S
C384   N403    1.377   .     A
C384   C603    1.423   .     S
C385   C390    1.457   .     S
C385   O409    1.299   .     A
C385   O412    1.297   .     A
C386   O410    1.295   .     A
C386   C389    1.464   .     S
C386   O411    1.304   .     A
C387   C397    1.425   .     A
C387   C413    1.490   .     S
C387   C389    1.410   .     A
C388   C416    1.492   .     S
C388   C398    1.414   .     A
C388   C390    1.403   .     A
C389   C391    1.407   .     A
C390   C392    1.407   .     A
C391   C419    1.487   .     S
C391   C393    1.411   .     A
C392   C394    1.422   .     A
C392   C422    1.487   .     S
C393   C399    1.422   .     A
C393   C395    1.416   .     A
C394   C396    1.420   .     A
C394   C400    1.423   .     A
C395   C397    1.419   .     A
C395   C1062   1.411   .     S
C396   C398    1.419   .     A
C396   C1061   1.411   1_554 S
C399   C425    1.491   .     S
C399   C1039   1.409   .     S
C400   C428    1.490   .     S
C400   C1040   1.410   1_554 S
Cu401  N403    2.032   .     S
Cu401  O407    1.977   .     S
Cu401  Cu402   2.704   .     S
Cu401  O411    1.964   .     S
Cu401  O405    1.975   .     S
Cu401  O409    1.963   .     S
Cu402  O406    1.975   .     S
Cu402  O408    1.977   .     S
Cu402  N404    2.032   .     S
Cu402  O410    1.963   .     S
Cu402  O412    1.964   .     S
C413   H414    1.085   .     S
C413   O415    1.221   .     D
C416   O418    1.221   .     D
C416   H417    1.085   .     S
C419   O421    1.217   .     D
C419   H420    1.086   .     S
C422   O424    1.221   .     D
C422   H423    1.083   .     S
C425   H426    1.082   .     S
C425   O427    1.222   .     D
C428   O430    1.219   .     D
C428   H429    1.086   .     S
C431   O433    1.220   .     D
C431   H432    1.083   .     S
C434   H435    1.083   .     S
C434   O436    1.221   .     D
C445   O482    1.305   .     A
C445   O479    1.304   .     A
C445   C454    1.472   .     S
C446   O480    1.303   .     A
C446   O481    1.306   .     A
C446   C453    1.471   .     S
C447   C472    1.420   .     A
C447   C505    1.491   .     S
C447   C1139   1.409   1_554 S
C448   C471    1.422   .     A
C448   C508    1.486   .     S
C448   C1140   1.410   .     S
C449   Br511   1.939   .     S
C449   C454    1.414   .     A
C449   C599    1.391   1_455 S
C450   C453    1.411   .     A
C450   Br512   1.938   .     S
C450   C526    1.391   .     S
C451   C453    1.413   .     A
C451   Br513   1.939   .     S
C451   C523    1.391   .     S
C452   Br514   1.938   .     S
C452   C454    1.414   .     A
C452   C598    1.391   1_455 S
C455   Br515   1.926   .     S
C455   N478    1.375   .     A
C456   Br516   1.918   .     S
C456   N477    1.375   .     A
C456   C13     1.422   1_565 S
C457   Br517   1.931   .     S
C457   N478    1.375   .     A
C458   Br518   1.927   .     S
C458   N477    1.377   .     A
C458   C11     1.423   1_565 S
C459   C464    1.457   .     S
C459   O483    1.299   .     A
C459   O486    1.297   .     A
C460   O484    1.295   .     A
C460   C463    1.464   .     S
C460   O485    1.304   .     A
C461   C471    1.425   .     A
C461   C487    1.490   .     S
C461   C463    1.410   .     A
C462   C490    1.492   .     S
C462   C472    1.414   .     A
C462   C464    1.403   .     A
C463   C465    1.407   .     A
C464   C466    1.407   .     A
C465   C493    1.487   .     S
C465   C467    1.411   .     A
C466   C468    1.422   .     A
C466   C496    1.487   .     S
C467   C473    1.422   .     A
C467   C469    1.416   .     A
C468   C470    1.420   .     A
C468   C474    1.423   .     A
C469   C471    1.419   .     A
C469   C1136   1.411   .     S
C470   C472    1.419   .     A
C470   C1135   1.411   1_554 S
C473   C499    1.491   .     S
C473   C1113   1.409   .     S
C474   C502    1.490   .     S
C474   C1114   1.410   1_554 S
Cu475  N477    2.032   .     S
Cu475  O481    1.977   .     S
Cu475  Cu476   2.704   .     S
Cu475  O485    1.964   .     S
Cu475  O479    1.975   .     S
Cu475  O483    1.963   .     S
Cu476  O480    1.975   .     S
Cu476  O482    1.977   .     S
Cu476  N478    2.032   .     S
Cu476  O484    1.963   .     S
Cu476  O486    1.964   .     S
C487   H488    1.085   .     S
C487   O489    1.221   .     D
C490   O492    1.221   .     D
C490   H491    1.085   .     S
C493   O495    1.217   .     D
C493   H494    1.086   .     S
C496   O498    1.221   .     D
C496   H497    1.083   .     S
C499   H500    1.082   .     S
C499   O501    1.222   .     D
C502   O504    1.219   .     D
C502   H503    1.086   .     S
C505   O507    1.220   .     D
C505   H506    1.083   .     S
C508   H509    1.083   .     S
C508   O510    1.221   .     D
C519   O556    1.305   .     A
C519   O553    1.304   .     A
C519   C528    1.472   .     S
C520   O554    1.303   .     A
C520   O555    1.306   .     A
C520   C527    1.471   .     S
C521   C546    1.420   .     A
C521   C579    1.491   .     S
C521   C1213   1.409   1_554 S
C522   C545    1.422   .     A
C522   C582    1.486   .     S
C522   C1214   1.410   .     S
C523   Br585   1.939   .     S
C523   C528    1.414   .     A
C524   C527    1.411   .     A
C524   Br586   1.938   .     S
C524   C600    1.391   .     S
C525   C527    1.413   .     A
C525   Br587   1.939   .     S
C525   C597    1.391   .     S
C526   Br588   1.938   .     S
C526   C528    1.414   .     A
C529   Br589   1.926   .     S
C529   N552    1.375   .     A
C530   Br590   1.918   .     S
C530   N551    1.375   .     A
C530   C87     1.422   1_565 S
C531   Br591   1.931   .     S
C531   N552    1.375   .     A
C532   Br592   1.927   .     S
C532   N551    1.377   .     A
C532   C85     1.423   1_565 S
C533   C538    1.457   .     S
C533   O557    1.299   .     A
C533   O560    1.297   .     A
C534   O558    1.295   .     A
C534   C537    1.464   .     S
C534   O559    1.304   .     A
C535   C545    1.425   .     A
C535   C561    1.490   .     S
C535   C537    1.410   .     A
C536   C564    1.492   .     S
C536   C546    1.414   .     A
C536   C538    1.403   .     A
C537   C539    1.407   .     A
C538   C540    1.407   .     A
C539   C567    1.487   .     S
C539   C541    1.411   .     A
C540   C542    1.422   .     A
C540   C570    1.487   .     S
C541   C547    1.422   .     A
C541   C543    1.416   .     A
C542   C544    1.420   .     A
C542   C548    1.423   .     A
C543   C545    1.419   .     A
C543   C1210   1.411   .     S
C544   C546    1.419   .     A
C544   C1209   1.411   1_554 S
C547   C573    1.491   .     S
C547   C1187   1.409   .     S
C548   C576    1.490   .     S
C548   C1188   1.410   1_554 S
Cu549  N551    2.032   .     S
Cu549  O555    1.977   .     S
Cu549  Cu550   2.704   .     S
Cu549  O559    1.964   .     S
Cu549  O553    1.975   .     S
Cu549  O557    1.963   .     S
Cu550  O554    1.975   .     S
Cu550  O556    1.977   .     S
Cu550  N552    2.032   .     S
Cu550  O558    1.963   .     S
Cu550  O560    1.964   .     S
C561   H562    1.085   .     S
C561   O563    1.221   .     D
C564   O566    1.221   .     D
C564   H565    1.085   .     S
C567   O569    1.217   .     D
C567   H568    1.086   .     S
C570   O572    1.221   .     D
C570   H571    1.083   .     S
C573   H574    1.082   .     S
C573   O575    1.222   .     D
C576   O578    1.219   .     D
C576   H577    1.086   .     S
C579   O581    1.220   .     D
C579   H580    1.083   .     S
C582   H583    1.083   .     S
C582   O584    1.221   .     D
C593   O630    1.305   .     A
C593   O627    1.304   .     A
C593   C602    1.472   .     S
C594   O628    1.303   .     A
C594   O629    1.306   .     A
C594   C601    1.471   .     S
C595   C620    1.420   .     A
C595   C653    1.491   .     S
C595   C1287   1.409   1_554 S
C596   C619    1.422   .     A
C596   C656    1.486   .     S
C596   C1288   1.410   .     S
C597   Br659   1.939   .     S
C597   C602    1.414   .     A
C598   C601    1.411   .     A
C598   Br660   1.938   .     S
C598   C452    1.391   1_655 S
C599   C601    1.413   .     A
C599   Br661   1.939   .     S
C599   C449    1.391   1_655 S
C600   Br662   1.938   .     S
C600   C602    1.414   .     A
C603   Br663   1.926   .     S
C603   N626    1.375   .     A
C604   Br664   1.918   .     S
C604   N625    1.375   .     A
C604   C161    1.422   1_565 S
C605   Br665   1.931   .     S
C605   N626    1.375   .     A
C606   Br666   1.927   .     S
C606   N625    1.377   .     A
C606   C159    1.423   1_565 S
C607   C612    1.457   .     S
C607   O631    1.299   .     A
C607   O634    1.297   .     A
C608   O632    1.295   .     A
C608   C611    1.464   .     S
C608   O633    1.304   .     A
C609   C619    1.425   .     A
C609   C635    1.490   .     S
C609   C611    1.410   .     A
C610   C638    1.492   .     S
C610   C620    1.414   .     A
C610   C612    1.403   .     A
C611   C613    1.407   .     A
C612   C614    1.407   .     A
C613   C641    1.487   .     S
C613   C615    1.411   .     A
C614   C616    1.422   .     A
C614   C644    1.487   .     S
C615   C621    1.422   .     A
C615   C617    1.416   .     A
C616   C618    1.420   .     A
C616   C622    1.423   .     A
C617   C619    1.419   .     A
C617   C1284   1.411   .     S
C618   C620    1.419   .     A
C618   C1283   1.411   1_554 S
C621   C647    1.491   .     S
C621   C1261   1.409   .     S
C622   C650    1.490   .     S
C622   C1262   1.410   1_554 S
Cu623  N625    2.032   .     S
Cu623  O629    1.977   .     S
Cu623  Cu624   2.704   .     S
Cu623  O633    1.964   .     S
Cu623  O627    1.975   .     S
Cu623  O631    1.963   .     S
Cu624  O628    1.975   .     S
Cu624  O630    1.977   .     S
Cu624  N626    2.032   .     S
Cu624  O632    1.963   .     S
Cu624  O634    1.964   .     S
C635   H636    1.085   .     S
C635   O637    1.221   .     D
C638   O640    1.221   .     D
C638   H639    1.085   .     S
C641   O643    1.217   .     D
C641   H642    1.086   .     S
C644   O646    1.221   .     D
C644   H645    1.083   .     S
C647   H648    1.082   .     S
C647   O649    1.222   .     D
C650   O652    1.219   .     D
C650   H651    1.086   .     S
C653   O655    1.220   .     D
C653   H654    1.083   .     S
C656   H657    1.083   .     S
C656   O658    1.221   .     D
C667   O704    1.305   .     A
C667   O701    1.304   .     A
C667   C676    1.472   .     S
C668   O702    1.303   .     A
C668   O703    1.306   .     A
C668   C675    1.471   .     S
C669   C694    1.420   .     A
C669   C727    1.491   .     S
C670   C693    1.422   .     A
C670   C730    1.486   .     S
C670   C30     1.410   1_556 S
C671   Br733   1.939   .     S
C671   C676    1.414   .     A
C671   C821    1.391   1_455 S
C672   C675    1.411   .     A
C672   Br734   1.938   .     S
C672   C748    1.391   .     S
C673   C675    1.413   .     A
C673   Br735   1.939   .     S
C673   C745    1.391   .     S
C674   Br736   1.938   .     S
C674   C676    1.414   .     A
C674   C820    1.391   1_455 S
C677   Br737   1.926   .     S
C677   N700    1.375   .     A
C677   C1124   1.423   1_545 S
C678   Br738   1.918   .     S
C678   N699    1.375   .     A
C678   C901    1.422   .     S
C679   Br739   1.931   .     S
C679   N700    1.375   .     A
C679   C1122   1.422   1_545 S
C680   Br740   1.927   .     S
C680   N699    1.377   .     A
C680   C899    1.423   .     S
C681   C686    1.457   .     S
C681   O705    1.299   .     A
C681   O708    1.297   .     A
C682   O706    1.295   .     A
C682   C685    1.464   .     S
C682   O707    1.304   .     A
C683   C693    1.425   .     A
C683   C709    1.490   .     S
C683   C685    1.410   .     A
C684   C712    1.492   .     S
C684   C694    1.414   .     A
C684   C686    1.403   .     A
C685   C687    1.407   .     A
C686   C688    1.407   .     A
C687   C715    1.487   .     S
C687   C689    1.411   .     A
C688   C690    1.422   .     A
C688   C718    1.487   .     S
C689   C695    1.422   .     A
C689   C691    1.416   .     A
C690   C692    1.420   .     A
C690   C696    1.423   .     A
C691   C693    1.419   .     A
C691   C26     1.411   1_556 S
C692   C694    1.419   .     A
C695   C721    1.491   .     S
C695   C3      1.409   1_556 S
C696   C724    1.490   .     S
Cu697  N699    2.032   .     S
Cu697  O703    1.977   .     S
Cu697  Cu698   2.704   .     S
Cu697  O707    1.964   .     S
Cu697  O701    1.975   .     S
Cu697  O705    1.963   .     S
Cu698  O702    1.975   .     S
Cu698  O704    1.977   .     S
Cu698  N700    2.032   .     S
Cu698  O706    1.963   .     S
Cu698  O708    1.964   .     S
C709   H710    1.085   .     S
C709   O711    1.221   .     D
C712   O714    1.221   .     D
C712   H713    1.085   .     S
C715   O717    1.217   .     D
C715   H716    1.086   .     S
C718   O720    1.221   .     D
C718   H719    1.083   .     S
C721   H722    1.082   .     S
C721   O723    1.222   .     D
C724   O726    1.219   .     D
C724   H725    1.086   .     S
C727   O729    1.220   .     D
C727   H728    1.083   .     S
C730   H731    1.083   .     S
C730   O732    1.221   .     D
C741   O778    1.305   .     A
C741   O775    1.304   .     A
C741   C750    1.472   .     S
C742   O776    1.303   .     A
C742   O777    1.306   .     A
C742   C749    1.471   .     S
C743   C768    1.420   .     A
C743   C801    1.491   .     S
C744   C767    1.422   .     A
C744   C804    1.486   .     S
C744   C104    1.410   1_556 S
C745   Br807   1.939   .     S
C745   C750    1.414   .     A
C746   C749    1.411   .     A
C746   Br808   1.938   .     S
C746   C822    1.391   .     S
C747   C749    1.413   .     A
C747   Br809   1.939   .     S
C747   C819    1.391   .     S
C748   Br810   1.938   .     S
C748   C750    1.414   .     A
C751   Br811   1.926   .     S
C751   N774    1.375   .     A
C751   C1198   1.423   1_545 S
C752   Br812   1.918   .     S
C752   N773    1.375   .     A
C752   C975    1.422   .     S
C753   Br813   1.931   .     S
C753   N774    1.375   .     A
C753   C1196   1.422   1_545 S
C754   Br814   1.927   .     S
C754   N773    1.377   .     A
C754   C973    1.423   .     S
C755   C760    1.457   .     S
C755   O779    1.299   .     A
C755   O782    1.297   .     A
C756   O780    1.295   .     A
C756   C759    1.464   .     S
C756   O781    1.304   .     A
C757   C767    1.425   .     A
C757   C783    1.490   .     S
C757   C759    1.410   .     A
C758   C786    1.492   .     S
C758   C768    1.414   .     A
C758   C760    1.403   .     A
C759   C761    1.407   .     A
C760   C762    1.407   .     A
C761   C789    1.487   .     S
C761   C763    1.411   .     A
C762   C764    1.422   .     A
C762   C792    1.487   .     S
C763   C769    1.422   .     A
C763   C765    1.416   .     A
C764   C766    1.420   .     A
C764   C770    1.423   .     A
C765   C767    1.419   .     A
C765   C100    1.411   1_556 S
C766   C768    1.419   .     A
C769   C795    1.491   .     S
C769   C77     1.409   1_556 S
C770   C798    1.490   .     S
Cu771  N773    2.032   .     S
Cu771  O777    1.977   .     S
Cu771  Cu772   2.704   .     S
Cu771  O781    1.964   .     S
Cu771  O775    1.975   .     S
Cu771  O779    1.963   .     S
Cu772  O776    1.975   .     S
Cu772  O778    1.977   .     S
Cu772  N774    2.032   .     S
Cu772  O780    1.963   .     S
Cu772  O782    1.964   .     S
C783   H784    1.085   .     S
C783   O785    1.221   .     D
C786   O788    1.221   .     D
C786   H787    1.085   .     S
C789   O791    1.217   .     D
C789   H790    1.086   .     S
C792   O794    1.221   .     D
C792   H793    1.083   .     S
C795   H796    1.082   .     S
C795   O797    1.222   .     D
C798   O800    1.219   .     D
C798   H799    1.086   .     S
C801   O803    1.220   .     D
C801   H802    1.083   .     S
C804   H805    1.083   .     S
C804   O806    1.221   .     D
C815   O852    1.305   .     A
C815   O849    1.304   .     A
C815   C824    1.472   .     S
C816   O850    1.303   .     A
C816   O851    1.306   .     A
C816   C823    1.471   .     S
C817   C842    1.420   .     A
C817   C875    1.491   .     S
C818   C841    1.422   .     A
C818   C878    1.486   .     S
C818   C178    1.410   1_556 S
C819   Br881   1.939   .     S
C819   C824    1.414   .     A
C820   C823    1.411   .     A
C820   Br882   1.938   .     S
C820   C674    1.391   1_655 S
C821   C823    1.413   .     A
C821   Br883   1.939   .     S
C821   C671    1.391   1_655 S
C822   Br884   1.938   .     S
C822   C824    1.414   .     A
C825   Br885   1.926   .     S
C825   N848    1.375   .     A
C825   C1272   1.423   1_545 S
C826   Br886   1.918   .     S
C826   N847    1.375   .     A
C826   C1049   1.422   .     S
C827   Br887   1.931   .     S
C827   N848    1.375   .     A
C827   C1270   1.422   1_545 S
C828   Br888   1.927   .     S
C828   N847    1.377   .     A
C828   C1047   1.423   .     S
C829   C834    1.457   .     S
C829   O853    1.299   .     A
C829   O856    1.297   .     A
C830   O854    1.295   .     A
C830   C833    1.464   .     S
C830   O855    1.304   .     A
C831   C841    1.425   .     A
C831   C857    1.490   .     S
C831   C833    1.410   .     A
C832   C860    1.492   .     S
C832   C842    1.414   .     A
C832   C834    1.403   .     A
C833   C835    1.407   .     A
C834   C836    1.407   .     A
C835   C863    1.487   .     S
C835   C837    1.411   .     A
C836   C838    1.422   .     A
C836   C866    1.487   .     S
C837   C843    1.422   .     A
C837   C839    1.416   .     A
C838   C840    1.420   .     A
C838   C844    1.423   .     A
C839   C841    1.419   .     A
C839   C174    1.411   1_556 S
C840   C842    1.419   .     A
C843   C869    1.491   .     S
C843   C151    1.409   1_556 S
C844   C872    1.490   .     S
Cu845  N847    2.032   .     S
Cu845  O851    1.977   .     S
Cu845  Cu846   2.704   .     S
Cu845  O855    1.964   .     S
Cu845  O849    1.975   .     S
Cu845  O853    1.963   .     S
Cu846  O850    1.975   .     S
Cu846  O852    1.977   .     S
Cu846  N848    2.032   .     S
Cu846  O854    1.963   .     S
Cu846  O856    1.964   .     S
C857   H858    1.085   .     S
C857   O859    1.221   .     D
C860   O862    1.221   .     D
C860   H861    1.085   .     S
C863   O865    1.217   .     D
C863   H864    1.086   .     S
C866   O868    1.221   .     D
C866   H867    1.083   .     S
C869   H870    1.082   .     S
C869   O871    1.222   .     D
C872   O874    1.219   .     D
C872   H873    1.086   .     S
C875   O877    1.220   .     D
C875   H876    1.083   .     S
C878   H879    1.083   .     S
C878   O880    1.221   .     D
C889   O926    1.305   .     A
C889   O923    1.304   .     A
C889   C898    1.472   .     S
C890   O924    1.303   .     A
C890   O925    1.306   .     A
C890   C897    1.471   .     S
C891   C916    1.420   .     A
C891   C949    1.491   .     S
C892   C915    1.422   .     A
C892   C952    1.486   .     S
C892   C252    1.410   1_556 S
C893   Br955   1.939   .     S
C893   C898    1.414   .     A
C893   C1043   1.391   1_455 S
C894   C897    1.411   .     A
C894   Br956   1.938   .     S
C894   C970    1.391   .     S
C895   C897    1.413   .     A
C895   Br957   1.939   .     S
C895   C967    1.391   .     S
C896   Br958   1.938   .     S
C896   C898    1.414   .     A
C896   C1042   1.391   1_455 S
C899   Br959   1.926   .     S
C899   N922    1.375   .     A
C900   Br960   1.918   .     S
C900   N921    1.375   .     A
C900   C1123   1.422   .     S
C901   Br961   1.931   .     S
C901   N922    1.375   .     A
C902   Br962   1.927   .     S
C902   N921    1.377   .     A
C902   C1121   1.423   .     S
C903   C908    1.457   .     S
C903   O927    1.299   .     A
C903   O930    1.297   .     A
C904   O928    1.295   .     A
C904   C907    1.464   .     S
C904   O929    1.304   .     A
C905   C915    1.425   .     A
C905   C931    1.490   .     S
C905   C907    1.410   .     A
C906   C934    1.492   .     S
C906   C916    1.414   .     A
C906   C908    1.403   .     A
C907   C909    1.407   .     A
C908   C910    1.407   .     A
C909   C937    1.487   .     S
C909   C911    1.411   .     A
C910   C912    1.422   .     A
C910   C940    1.487   .     S
C911   C917    1.422   .     A
C911   C913    1.416   .     A
C912   C914    1.420   .     A
C912   C918    1.423   .     A
C913   C915    1.419   .     A
C913   C248    1.411   1_556 S
C914   C916    1.419   .     A
C917   C943    1.491   .     S
C917   C225    1.409   1_556 S
C918   C946    1.490   .     S
Cu919  N921    2.032   .     S
Cu919  O925    1.977   .     S
Cu919  Cu920   2.704   .     S
Cu919  O929    1.964   .     S
Cu919  O923    1.975   .     S
Cu919  O927    1.963   .     S
Cu920  O924    1.975   .     S
Cu920  O926    1.977   .     S
Cu920  N922    2.032   .     S
Cu920  O928    1.963   .     S
Cu920  O930    1.964   .     S
C931   H932    1.085   .     S
C931   O933    1.221   .     D
C934   O936    1.221   .     D
C934   H935    1.085   .     S
C937   O939    1.217   .     D
C937   H938    1.086   .     S
C940   O942    1.221   .     D
C940   H941    1.083   .     S
C943   H944    1.082   .     S
C943   O945    1.222   .     D
C946   O948    1.219   .     D
C946   H947    1.086   .     S
C949   O951    1.220   .     D
C949   H950    1.083   .     S
C952   H953    1.083   .     S
C952   O954    1.221   .     D
C963   O1000   1.305   .     A
C963   O997    1.304   .     A
C963   C972    1.472   .     S
C964   O998    1.303   .     A
C964   O999    1.306   .     A
C964   C971    1.471   .     S
C965   C990    1.420   .     A
C965   C1023   1.491   .     S
C966   C989    1.422   .     A
C966   C1026   1.486   .     S
C966   C326    1.410   1_556 S
C967   Br1029  1.939   .     S
C967   C972    1.414   .     A
C968   C971    1.411   .     A
C968   Br1030  1.938   .     S
C968   C1044   1.391   .     S
C969   C971    1.413   .     A
C969   Br1031  1.939   .     S
C969   C1041   1.391   .     S
C970   Br1032  1.938   .     S
C970   C972    1.414   .     A
C973   Br1033  1.926   .     S
C973   N996    1.375   .     A
C974   Br1034  1.918   .     S
C974   N995    1.375   .     A
C974   C1197   1.422   .     S
C975   Br1035  1.931   .     S
C975   N996    1.375   .     A
C976   Br1036  1.927   .     S
C976   N995    1.377   .     A
C976   C1195   1.423   .     S
C977   C982    1.457   .     S
C977   O1001   1.299   .     A
C977   O1004   1.297   .     A
C978   O1002   1.295   .     A
C978   C981    1.464   .     S
C978   O1003   1.304   .     A
C979   C989    1.425   .     A
C979   C1005   1.490   .     S
C979   C981    1.410   .     A
C980   C1008   1.492   .     S
C980   C990    1.414   .     A
C980   C982    1.403   .     A
C981   C983    1.407   .     A
C982   C984    1.407   .     A
C983   C1011   1.487   .     S
C983   C985    1.411   .     A
C984   C986    1.422   .     A
C984   C1014   1.487   .     S
C985   C991    1.422   .     A
C985   C987    1.416   .     A
C986   C988    1.420   .     A
C986   C992    1.423   .     A
C987   C989    1.419   .     A
C987   C322    1.411   1_556 S
C988   C990    1.419   .     A
C991   C1017   1.491   .     S
C991   C299    1.409   1_556 S
C992   C1020   1.490   .     S
Cu993  N995    2.032   .     S
Cu993  O999    1.977   .     S
Cu993  Cu994   2.704   .     S
Cu993  O1003   1.964   .     S
Cu993  O997    1.975   .     S
Cu993  O1001   1.963   .     S
Cu994  O998    1.975   .     S
Cu994  O1000   1.977   .     S
Cu994  N996    2.032   .     S
Cu994  O1002   1.963   .     S
Cu994  O1004   1.964   .     S
C1005  H1006   1.085   .     S
C1005  O1007   1.221   .     D
C1008  O1010   1.221   .     D
C1008  H1009   1.085   .     S
C1011  O1013   1.217   .     D
C1011  H1012   1.086   .     S
C1014  O1016   1.221   .     D
C1014  H1015   1.083   .     S
C1017  H1018   1.082   .     S
C1017  O1019   1.222   .     D
C1020  O1022   1.219   .     D
C1020  H1021   1.086   .     S
C1023  O1025   1.220   .     D
C1023  H1024   1.083   .     S
C1026  H1027   1.083   .     S
C1026  O1028   1.221   .     D
C1037  O1074   1.305   .     A
C1037  O1071   1.304   .     A
C1037  C1046   1.472   .     S
C1038  O1072   1.303   .     A
C1038  O1073   1.306   .     A
C1038  C1045   1.471   .     S
C1039  C1064   1.420   .     A
C1039  C1097   1.491   .     S
C1040  C1063   1.422   .     A
C1040  C1100   1.486   .     S
C1040  C400    1.410   1_556 S
C1041  Br1103  1.939   .     S
C1041  C1046   1.414   .     A
C1042  C1045   1.411   .     A
C1042  Br1104  1.938   .     S
C1042  C896    1.391   1_655 S
C1043  C1045   1.413   .     A
C1043  Br1105  1.939   .     S
C1043  C893    1.391   1_655 S
C1044  Br1106  1.938   .     S
C1044  C1046   1.414   .     A
C1047  Br1107  1.926   .     S
C1047  N1070   1.375   .     A
C1048  Br1108  1.918   .     S
C1048  N1069   1.375   .     A
C1048  C1271   1.422   .     S
C1049  Br1109  1.931   .     S
C1049  N1070   1.375   .     A
C1050  Br1110  1.927   .     S
C1050  N1069   1.377   .     A
C1050  C1269   1.423   .     S
C1051  C1056   1.457   .     S
C1051  O1075   1.299   .     A
C1051  O1078   1.297   .     A
C1052  O1076   1.295   .     A
C1052  C1055   1.464   .     S
C1052  O1077   1.304   .     A
C1053  C1063   1.425   .     A
C1053  C1079   1.490   .     S
C1053  C1055   1.410   .     A
C1054  C1082   1.492   .     S
C1054  C1064   1.414   .     A
C1054  C1056   1.403   .     A
C1055  C1057   1.407   .     A
C1056  C1058   1.407   .     A
C1057  C1085   1.487   .     S
C1057  C1059   1.411   .     A
C1058  C1060   1.422   .     A
C1058  C1088   1.487   .     S
C1059  C1065   1.422   .     A
C1059  C1061   1.416   .     A
C1060  C1062   1.420   .     A
C1060  C1066   1.423   .     A
C1061  C1063   1.419   .     A
C1061  C396    1.411   1_556 S
C1062  C1064   1.419   .     A
C1065  C1091   1.491   .     S
C1065  C373    1.409   1_556 S
C1066  C1094   1.490   .     S
Cu1067 N1069   2.032   .     S
Cu1067 O1073   1.977   .     S
Cu1067 Cu1068  2.704   .     S
Cu1067 O1077   1.964   .     S
Cu1067 O1071   1.975   .     S
Cu1067 O1075   1.963   .     S
Cu1068 O1072   1.975   .     S
Cu1068 O1074   1.977   .     S
Cu1068 N1070   2.032   .     S
Cu1068 O1076   1.963   .     S
Cu1068 O1078   1.964   .     S
C1079  H1080   1.085   .     S
C1079  O1081   1.221   .     D
C1082  O1084   1.221   .     D
C1082  H1083   1.085   .     S
C1085  O1087   1.217   .     D
C1085  H1086   1.086   .     S
C1088  O1090   1.221   .     D
C1088  H1089   1.083   .     S
C1091  H1092   1.082   .     S
C1091  O1093   1.222   .     D
C1094  O1096   1.219   .     D
C1094  H1095   1.086   .     S
C1097  O1099   1.220   .     D
C1097  H1098   1.083   .     S
C1100  H1101   1.083   .     S
C1100  O1102   1.221   .     D
C1111  O1148   1.305   .     A
C1111  O1145   1.304   .     A
C1111  C1120   1.472   .     S
C1112  O1146   1.303   .     A
C1112  O1147   1.306   .     A
C1112  C1119   1.471   .     S
C1113  C1138   1.420   .     A
C1113  C1171   1.491   .     S
C1114  C1137   1.422   .     A
C1114  C1174   1.486   .     S
C1114  C474    1.410   1_556 S
C1115  Br1177  1.939   .     S
C1115  C1120   1.414   .     A
C1115  C1265   1.391   1_455 S
C1116  C1119   1.411   .     A
C1116  Br1178  1.938   .     S
C1116  C1192   1.391   .     S
C1117  C1119   1.413   .     A
C1117  Br1179  1.939   .     S
C1117  C1189   1.391   .     S
C1118  Br1180  1.938   .     S
C1118  C1120   1.414   .     A
C1118  C1264   1.391   1_455 S
C1121  Br1181  1.926   .     S
C1121  N1144   1.375   .     A
C1122  Br1182  1.918   .     S
C1122  N1143   1.375   .     A
C1122  C679    1.422   1_565 S
C1123  Br1183  1.931   .     S
C1123  N1144   1.375   .     A
C1124  Br1184  1.927   .     S
C1124  N1143   1.377   .     A
C1124  C677    1.423   1_565 S
C1125  C1130   1.457   .     S
C1125  O1149   1.299   .     A
C1125  O1152   1.297   .     A
C1126  O1150   1.295   .     A
C1126  C1129   1.464   .     S
C1126  O1151   1.304   .     A
C1127  C1137   1.425   .     A
C1127  C1153   1.490   .     S
C1127  C1129   1.410   .     A
C1128  C1156   1.492   .     S
C1128  C1138   1.414   .     A
C1128  C1130   1.403   .     A
C1129  C1131   1.407   .     A
C1130  C1132   1.407   .     A
C1131  C1159   1.487   .     S
C1131  C1133   1.411   .     A
C1132  C1134   1.422   .     A
C1132  C1162   1.487   .     S
C1133  C1139   1.422   .     A
C1133  C1135   1.416   .     A
C1134  C1136   1.420   .     A
C1134  C1140   1.423   .     A
C1135  C1137   1.419   .     A
C1135  C470    1.411   1_556 S
C1136  C1138   1.419   .     A
C1139  C1165   1.491   .     S
C1139  C447    1.409   1_556 S
C1140  C1168   1.490   .     S
Cu1141 N1143   2.032   .     S
Cu1141 O1147   1.977   .     S
Cu1141 Cu1142  2.704   .     S
Cu1141 O1151   1.964   .     S
Cu1141 O1145   1.975   .     S
Cu1141 O1149   1.963   .     S
Cu1142 O1146   1.975   .     S
Cu1142 O1148   1.977   .     S
Cu1142 N1144   2.032   .     S
Cu1142 O1150   1.963   .     S
Cu1142 O1152   1.964   .     S
C1153  H1154   1.085   .     S
C1153  O1155   1.221   .     D
C1156  O1158   1.221   .     D
C1156  H1157   1.085   .     S
C1159  O1161   1.217   .     D
C1159  H1160   1.086   .     S
C1162  O1164   1.221   .     D
C1162  H1163   1.083   .     S
C1165  H1166   1.082   .     S
C1165  O1167   1.222   .     D
C1168  O1170   1.219   .     D
C1168  H1169   1.086   .     S
C1171  O1173   1.220   .     D
C1171  H1172   1.083   .     S
C1174  H1175   1.083   .     S
C1174  O1176   1.221   .     D
C1185  O1222   1.305   .     A
C1185  O1219   1.304   .     A
C1185  C1194   1.472   .     S
C1186  O1220   1.303   .     A
C1186  O1221   1.306   .     A
C1186  C1193   1.471   .     S
C1187  C1212   1.420   .     A
C1187  C1245   1.491   .     S
C1188  C1211   1.422   .     A
C1188  C1248   1.486   .     S
C1188  C548    1.410   1_556 S
C1189  Br1251  1.939   .     S
C1189  C1194   1.414   .     A
C1190  C1193   1.411   .     A
C1190  Br1252  1.938   .     S
C1190  C1266   1.391   .     S
C1191  C1193   1.413   .     A
C1191  Br1253  1.939   .     S
C1191  C1263   1.391   .     S
C1192  Br1254  1.938   .     S
C1192  C1194   1.414   .     A
C1195  Br1255  1.926   .     S
C1195  N1218   1.375   .     A
C1196  Br1256  1.918   .     S
C1196  N1217   1.375   .     A
C1196  C753    1.422   1_565 S
C1197  Br1257  1.931   .     S
C1197  N1218   1.375   .     A
C1198  Br1258  1.927   .     S
C1198  N1217   1.377   .     A
C1198  C751    1.423   1_565 S
C1199  C1204   1.457   .     S
C1199  O1223   1.299   .     A
C1199  O1226   1.297   .     A
C1200  O1224   1.295   .     A
C1200  C1203   1.464   .     S
C1200  O1225   1.304   .     A
C1201  C1211   1.425   .     A
C1201  C1227   1.490   .     S
C1201  C1203   1.410   .     A
C1202  C1230   1.492   .     S
C1202  C1212   1.414   .     A
C1202  C1204   1.403   .     A
C1203  C1205   1.407   .     A
C1204  C1206   1.407   .     A
C1205  C1233   1.487   .     S
C1205  C1207   1.411   .     A
C1206  C1208   1.422   .     A
C1206  C1236   1.487   .     S
C1207  C1213   1.422   .     A
C1207  C1209   1.416   .     A
C1208  C1210   1.420   .     A
C1208  C1214   1.423   .     A
C1209  C1211   1.419   .     A
C1209  C544    1.411   1_556 S
C1210  C1212   1.419   .     A
C1213  C1239   1.491   .     S
C1213  C521    1.409   1_556 S
C1214  C1242   1.490   .     S
Cu1215 N1217   2.032   .     S
Cu1215 O1221   1.977   .     S
Cu1215 Cu1216  2.704   .     S
Cu1215 O1225   1.964   .     S
Cu1215 O1219   1.975   .     S
Cu1215 O1223   1.963   .     S
Cu1216 O1220   1.975   .     S
Cu1216 O1222   1.977   .     S
Cu1216 N1218   2.032   .     S
Cu1216 O1224   1.963   .     S
Cu1216 O1226   1.964   .     S
C1227  H1228   1.085   .     S
C1227  O1229   1.221   .     D
C1230  O1232   1.221   .     D
C1230  H1231   1.085   .     S
C1233  O1235   1.217   .     D
C1233  H1234   1.086   .     S
C1236  O1238   1.221   .     D
C1236  H1237   1.083   .     S
C1239  H1240   1.082   .     S
C1239  O1241   1.222   .     D
C1242  O1244   1.219   .     D
C1242  H1243   1.086   .     S
C1245  O1247   1.220   .     D
C1245  H1246   1.083   .     S
C1248  H1249   1.083   .     S
C1248  O1250   1.221   .     D
C1259  O1296   1.305   .     A
C1259  O1293   1.304   .     A
C1259  C1268   1.472   .     S
C1260  O1294   1.303   .     A
C1260  O1295   1.306   .     A
C1260  C1267   1.471   .     S
C1261  C1286   1.420   .     A
C1261  C1319   1.491   .     S
C1262  C1285   1.422   .     A
C1262  C1322   1.486   .     S
C1262  C622    1.410   1_556 S
C1263  Br1325  1.939   .     S
C1263  C1268   1.414   .     A
C1264  C1267   1.411   .     A
C1264  Br1326  1.938   .     S
C1264  C1118   1.391   1_655 S
C1265  C1267   1.413   .     A
C1265  Br1327  1.939   .     S
C1265  C1115   1.391   1_655 S
C1266  Br1328  1.938   .     S
C1266  C1268   1.414   .     A
C1269  Br1329  1.926   .     S
C1269  N1292   1.375   .     A
C1270  Br1330  1.918   .     S
C1270  N1291   1.375   .     A
C1270  C827    1.422   1_565 S
C1271  Br1331  1.931   .     S
C1271  N1292   1.375   .     A
C1272  Br1332  1.927   .     S
C1272  N1291   1.377   .     A
C1272  C825    1.423   1_565 S
C1273  C1278   1.457   .     S
C1273  O1297   1.299   .     A
C1273  O1300   1.297   .     A
C1274  O1298   1.295   .     A
C1274  C1277   1.464   .     S
C1274  O1299   1.304   .     A
C1275  C1285   1.425   .     A
C1275  C1301   1.490   .     S
C1275  C1277   1.410   .     A
C1276  C1304   1.492   .     S
C1276  C1286   1.414   .     A
C1276  C1278   1.403   .     A
C1277  C1279   1.407   .     A
C1278  C1280   1.407   .     A
C1279  C1307   1.487   .     S
C1279  C1281   1.411   .     A
C1280  C1282   1.422   .     A
C1280  C1310   1.487   .     S
C1281  C1287   1.422   .     A
C1281  C1283   1.416   .     A
C1282  C1284   1.420   .     A
C1282  C1288   1.423   .     A
C1283  C1285   1.419   .     A
C1283  C618    1.411   1_556 S
C1284  C1286   1.419   .     A
C1287  C1313   1.491   .     S
C1287  C595    1.409   1_556 S
C1288  C1316   1.490   .     S
Cu1289 N1291   2.032   .     S
Cu1289 O1295   1.977   .     S
Cu1289 Cu1290  2.704   .     S
Cu1289 O1299   1.964   .     S
Cu1289 O1293   1.975   .     S
Cu1289 O1297   1.963   .     S
Cu1290 O1294   1.975   .     S
Cu1290 O1296   1.977   .     S
Cu1290 N1292   2.032   .     S
Cu1290 O1298   1.963   .     S
Cu1290 O1300   1.964   .     S
C1301  H1302   1.085   .     S
C1301  O1303   1.221   .     D
C1304  O1306   1.221   .     D
C1304  H1305   1.085   .     S
C1307  O1309   1.217   .     D
C1307  H1308   1.086   .     S
C1310  O1312   1.221   .     D
C1310  H1311   1.083   .     S
C1313  H1314   1.082   .     S
C1313  O1315   1.222   .     D
C1316  O1318   1.219   .     D
C1316  H1317   1.086   .     S
C1319  O1321   1.220   .     D
C1319  H1320   1.083   .     S
C1322  H1323   1.083   .     S
C1322  O1324   1.221   .     D
