data_str_m2_o1_o10_pcu_sym.138
_audit_creation_date              2020-01-03
_audit_creation_method            'Materials Studio'
_symmetry_space_group_name_H-M    'P1'
_symmetry_Int_Tables_number       1
_symmetry_cell_setting            triclinic
loop_
_symmetry_equiv_pos_as_xyz
  x,y,z
_cell_length_a                    26.4017
_cell_length_b                    32.6569
_cell_length_c                    28.4936
_cell_angle_alpha                 90.7304
_cell_angle_beta                  97.7202
_cell_angle_gamma                 89.7245
loop_
_atom_site_label
_atom_site_type_symbol
_atom_site_fract_x
_atom_site_fract_y
_atom_site_fract_z
_atom_site_U_iso_or_equiv
_atom_site_adp_type
_atom_site_occupancy
O1     O     0.16666   0.10655   0.20625   0.00000  Uiso   1.00
O2     O     0.16667   0.22678   0.12709   0.00000  Uiso   1.00
O3     O     0.16666   0.10654   0.12706   0.00000  Uiso   1.00
O4     O     0.16667   0.22679   0.20628   0.00000  Uiso   1.00
C5     C     0.16760   0.08734   0.16633   0.00000  Uiso   1.00
C6     C     0.16572   0.24599   0.16701   0.00000  Uiso   1.00
O7     O     0.09161   0.16667   0.19712   0.00000  Uiso   1.00
O8     O     0.24172   0.16666   0.13621   0.00000  Uiso   1.00
O9     O     0.09161   0.16666   0.11793   0.00000  Uiso   1.00
O10    O     0.24172   0.16667   0.21540   0.00000  Uiso   1.00
C11    C     0.06805   0.16674   0.15472   0.00000  Uiso   1.00
C12    C     0.26528   0.16659   0.17861   0.00000  Uiso   1.00
Cu13   Cu    0.16667   0.16667   0.21355   0.00000  Uiso   1.00
Cu14   Cu    0.16667   0.16666   0.11978   0.00000  Uiso   1.00
N15    N     0.16668   0.16668   0.28403   0.00000  Uiso   1.00
N16    N     0.16665   0.16666   0.04931   0.00000  Uiso   1.00
C17    C     0.01340   0.16190   0.14858   0.00000  Uiso   1.00
C18    C     0.31993   0.17142   0.18475   0.00000  Uiso   1.00
C19    C     0.16881   0.01972   0.12326   0.00000  Uiso   1.00
C20    C     0.16449   0.31361   0.21007   0.00000  Uiso   1.00
C21    C     0.16652   0.31074   0.12483   0.00000  Uiso   1.00
C22    C     0.16679   0.02259   0.20850   0.00000  Uiso   1.00
H23    H     0.16726   0.29360   0.09211   0.00000  Uiso   1.00
H24    H     0.16604   0.03974   0.24122   0.00000  Uiso   1.00
C25    C     0.16485   0.29062   0.16770   0.00000  Uiso   1.00
C26    C     0.16846   0.04271   0.16563   0.00000  Uiso   1.00
C27    C     0.13349   0.14248   0.02034   0.00000  Uiso   1.00
C28    C     0.19985   0.19085   0.31299   0.00000  Uiso   1.00
H29    H     0.10700   0.12307   0.03553   0.00000  Uiso   1.00
H30    H     0.22633   0.21026   0.29781   0.00000  Uiso   1.00
C31    C     0.13350   0.14250   0.30402   0.00000  Uiso   1.00
C32    C     0.19984   0.19084   0.02931   0.00000  Uiso   1.00
H33    H     0.10699   0.12311   0.28167   0.00000  Uiso   1.00
H34    H     0.22634   0.21022   0.05166   0.00000  Uiso   1.00
N35    N     0.32388   0.14117   0.10610   0.00000  Uiso   1.00
O36    O     0.32933   0.15571   0.06477   0.00000  Uiso   1.00
O37    O     0.30484   0.10473   0.10877   0.00000  Uiso   1.00
N38    N     0.00945   0.19214   0.22723   0.00000  Uiso   1.00
O39    O     0.00403   0.17759   0.26856   0.00000  Uiso   1.00
O40    O     0.02845   0.22860   0.22457   0.00000  Uiso   1.00
N41    N     0.17239   0.03829   0.07849   0.00000  Uiso   1.00
O42    O     0.21456   0.05632   0.07164   0.00000  Uiso   1.00
O43    O     0.13902   0.02909   0.04206   0.00000  Uiso   1.00
N44    N     0.16087   0.29505   0.25484   0.00000  Uiso   1.00
O45    O     0.11873   0.27695   0.26163   0.00000  Uiso   1.00
O46    O     0.19413   0.30434   0.29132   0.00000  Uiso   1.00
O47    O     0.50000   0.10655   0.20625   0.00000  Uiso   1.00
O48    O     0.50000   0.22678   0.12709   0.00000  Uiso   1.00
O49    O     0.50000   0.10654   0.12706   0.00000  Uiso   1.00
O50    O     0.50000   0.22679   0.20628   0.00000  Uiso   1.00
C51    C     0.50094   0.08734   0.16633   0.00000  Uiso   1.00
C52    C     0.49905   0.24599   0.16701   0.00000  Uiso   1.00
O53    O     0.42495   0.16667   0.19712   0.00000  Uiso   1.00
O54    O     0.57505   0.16666   0.13621   0.00000  Uiso   1.00
O55    O     0.42494   0.16666   0.11793   0.00000  Uiso   1.00
O56    O     0.57506   0.16667   0.21540   0.00000  Uiso   1.00
C57    C     0.40139   0.16674   0.15472   0.00000  Uiso   1.00
C58    C     0.59861   0.16659   0.17861   0.00000  Uiso   1.00
Cu59   Cu    0.50000   0.16667   0.21355   0.00000  Uiso   1.00
Cu60   Cu    0.50000   0.16666   0.11978   0.00000  Uiso   1.00
N61    N     0.50001   0.16668   0.28403   0.00000  Uiso   1.00
N62    N     0.49999   0.16666   0.04931   0.00000  Uiso   1.00
C63    C     0.34673   0.16190   0.14858   0.00000  Uiso   1.00
C64    C     0.65327   0.17142   0.18475   0.00000  Uiso   1.00
C65    C     0.50214   0.01972   0.12326   0.00000  Uiso   1.00
C66    C     0.49783   0.31361   0.21007   0.00000  Uiso   1.00
C67    C     0.49985   0.31074   0.12483   0.00000  Uiso   1.00
C68    C     0.50012   0.02259   0.20850   0.00000  Uiso   1.00
H69    H     0.50059   0.29360   0.09211   0.00000  Uiso   1.00
H70    H     0.49937   0.03974   0.24122   0.00000  Uiso   1.00
C71    C     0.49819   0.29062   0.16770   0.00000  Uiso   1.00
C72    C     0.50179   0.04271   0.16563   0.00000  Uiso   1.00
C73    C     0.46682   0.14248   0.02034   0.00000  Uiso   1.00
C74    C     0.53318   0.19085   0.31299   0.00000  Uiso   1.00
H75    H     0.44034   0.12307   0.03553   0.00000  Uiso   1.00
H76    H     0.55966   0.21026   0.29781   0.00000  Uiso   1.00
C77    C     0.46683   0.14250   0.30402   0.00000  Uiso   1.00
C78    C     0.53317   0.19084   0.02931   0.00000  Uiso   1.00
H79    H     0.44032   0.12311   0.28167   0.00000  Uiso   1.00
H80    H     0.55968   0.21022   0.05166   0.00000  Uiso   1.00
N81    N     0.65721   0.14117   0.10610   0.00000  Uiso   1.00
O82    O     0.66267   0.15571   0.06477   0.00000  Uiso   1.00
O83    O     0.63818   0.10473   0.10877   0.00000  Uiso   1.00
N84    N     0.34279   0.19214   0.22723   0.00000  Uiso   1.00
O85    O     0.33736   0.17759   0.26856   0.00000  Uiso   1.00
O86    O     0.36179   0.22860   0.22457   0.00000  Uiso   1.00
N87    N     0.50572   0.03829   0.07849   0.00000  Uiso   1.00
O88    O     0.54789   0.05632   0.07164   0.00000  Uiso   1.00
O89    O     0.47235   0.02909   0.04206   0.00000  Uiso   1.00
N90    N     0.49420   0.29505   0.25484   0.00000  Uiso   1.00
O91    O     0.45206   0.27695   0.26163   0.00000  Uiso   1.00
O92    O     0.52747   0.30434   0.29132   0.00000  Uiso   1.00
O93    O     0.83333   0.10655   0.20625   0.00000  Uiso   1.00
O94    O     0.83334   0.22678   0.12709   0.00000  Uiso   1.00
O95    O     0.83333   0.10654   0.12706   0.00000  Uiso   1.00
O96    O     0.83334   0.22679   0.20628   0.00000  Uiso   1.00
C97    C     0.83427   0.08734   0.16633   0.00000  Uiso   1.00
C98    C     0.83239   0.24599   0.16701   0.00000  Uiso   1.00
O99    O     0.75828   0.16667   0.19712   0.00000  Uiso   1.00
O100   O     0.90839   0.16666   0.13621   0.00000  Uiso   1.00
O101   O     0.75828   0.16666   0.11793   0.00000  Uiso   1.00
O102   O     0.90839   0.16667   0.21540   0.00000  Uiso   1.00
C103   C     0.73472   0.16674   0.15472   0.00000  Uiso   1.00
C104   C     0.93195   0.16659   0.17861   0.00000  Uiso   1.00
Cu105  Cu    0.83333   0.16667   0.21355   0.00000  Uiso   1.00
Cu106  Cu    0.83333   0.16666   0.11978   0.00000  Uiso   1.00
N107   N     0.83335   0.16668   0.28403   0.00000  Uiso   1.00
N108   N     0.83332   0.16666   0.04931   0.00000  Uiso   1.00
C109   C     0.68007   0.16190   0.14858   0.00000  Uiso   1.00
C110   C     0.98660   0.17142   0.18475   0.00000  Uiso   1.00
C111   C     0.83547   0.01972   0.12326   0.00000  Uiso   1.00
C112   C     0.83116   0.31361   0.21007   0.00000  Uiso   1.00
C113   C     0.83318   0.31074   0.12483   0.00000  Uiso   1.00
C114   C     0.83346   0.02259   0.20850   0.00000  Uiso   1.00
H115   H     0.83393   0.29360   0.09211   0.00000  Uiso   1.00
H116   H     0.83271   0.03974   0.24122   0.00000  Uiso   1.00
C117   C     0.83152   0.29062   0.16770   0.00000  Uiso   1.00
C118   C     0.83512   0.04271   0.16563   0.00000  Uiso   1.00
C119   C     0.80015   0.14248   0.02034   0.00000  Uiso   1.00
C120   C     0.86651   0.19085   0.31299   0.00000  Uiso   1.00
H121   H     0.77367   0.12307   0.03553   0.00000  Uiso   1.00
H122   H     0.89300   0.21026   0.29781   0.00000  Uiso   1.00
C123   C     0.80016   0.14250   0.30402   0.00000  Uiso   1.00
C124   C     0.86650   0.19084   0.02931   0.00000  Uiso   1.00
H125   H     0.77366   0.12311   0.28167   0.00000  Uiso   1.00
H126   H     0.89301   0.21022   0.05166   0.00000  Uiso   1.00
N127   N     0.99055   0.14117   0.10610   0.00000  Uiso   1.00
O128   O     0.99600   0.15571   0.06477   0.00000  Uiso   1.00
O129   O     0.97151   0.10473   0.10877   0.00000  Uiso   1.00
N130   N     0.67612   0.19214   0.22723   0.00000  Uiso   1.00
O131   O     0.67069   0.17759   0.26856   0.00000  Uiso   1.00
O132   O     0.69512   0.22860   0.22457   0.00000  Uiso   1.00
N133   N     0.83906   0.03829   0.07849   0.00000  Uiso   1.00
O134   O     0.88123   0.05632   0.07164   0.00000  Uiso   1.00
O135   O     0.80569   0.02909   0.04206   0.00000  Uiso   1.00
N136   N     0.82754   0.29505   0.25484   0.00000  Uiso   1.00
O137   O     0.78539   0.27695   0.26163   0.00000  Uiso   1.00
O138   O     0.86080   0.30434   0.29132   0.00000  Uiso   1.00
O139   O     0.16666   0.43989   0.20625   0.00000  Uiso   1.00
O140   O     0.16667   0.56011   0.12709   0.00000  Uiso   1.00
O141   O     0.16666   0.43988   0.12706   0.00000  Uiso   1.00
O142   O     0.16667   0.56012   0.20628   0.00000  Uiso   1.00
C143   C     0.16760   0.42068   0.16633   0.00000  Uiso   1.00
C144   C     0.16572   0.57932   0.16701   0.00000  Uiso   1.00
O145   O     0.09161   0.50000   0.19712   0.00000  Uiso   1.00
O146   O     0.24172   0.50000   0.13621   0.00000  Uiso   1.00
O147   O     0.09161   0.49999   0.11793   0.00000  Uiso   1.00
O148   O     0.24172   0.50001   0.21540   0.00000  Uiso   1.00
C149   C     0.06805   0.50007   0.15472   0.00000  Uiso   1.00
C150   C     0.26528   0.49993   0.17861   0.00000  Uiso   1.00
Cu151  Cu    0.16667   0.50001   0.21355   0.00000  Uiso   1.00
Cu152  Cu    0.16667   0.49999   0.11978   0.00000  Uiso   1.00
N153   N     0.16668   0.50001   0.28403   0.00000  Uiso   1.00
N154   N     0.16665   0.49999   0.04931   0.00000  Uiso   1.00
C155   C     0.01340   0.49523   0.14858   0.00000  Uiso   1.00
C156   C     0.31993   0.50476   0.18475   0.00000  Uiso   1.00
C157   C     0.16881   0.35306   0.12326   0.00000  Uiso   1.00
C158   C     0.16449   0.64694   0.21007   0.00000  Uiso   1.00
C159   C     0.16652   0.64408   0.12483   0.00000  Uiso   1.00
C160   C     0.16679   0.35592   0.20850   0.00000  Uiso   1.00
H161   H     0.16726   0.62693   0.09211   0.00000  Uiso   1.00
H162   H     0.16604   0.37307   0.24122   0.00000  Uiso   1.00
C163   C     0.16485   0.62395   0.16770   0.00000  Uiso   1.00
C164   C     0.16846   0.37605   0.16563   0.00000  Uiso   1.00
C165   C     0.13349   0.47582   0.02034   0.00000  Uiso   1.00
C166   C     0.19985   0.52418   0.31299   0.00000  Uiso   1.00
H167   H     0.10700   0.45641   0.03553   0.00000  Uiso   1.00
H168   H     0.22633   0.54359   0.29781   0.00000  Uiso   1.00
C169   C     0.13350   0.47583   0.30402   0.00000  Uiso   1.00
C170   C     0.19984   0.52417   0.02931   0.00000  Uiso   1.00
H171   H     0.10699   0.45644   0.28167   0.00000  Uiso   1.00
H172   H     0.22634   0.54356   0.05166   0.00000  Uiso   1.00
N173   N     0.32388   0.47450   0.10610   0.00000  Uiso   1.00
O174   O     0.32933   0.48904   0.06477   0.00000  Uiso   1.00
O175   O     0.30484   0.43806   0.10877   0.00000  Uiso   1.00
N176   N     0.00945   0.52548   0.22723   0.00000  Uiso   1.00
O177   O     0.00403   0.51092   0.26856   0.00000  Uiso   1.00
O178   O     0.02845   0.56193   0.22457   0.00000  Uiso   1.00
N179   N     0.17239   0.37162   0.07849   0.00000  Uiso   1.00
O180   O     0.21456   0.38965   0.07164   0.00000  Uiso   1.00
O181   O     0.13902   0.36242   0.04206   0.00000  Uiso   1.00
N182   N     0.16087   0.62838   0.25484   0.00000  Uiso   1.00
O183   O     0.11873   0.61028   0.26163   0.00000  Uiso   1.00
O184   O     0.19413   0.63767   0.29132   0.00000  Uiso   1.00
O185   O     0.50000   0.43989   0.20625   0.00000  Uiso   1.00
O186   O     0.50000   0.56011   0.12709   0.00000  Uiso   1.00
O187   O     0.50000   0.43988   0.12706   0.00000  Uiso   1.00
O188   O     0.50000   0.56012   0.20628   0.00000  Uiso   1.00
C189   C     0.50094   0.42068   0.16633   0.00000  Uiso   1.00
C190   C     0.49905   0.57932   0.16701   0.00000  Uiso   1.00
O191   O     0.42495   0.50000   0.19712   0.00000  Uiso   1.00
O192   O     0.57505   0.50000   0.13621   0.00000  Uiso   1.00
O193   O     0.42494   0.49999   0.11793   0.00000  Uiso   1.00
O194   O     0.57506   0.50001   0.21540   0.00000  Uiso   1.00
C195   C     0.40139   0.50007   0.15472   0.00000  Uiso   1.00
C196   C     0.59861   0.49993   0.17861   0.00000  Uiso   1.00
Cu197  Cu    0.50000   0.50001   0.21355   0.00000  Uiso   1.00
Cu198  Cu    0.50000   0.49999   0.11978   0.00000  Uiso   1.00
N199   N     0.50001   0.50001   0.28403   0.00000  Uiso   1.00
N200   N     0.49999   0.49999   0.04931   0.00000  Uiso   1.00
C201   C     0.34673   0.49523   0.14858   0.00000  Uiso   1.00
C202   C     0.65327   0.50476   0.18475   0.00000  Uiso   1.00
C203   C     0.50214   0.35306   0.12326   0.00000  Uiso   1.00
C204   C     0.49783   0.64694   0.21007   0.00000  Uiso   1.00
C205   C     0.49985   0.64408   0.12483   0.00000  Uiso   1.00
C206   C     0.50012   0.35592   0.20850   0.00000  Uiso   1.00
H207   H     0.50059   0.62693   0.09211   0.00000  Uiso   1.00
H208   H     0.49937   0.37307   0.24122   0.00000  Uiso   1.00
C209   C     0.49819   0.62395   0.16770   0.00000  Uiso   1.00
C210   C     0.50179   0.37605   0.16563   0.00000  Uiso   1.00
C211   C     0.46682   0.47582   0.02034   0.00000  Uiso   1.00
C212   C     0.53318   0.52418   0.31299   0.00000  Uiso   1.00
H213   H     0.44034   0.45641   0.03553   0.00000  Uiso   1.00
H214   H     0.55966   0.54359   0.29781   0.00000  Uiso   1.00
C215   C     0.46683   0.47583   0.30402   0.00000  Uiso   1.00
C216   C     0.53317   0.52417   0.02931   0.00000  Uiso   1.00
H217   H     0.44032   0.45644   0.28167   0.00000  Uiso   1.00
H218   H     0.55968   0.54356   0.05166   0.00000  Uiso   1.00
N219   N     0.65721   0.47450   0.10610   0.00000  Uiso   1.00
O220   O     0.66267   0.48904   0.06477   0.00000  Uiso   1.00
O221   O     0.63818   0.43806   0.10877   0.00000  Uiso   1.00
N222   N     0.34279   0.52548   0.22723   0.00000  Uiso   1.00
O223   O     0.33736   0.51092   0.26856   0.00000  Uiso   1.00
O224   O     0.36179   0.56193   0.22457   0.00000  Uiso   1.00
N225   N     0.50572   0.37162   0.07849   0.00000  Uiso   1.00
O226   O     0.54789   0.38965   0.07164   0.00000  Uiso   1.00
O227   O     0.47235   0.36242   0.04206   0.00000  Uiso   1.00
N228   N     0.49420   0.62838   0.25484   0.00000  Uiso   1.00
O229   O     0.45206   0.61028   0.26163   0.00000  Uiso   1.00
O230   O     0.52747   0.63767   0.29132   0.00000  Uiso   1.00
O231   O     0.83333   0.43989   0.20625   0.00000  Uiso   1.00
O232   O     0.83334   0.56011   0.12709   0.00000  Uiso   1.00
O233   O     0.83333   0.43988   0.12706   0.00000  Uiso   1.00
O234   O     0.83334   0.56012   0.20628   0.00000  Uiso   1.00
C235   C     0.83427   0.42068   0.16633   0.00000  Uiso   1.00
C236   C     0.83239   0.57932   0.16701   0.00000  Uiso   1.00
O237   O     0.75828   0.50000   0.19712   0.00000  Uiso   1.00
O238   O     0.90839   0.50000   0.13621   0.00000  Uiso   1.00
O239   O     0.75828   0.49999   0.11793   0.00000  Uiso   1.00
O240   O     0.90839   0.50001   0.21540   0.00000  Uiso   1.00
C241   C     0.73472   0.50007   0.15472   0.00000  Uiso   1.00
C242   C     0.93195   0.49993   0.17861   0.00000  Uiso   1.00
Cu243  Cu    0.83333   0.50001   0.21355   0.00000  Uiso   1.00
Cu244  Cu    0.83333   0.49999   0.11978   0.00000  Uiso   1.00
N245   N     0.83335   0.50001   0.28403   0.00000  Uiso   1.00
N246   N     0.83332   0.49999   0.04931   0.00000  Uiso   1.00
C247   C     0.68007   0.49523   0.14858   0.00000  Uiso   1.00
C248   C     0.98660   0.50476   0.18475   0.00000  Uiso   1.00
C249   C     0.83547   0.35306   0.12326   0.00000  Uiso   1.00
C250   C     0.83116   0.64694   0.21007   0.00000  Uiso   1.00
C251   C     0.83318   0.64408   0.12483   0.00000  Uiso   1.00
C252   C     0.83346   0.35592   0.20850   0.00000  Uiso   1.00
H253   H     0.83393   0.62693   0.09211   0.00000  Uiso   1.00
H254   H     0.83271   0.37307   0.24122   0.00000  Uiso   1.00
C255   C     0.83152   0.62395   0.16770   0.00000  Uiso   1.00
C256   C     0.83512   0.37605   0.16563   0.00000  Uiso   1.00
C257   C     0.80015   0.47582   0.02034   0.00000  Uiso   1.00
C258   C     0.86651   0.52418   0.31299   0.00000  Uiso   1.00
H259   H     0.77367   0.45641   0.03553   0.00000  Uiso   1.00
H260   H     0.89300   0.54359   0.29781   0.00000  Uiso   1.00
C261   C     0.80016   0.47583   0.30402   0.00000  Uiso   1.00
C262   C     0.86650   0.52417   0.02931   0.00000  Uiso   1.00
H263   H     0.77366   0.45644   0.28167   0.00000  Uiso   1.00
H264   H     0.89301   0.54356   0.05166   0.00000  Uiso   1.00
N265   N     0.99055   0.47450   0.10610   0.00000  Uiso   1.00
O266   O     0.99600   0.48904   0.06477   0.00000  Uiso   1.00
O267   O     0.97151   0.43806   0.10877   0.00000  Uiso   1.00
N268   N     0.67612   0.52548   0.22723   0.00000  Uiso   1.00
O269   O     0.67069   0.51092   0.26856   0.00000  Uiso   1.00
O270   O     0.69512   0.56193   0.22457   0.00000  Uiso   1.00
N271   N     0.83906   0.37162   0.07849   0.00000  Uiso   1.00
O272   O     0.88123   0.38965   0.07164   0.00000  Uiso   1.00
O273   O     0.80569   0.36242   0.04206   0.00000  Uiso   1.00
N274   N     0.82754   0.62838   0.25484   0.00000  Uiso   1.00
O275   O     0.78539   0.61028   0.26163   0.00000  Uiso   1.00
O276   O     0.86080   0.63767   0.29132   0.00000  Uiso   1.00
O277   O     0.16666   0.77322   0.20625   0.00000  Uiso   1.00
O278   O     0.16667   0.89345   0.12709   0.00000  Uiso   1.00
O279   O     0.16666   0.77321   0.12706   0.00000  Uiso   1.00
O280   O     0.16667   0.89346   0.20628   0.00000  Uiso   1.00
C281   C     0.16760   0.75401   0.16633   0.00000  Uiso   1.00
C282   C     0.16572   0.91266   0.16701   0.00000  Uiso   1.00
O283   O     0.09161   0.83334   0.19712   0.00000  Uiso   1.00
O284   O     0.24172   0.83333   0.13621   0.00000  Uiso   1.00
O285   O     0.09161   0.83333   0.11793   0.00000  Uiso   1.00
O286   O     0.24172   0.83334   0.21540   0.00000  Uiso   1.00
C287   C     0.06805   0.83340   0.15472   0.00000  Uiso   1.00
C288   C     0.26528   0.83326   0.17861   0.00000  Uiso   1.00
Cu289  Cu    0.16667   0.83334   0.21355   0.00000  Uiso   1.00
Cu290  Cu    0.16667   0.83333   0.11978   0.00000  Uiso   1.00
N291   N     0.16668   0.83334   0.28403   0.00000  Uiso   1.00
N292   N     0.16665   0.83332   0.04931   0.00000  Uiso   1.00
C293   C     0.01340   0.82856   0.14858   0.00000  Uiso   1.00
C294   C     0.31993   0.83809   0.18475   0.00000  Uiso   1.00
C295   C     0.16881   0.68639   0.12326   0.00000  Uiso   1.00
C296   C     0.16449   0.98028   0.21007   0.00000  Uiso   1.00
C297   C     0.16652   0.97741   0.12483   0.00000  Uiso   1.00
C298   C     0.16679   0.68926   0.20850   0.00000  Uiso   1.00
H299   H     0.16726   0.96026   0.09211   0.00000  Uiso   1.00
H300   H     0.16604   0.70641   0.24122   0.00000  Uiso   1.00
C301   C     0.16485   0.95729   0.16770   0.00000  Uiso   1.00
C302   C     0.16846   0.70938   0.16563   0.00000  Uiso   1.00
C303   C     0.13349   0.80915   0.02034   0.00000  Uiso   1.00
C304   C     0.19985   0.85752   0.31299   0.00000  Uiso   1.00
H305   H     0.10700   0.78974   0.03553   0.00000  Uiso   1.00
H306   H     0.22633   0.87693   0.29781   0.00000  Uiso   1.00
C307   C     0.13350   0.80916   0.30402   0.00000  Uiso   1.00
C308   C     0.19984   0.85750   0.02931   0.00000  Uiso   1.00
H309   H     0.10699   0.78978   0.28167   0.00000  Uiso   1.00
H310   H     0.22634   0.87689   0.05166   0.00000  Uiso   1.00
N311   N     0.32388   0.80784   0.10610   0.00000  Uiso   1.00
O312   O     0.32933   0.82238   0.06477   0.00000  Uiso   1.00
O313   O     0.30484   0.77140   0.10877   0.00000  Uiso   1.00
N314   N     0.00945   0.85881   0.22723   0.00000  Uiso   1.00
O315   O     0.00403   0.84425   0.26856   0.00000  Uiso   1.00
O316   O     0.02845   0.89527   0.22457   0.00000  Uiso   1.00
N317   N     0.17239   0.70496   0.07849   0.00000  Uiso   1.00
O318   O     0.21456   0.72298   0.07164   0.00000  Uiso   1.00
O319   O     0.13902   0.69576   0.04206   0.00000  Uiso   1.00
N320   N     0.16087   0.96171   0.25484   0.00000  Uiso   1.00
O321   O     0.11873   0.94362   0.26163   0.00000  Uiso   1.00
O322   O     0.19413   0.97101   0.29132   0.00000  Uiso   1.00
O323   O     0.50000   0.77322   0.20625   0.00000  Uiso   1.00
O324   O     0.50000   0.89345   0.12709   0.00000  Uiso   1.00
O325   O     0.50000   0.77321   0.12706   0.00000  Uiso   1.00
O326   O     0.50000   0.89346   0.20628   0.00000  Uiso   1.00
C327   C     0.50094   0.75401   0.16633   0.00000  Uiso   1.00
C328   C     0.49905   0.91266   0.16701   0.00000  Uiso   1.00
O329   O     0.42495   0.83334   0.19712   0.00000  Uiso   1.00
O330   O     0.57505   0.83333   0.13621   0.00000  Uiso   1.00
O331   O     0.42494   0.83333   0.11793   0.00000  Uiso   1.00
O332   O     0.57506   0.83334   0.21540   0.00000  Uiso   1.00
C333   C     0.40139   0.83340   0.15472   0.00000  Uiso   1.00
C334   C     0.59861   0.83326   0.17861   0.00000  Uiso   1.00
Cu335  Cu    0.50000   0.83334   0.21355   0.00000  Uiso   1.00
Cu336  Cu    0.50000   0.83333   0.11978   0.00000  Uiso   1.00
N337   N     0.50001   0.83334   0.28403   0.00000  Uiso   1.00
N338   N     0.49999   0.83332   0.04931   0.00000  Uiso   1.00
C339   C     0.34673   0.82856   0.14858   0.00000  Uiso   1.00
C340   C     0.65327   0.83809   0.18475   0.00000  Uiso   1.00
C341   C     0.50214   0.68639   0.12326   0.00000  Uiso   1.00
C342   C     0.49783   0.98028   0.21007   0.00000  Uiso   1.00
C343   C     0.49985   0.97741   0.12483   0.00000  Uiso   1.00
C344   C     0.50012   0.68926   0.20850   0.00000  Uiso   1.00
H345   H     0.50059   0.96026   0.09211   0.00000  Uiso   1.00
H346   H     0.49937   0.70641   0.24122   0.00000  Uiso   1.00
C347   C     0.49819   0.95729   0.16770   0.00000  Uiso   1.00
C348   C     0.50179   0.70938   0.16563   0.00000  Uiso   1.00
C349   C     0.46682   0.80915   0.02034   0.00000  Uiso   1.00
C350   C     0.53318   0.85752   0.31299   0.00000  Uiso   1.00
H351   H     0.44034   0.78974   0.03553   0.00000  Uiso   1.00
H352   H     0.55966   0.87693   0.29781   0.00000  Uiso   1.00
C353   C     0.46683   0.80916   0.30402   0.00000  Uiso   1.00
C354   C     0.53317   0.85750   0.02931   0.00000  Uiso   1.00
H355   H     0.44032   0.78978   0.28167   0.00000  Uiso   1.00
H356   H     0.55968   0.87689   0.05166   0.00000  Uiso   1.00
N357   N     0.65721   0.80784   0.10610   0.00000  Uiso   1.00
O358   O     0.66267   0.82238   0.06477   0.00000  Uiso   1.00
O359   O     0.63818   0.77140   0.10877   0.00000  Uiso   1.00
N360   N     0.34279   0.85881   0.22723   0.00000  Uiso   1.00
O361   O     0.33736   0.84425   0.26856   0.00000  Uiso   1.00
O362   O     0.36179   0.89527   0.22457   0.00000  Uiso   1.00
N363   N     0.50572   0.70496   0.07849   0.00000  Uiso   1.00
O364   O     0.54789   0.72298   0.07164   0.00000  Uiso   1.00
O365   O     0.47235   0.69576   0.04206   0.00000  Uiso   1.00
N366   N     0.49420   0.96171   0.25484   0.00000  Uiso   1.00
O367   O     0.45206   0.94362   0.26163   0.00000  Uiso   1.00
O368   O     0.52747   0.97101   0.29132   0.00000  Uiso   1.00
O369   O     0.83333   0.77322   0.20625   0.00000  Uiso   1.00
O370   O     0.83334   0.89345   0.12709   0.00000  Uiso   1.00
O371   O     0.83333   0.77321   0.12706   0.00000  Uiso   1.00
O372   O     0.83334   0.89346   0.20628   0.00000  Uiso   1.00
C373   C     0.83427   0.75401   0.16633   0.00000  Uiso   1.00
C374   C     0.83239   0.91266   0.16701   0.00000  Uiso   1.00
O375   O     0.75828   0.83334   0.19712   0.00000  Uiso   1.00
O376   O     0.90839   0.83333   0.13621   0.00000  Uiso   1.00
O377   O     0.75828   0.83333   0.11793   0.00000  Uiso   1.00
O378   O     0.90839   0.83334   0.21540   0.00000  Uiso   1.00
C379   C     0.73472   0.83340   0.15472   0.00000  Uiso   1.00
C380   C     0.93195   0.83326   0.17861   0.00000  Uiso   1.00
Cu381  Cu    0.83333   0.83334   0.21355   0.00000  Uiso   1.00
Cu382  Cu    0.83333   0.83333   0.11978   0.00000  Uiso   1.00
N383   N     0.83335   0.83334   0.28403   0.00000  Uiso   1.00
N384   N     0.83332   0.83332   0.04931   0.00000  Uiso   1.00
C385   C     0.68007   0.82856   0.14858   0.00000  Uiso   1.00
C386   C     0.98660   0.83809   0.18475   0.00000  Uiso   1.00
C387   C     0.83547   0.68639   0.12326   0.00000  Uiso   1.00
C388   C     0.83116   0.98028   0.21007   0.00000  Uiso   1.00
C389   C     0.83318   0.97741   0.12483   0.00000  Uiso   1.00
C390   C     0.83346   0.68926   0.20850   0.00000  Uiso   1.00
H391   H     0.83393   0.96026   0.09211   0.00000  Uiso   1.00
H392   H     0.83271   0.70641   0.24122   0.00000  Uiso   1.00
C393   C     0.83152   0.95729   0.16770   0.00000  Uiso   1.00
C394   C     0.83512   0.70938   0.16563   0.00000  Uiso   1.00
C395   C     0.80015   0.80915   0.02034   0.00000  Uiso   1.00
C396   C     0.86651   0.85752   0.31299   0.00000  Uiso   1.00
H397   H     0.77367   0.78974   0.03553   0.00000  Uiso   1.00
H398   H     0.89300   0.87693   0.29781   0.00000  Uiso   1.00
C399   C     0.80016   0.80916   0.30402   0.00000  Uiso   1.00
C400   C     0.86650   0.85750   0.02931   0.00000  Uiso   1.00
H401   H     0.77366   0.78978   0.28167   0.00000  Uiso   1.00
H402   H     0.89301   0.87689   0.05166   0.00000  Uiso   1.00
N403   N     0.99055   0.80784   0.10610   0.00000  Uiso   1.00
O404   O     0.99600   0.82238   0.06477   0.00000  Uiso   1.00
O405   O     0.97151   0.77140   0.10877   0.00000  Uiso   1.00
N406   N     0.67612   0.85881   0.22723   0.00000  Uiso   1.00
O407   O     0.67069   0.84425   0.26856   0.00000  Uiso   1.00
O408   O     0.69512   0.89527   0.22457   0.00000  Uiso   1.00
N409   N     0.83906   0.70496   0.07849   0.00000  Uiso   1.00
O410   O     0.88123   0.72298   0.07164   0.00000  Uiso   1.00
O411   O     0.80569   0.69576   0.04206   0.00000  Uiso   1.00
N412   N     0.82754   0.96171   0.25484   0.00000  Uiso   1.00
O413   O     0.78539   0.94362   0.26163   0.00000  Uiso   1.00
O414   O     0.86080   0.97101   0.29132   0.00000  Uiso   1.00
O415   O     0.16666   0.10655   0.53958   0.00000  Uiso   1.00
O416   O     0.16667   0.22678   0.46042   0.00000  Uiso   1.00
O417   O     0.16666   0.10654   0.46039   0.00000  Uiso   1.00
O418   O     0.16667   0.22679   0.53961   0.00000  Uiso   1.00
C419   C     0.16760   0.08734   0.49966   0.00000  Uiso   1.00
C420   C     0.16572   0.24599   0.50034   0.00000  Uiso   1.00
O421   O     0.09161   0.16667   0.53046   0.00000  Uiso   1.00
O422   O     0.24172   0.16666   0.46954   0.00000  Uiso   1.00
O423   O     0.09161   0.16666   0.45127   0.00000  Uiso   1.00
O424   O     0.24172   0.16667   0.54873   0.00000  Uiso   1.00
C425   C     0.06805   0.16674   0.48805   0.00000  Uiso   1.00
C426   C     0.26528   0.16659   0.51195   0.00000  Uiso   1.00
Cu427  Cu    0.16667   0.16667   0.54689   0.00000  Uiso   1.00
Cu428  Cu    0.16667   0.16666   0.45311   0.00000  Uiso   1.00
N429   N     0.16668   0.16668   0.61736   0.00000  Uiso   1.00
N430   N     0.16665   0.16666   0.38264   0.00000  Uiso   1.00
C431   C     0.01340   0.16190   0.48192   0.00000  Uiso   1.00
C432   C     0.31993   0.17142   0.51809   0.00000  Uiso   1.00
C433   C     0.16881   0.01972   0.45659   0.00000  Uiso   1.00
C434   C     0.16449   0.31361   0.54341   0.00000  Uiso   1.00
C435   C     0.16652   0.31074   0.45817   0.00000  Uiso   1.00
C436   C     0.16679   0.02259   0.54183   0.00000  Uiso   1.00
H437   H     0.16726   0.29360   0.42544   0.00000  Uiso   1.00
H438   H     0.16604   0.03974   0.57456   0.00000  Uiso   1.00
C439   C     0.16485   0.29062   0.50104   0.00000  Uiso   1.00
C440   C     0.16846   0.04271   0.49896   0.00000  Uiso   1.00
C441   C     0.13349   0.14248   0.35368   0.00000  Uiso   1.00
C442   C     0.19985   0.19085   0.64632   0.00000  Uiso   1.00
H443   H     0.10700   0.12307   0.36886   0.00000  Uiso   1.00
H444   H     0.22633   0.21026   0.63114   0.00000  Uiso   1.00
C445   C     0.13350   0.14250   0.63735   0.00000  Uiso   1.00
C446   C     0.19984   0.19084   0.36265   0.00000  Uiso   1.00
H447   H     0.10699   0.12311   0.61501   0.00000  Uiso   1.00
H448   H     0.22634   0.21022   0.38499   0.00000  Uiso   1.00
N449   N     0.32388   0.14117   0.43944   0.00000  Uiso   1.00
O450   O     0.32933   0.15571   0.39811   0.00000  Uiso   1.00
O451   O     0.30484   0.10473   0.44210   0.00000  Uiso   1.00
N452   N     0.00945   0.19214   0.56057   0.00000  Uiso   1.00
O453   O     0.00403   0.17759   0.60189   0.00000  Uiso   1.00
O454   O     0.02845   0.22860   0.55791   0.00000  Uiso   1.00
N455   N     0.17239   0.03829   0.41183   0.00000  Uiso   1.00
O456   O     0.21456   0.05632   0.40497   0.00000  Uiso   1.00
O457   O     0.13902   0.02909   0.37539   0.00000  Uiso   1.00
N458   N     0.16087   0.29505   0.58817   0.00000  Uiso   1.00
O459   O     0.11873   0.27695   0.59496   0.00000  Uiso   1.00
O460   O     0.19413   0.30434   0.62466   0.00000  Uiso   1.00
O461   O     0.50000   0.10655   0.53958   0.00000  Uiso   1.00
O462   O     0.50000   0.22678   0.46042   0.00000  Uiso   1.00
O463   O     0.50000   0.10654   0.46039   0.00000  Uiso   1.00
O464   O     0.50000   0.22679   0.53961   0.00000  Uiso   1.00
C465   C     0.50094   0.08734   0.49966   0.00000  Uiso   1.00
C466   C     0.49905   0.24599   0.50034   0.00000  Uiso   1.00
O467   O     0.42495   0.16667   0.53046   0.00000  Uiso   1.00
O468   O     0.57505   0.16666   0.46954   0.00000  Uiso   1.00
O469   O     0.42494   0.16666   0.45127   0.00000  Uiso   1.00
O470   O     0.57506   0.16667   0.54873   0.00000  Uiso   1.00
C471   C     0.40139   0.16674   0.48805   0.00000  Uiso   1.00
C472   C     0.59861   0.16659   0.51195   0.00000  Uiso   1.00
Cu473  Cu    0.50000   0.16667   0.54689   0.00000  Uiso   1.00
Cu474  Cu    0.50000   0.16666   0.45311   0.00000  Uiso   1.00
N475   N     0.50001   0.16668   0.61736   0.00000  Uiso   1.00
N476   N     0.49999   0.16666   0.38264   0.00000  Uiso   1.00
C477   C     0.34673   0.16190   0.48192   0.00000  Uiso   1.00
C478   C     0.65327   0.17142   0.51809   0.00000  Uiso   1.00
C479   C     0.50214   0.01972   0.45659   0.00000  Uiso   1.00
C480   C     0.49783   0.31361   0.54341   0.00000  Uiso   1.00
C481   C     0.49985   0.31074   0.45817   0.00000  Uiso   1.00
C482   C     0.50012   0.02259   0.54183   0.00000  Uiso   1.00
H483   H     0.50059   0.29360   0.42544   0.00000  Uiso   1.00
H484   H     0.49937   0.03974   0.57456   0.00000  Uiso   1.00
C485   C     0.49819   0.29062   0.50104   0.00000  Uiso   1.00
C486   C     0.50179   0.04271   0.49896   0.00000  Uiso   1.00
C487   C     0.46682   0.14248   0.35368   0.00000  Uiso   1.00
C488   C     0.53318   0.19085   0.64632   0.00000  Uiso   1.00
H489   H     0.44034   0.12307   0.36886   0.00000  Uiso   1.00
H490   H     0.55966   0.21026   0.63114   0.00000  Uiso   1.00
C491   C     0.46683   0.14250   0.63735   0.00000  Uiso   1.00
C492   C     0.53317   0.19084   0.36265   0.00000  Uiso   1.00
H493   H     0.44032   0.12311   0.61501   0.00000  Uiso   1.00
H494   H     0.55968   0.21022   0.38499   0.00000  Uiso   1.00
N495   N     0.65721   0.14117   0.43944   0.00000  Uiso   1.00
O496   O     0.66267   0.15571   0.39811   0.00000  Uiso   1.00
O497   O     0.63818   0.10473   0.44210   0.00000  Uiso   1.00
N498   N     0.34279   0.19214   0.56057   0.00000  Uiso   1.00
O499   O     0.33736   0.17759   0.60189   0.00000  Uiso   1.00
O500   O     0.36179   0.22860   0.55791   0.00000  Uiso   1.00
N501   N     0.50572   0.03829   0.41183   0.00000  Uiso   1.00
O502   O     0.54789   0.05632   0.40497   0.00000  Uiso   1.00
O503   O     0.47235   0.02909   0.37539   0.00000  Uiso   1.00
N504   N     0.49420   0.29505   0.58817   0.00000  Uiso   1.00
O505   O     0.45206   0.27695   0.59496   0.00000  Uiso   1.00
O506   O     0.52747   0.30434   0.62466   0.00000  Uiso   1.00
O507   O     0.83333   0.10655   0.53958   0.00000  Uiso   1.00
O508   O     0.83334   0.22678   0.46042   0.00000  Uiso   1.00
O509   O     0.83333   0.10654   0.46039   0.00000  Uiso   1.00
O510   O     0.83334   0.22679   0.53961   0.00000  Uiso   1.00
C511   C     0.83427   0.08734   0.49966   0.00000  Uiso   1.00
C512   C     0.83239   0.24599   0.50034   0.00000  Uiso   1.00
O513   O     0.75828   0.16667   0.53046   0.00000  Uiso   1.00
O514   O     0.90839   0.16666   0.46954   0.00000  Uiso   1.00
O515   O     0.75828   0.16666   0.45127   0.00000  Uiso   1.00
O516   O     0.90839   0.16667   0.54873   0.00000  Uiso   1.00
C517   C     0.73472   0.16674   0.48805   0.00000  Uiso   1.00
C518   C     0.93195   0.16659   0.51195   0.00000  Uiso   1.00
Cu519  Cu    0.83333   0.16667   0.54689   0.00000  Uiso   1.00
Cu520  Cu    0.83333   0.16666   0.45311   0.00000  Uiso   1.00
N521   N     0.83335   0.16668   0.61736   0.00000  Uiso   1.00
N522   N     0.83332   0.16666   0.38264   0.00000  Uiso   1.00
C523   C     0.68007   0.16190   0.48192   0.00000  Uiso   1.00
C524   C     0.98660   0.17142   0.51809   0.00000  Uiso   1.00
C525   C     0.83547   0.01972   0.45659   0.00000  Uiso   1.00
C526   C     0.83116   0.31361   0.54341   0.00000  Uiso   1.00
C527   C     0.83318   0.31074   0.45817   0.00000  Uiso   1.00
C528   C     0.83346   0.02259   0.54183   0.00000  Uiso   1.00
H529   H     0.83393   0.29360   0.42544   0.00000  Uiso   1.00
H530   H     0.83271   0.03974   0.57456   0.00000  Uiso   1.00
C531   C     0.83152   0.29062   0.50104   0.00000  Uiso   1.00
C532   C     0.83512   0.04271   0.49896   0.00000  Uiso   1.00
C533   C     0.80015   0.14248   0.35368   0.00000  Uiso   1.00
C534   C     0.86651   0.19085   0.64632   0.00000  Uiso   1.00
H535   H     0.77367   0.12307   0.36886   0.00000  Uiso   1.00
H536   H     0.89300   0.21026   0.63114   0.00000  Uiso   1.00
C537   C     0.80016   0.14250   0.63735   0.00000  Uiso   1.00
C538   C     0.86650   0.19084   0.36265   0.00000  Uiso   1.00
H539   H     0.77366   0.12311   0.61501   0.00000  Uiso   1.00
H540   H     0.89301   0.21022   0.38499   0.00000  Uiso   1.00
N541   N     0.99055   0.14117   0.43944   0.00000  Uiso   1.00
O542   O     0.99600   0.15571   0.39811   0.00000  Uiso   1.00
O543   O     0.97151   0.10473   0.44210   0.00000  Uiso   1.00
N544   N     0.67612   0.19214   0.56057   0.00000  Uiso   1.00
O545   O     0.67069   0.17759   0.60189   0.00000  Uiso   1.00
O546   O     0.69512   0.22860   0.55791   0.00000  Uiso   1.00
N547   N     0.83906   0.03829   0.41183   0.00000  Uiso   1.00
O548   O     0.88123   0.05632   0.40497   0.00000  Uiso   1.00
O549   O     0.80569   0.02909   0.37539   0.00000  Uiso   1.00
N550   N     0.82754   0.29505   0.58817   0.00000  Uiso   1.00
O551   O     0.78539   0.27695   0.59496   0.00000  Uiso   1.00
O552   O     0.86080   0.30434   0.62466   0.00000  Uiso   1.00
O553   O     0.16666   0.43989   0.53958   0.00000  Uiso   1.00
O554   O     0.16667   0.56011   0.46042   0.00000  Uiso   1.00
O555   O     0.16666   0.43988   0.46039   0.00000  Uiso   1.00
O556   O     0.16667   0.56012   0.53961   0.00000  Uiso   1.00
C557   C     0.16760   0.42068   0.49966   0.00000  Uiso   1.00
C558   C     0.16572   0.57932   0.50034   0.00000  Uiso   1.00
O559   O     0.09161   0.50000   0.53046   0.00000  Uiso   1.00
O560   O     0.24172   0.50000   0.46954   0.00000  Uiso   1.00
O561   O     0.09161   0.49999   0.45127   0.00000  Uiso   1.00
O562   O     0.24172   0.50001   0.54873   0.00000  Uiso   1.00
C563   C     0.06805   0.50007   0.48805   0.00000  Uiso   1.00
C564   C     0.26528   0.49993   0.51195   0.00000  Uiso   1.00
Cu565  Cu    0.16667   0.50001   0.54689   0.00000  Uiso   1.00
Cu566  Cu    0.16667   0.49999   0.45311   0.00000  Uiso   1.00
N567   N     0.16668   0.50001   0.61736   0.00000  Uiso   1.00
N568   N     0.16665   0.49999   0.38264   0.00000  Uiso   1.00
C569   C     0.01340   0.49523   0.48192   0.00000  Uiso   1.00
C570   C     0.31993   0.50476   0.51809   0.00000  Uiso   1.00
C571   C     0.16881   0.35306   0.45659   0.00000  Uiso   1.00
C572   C     0.16449   0.64694   0.54341   0.00000  Uiso   1.00
C573   C     0.16652   0.64408   0.45817   0.00000  Uiso   1.00
C574   C     0.16679   0.35592   0.54183   0.00000  Uiso   1.00
H575   H     0.16726   0.62693   0.42544   0.00000  Uiso   1.00
H576   H     0.16604   0.37307   0.57456   0.00000  Uiso   1.00
C577   C     0.16485   0.62395   0.50104   0.00000  Uiso   1.00
C578   C     0.16846   0.37605   0.49896   0.00000  Uiso   1.00
C579   C     0.13349   0.47582   0.35368   0.00000  Uiso   1.00
C580   C     0.19985   0.52418   0.64632   0.00000  Uiso   1.00
H581   H     0.10700   0.45641   0.36886   0.00000  Uiso   1.00
H582   H     0.22633   0.54359   0.63114   0.00000  Uiso   1.00
C583   C     0.13350   0.47583   0.63735   0.00000  Uiso   1.00
C584   C     0.19984   0.52417   0.36265   0.00000  Uiso   1.00
H585   H     0.10699   0.45644   0.61501   0.00000  Uiso   1.00
H586   H     0.22634   0.54356   0.38499   0.00000  Uiso   1.00
N587   N     0.32388   0.47450   0.43944   0.00000  Uiso   1.00
O588   O     0.32933   0.48904   0.39811   0.00000  Uiso   1.00
O589   O     0.30484   0.43806   0.44210   0.00000  Uiso   1.00
N590   N     0.00945   0.52548   0.56057   0.00000  Uiso   1.00
O591   O     0.00403   0.51092   0.60189   0.00000  Uiso   1.00
O592   O     0.02845   0.56193   0.55791   0.00000  Uiso   1.00
N593   N     0.17239   0.37162   0.41183   0.00000  Uiso   1.00
O594   O     0.21456   0.38965   0.40497   0.00000  Uiso   1.00
O595   O     0.13902   0.36242   0.37539   0.00000  Uiso   1.00
N596   N     0.16087   0.62838   0.58817   0.00000  Uiso   1.00
O597   O     0.11873   0.61028   0.59496   0.00000  Uiso   1.00
O598   O     0.19413   0.63767   0.62466   0.00000  Uiso   1.00
O599   O     0.50000   0.43989   0.53958   0.00000  Uiso   1.00
O600   O     0.50000   0.56011   0.46042   0.00000  Uiso   1.00
O601   O     0.50000   0.43988   0.46039   0.00000  Uiso   1.00
O602   O     0.50000   0.56012   0.53961   0.00000  Uiso   1.00
C603   C     0.50094   0.42068   0.49966   0.00000  Uiso   1.00
C604   C     0.49905   0.57932   0.50034   0.00000  Uiso   1.00
O605   O     0.42495   0.50000   0.53046   0.00000  Uiso   1.00
O606   O     0.57505   0.50000   0.46954   0.00000  Uiso   1.00
O607   O     0.42494   0.49999   0.45127   0.00000  Uiso   1.00
O608   O     0.57506   0.50001   0.54873   0.00000  Uiso   1.00
C609   C     0.40139   0.50007   0.48805   0.00000  Uiso   1.00
C610   C     0.59861   0.49993   0.51195   0.00000  Uiso   1.00
Cu611  Cu    0.50000   0.50001   0.54689   0.00000  Uiso   1.00
Cu612  Cu    0.50000   0.49999   0.45311   0.00000  Uiso   1.00
N613   N     0.50001   0.50001   0.61736   0.00000  Uiso   1.00
N614   N     0.49999   0.49999   0.38264   0.00000  Uiso   1.00
C615   C     0.34673   0.49523   0.48192   0.00000  Uiso   1.00
C616   C     0.65327   0.50476   0.51809   0.00000  Uiso   1.00
C617   C     0.50214   0.35306   0.45659   0.00000  Uiso   1.00
C618   C     0.49783   0.64694   0.54341   0.00000  Uiso   1.00
C619   C     0.49985   0.64408   0.45817   0.00000  Uiso   1.00
C620   C     0.50012   0.35592   0.54183   0.00000  Uiso   1.00
H621   H     0.50059   0.62693   0.42544   0.00000  Uiso   1.00
H622   H     0.49937   0.37307   0.57456   0.00000  Uiso   1.00
C623   C     0.49819   0.62395   0.50104   0.00000  Uiso   1.00
C624   C     0.50179   0.37605   0.49896   0.00000  Uiso   1.00
C625   C     0.46682   0.47582   0.35368   0.00000  Uiso   1.00
C626   C     0.53318   0.52418   0.64632   0.00000  Uiso   1.00
H627   H     0.44034   0.45641   0.36886   0.00000  Uiso   1.00
H628   H     0.55966   0.54359   0.63114   0.00000  Uiso   1.00
C629   C     0.46683   0.47583   0.63735   0.00000  Uiso   1.00
C630   C     0.53317   0.52417   0.36265   0.00000  Uiso   1.00
H631   H     0.44032   0.45644   0.61501   0.00000  Uiso   1.00
H632   H     0.55968   0.54356   0.38499   0.00000  Uiso   1.00
N633   N     0.65721   0.47450   0.43944   0.00000  Uiso   1.00
O634   O     0.66267   0.48904   0.39811   0.00000  Uiso   1.00
O635   O     0.63818   0.43806   0.44210   0.00000  Uiso   1.00
N636   N     0.34279   0.52548   0.56057   0.00000  Uiso   1.00
O637   O     0.33736   0.51092   0.60189   0.00000  Uiso   1.00
O638   O     0.36179   0.56193   0.55791   0.00000  Uiso   1.00
N639   N     0.50572   0.37162   0.41183   0.00000  Uiso   1.00
O640   O     0.54789   0.38965   0.40497   0.00000  Uiso   1.00
O641   O     0.47235   0.36242   0.37539   0.00000  Uiso   1.00
N642   N     0.49420   0.62838   0.58817   0.00000  Uiso   1.00
O643   O     0.45206   0.61028   0.59496   0.00000  Uiso   1.00
O644   O     0.52747   0.63767   0.62466   0.00000  Uiso   1.00
O645   O     0.83333   0.43989   0.53958   0.00000  Uiso   1.00
O646   O     0.83334   0.56011   0.46042   0.00000  Uiso   1.00
O647   O     0.83333   0.43988   0.46039   0.00000  Uiso   1.00
O648   O     0.83334   0.56012   0.53961   0.00000  Uiso   1.00
C649   C     0.83427   0.42068   0.49966   0.00000  Uiso   1.00
C650   C     0.83239   0.57932   0.50034   0.00000  Uiso   1.00
O651   O     0.75828   0.50000   0.53046   0.00000  Uiso   1.00
O652   O     0.90839   0.50000   0.46954   0.00000  Uiso   1.00
O653   O     0.75828   0.49999   0.45127   0.00000  Uiso   1.00
O654   O     0.90839   0.50001   0.54873   0.00000  Uiso   1.00
C655   C     0.73472   0.50007   0.48805   0.00000  Uiso   1.00
C656   C     0.93195   0.49993   0.51195   0.00000  Uiso   1.00
Cu657  Cu    0.83333   0.50001   0.54689   0.00000  Uiso   1.00
Cu658  Cu    0.83333   0.49999   0.45311   0.00000  Uiso   1.00
N659   N     0.83335   0.50001   0.61736   0.00000  Uiso   1.00
N660   N     0.83332   0.49999   0.38264   0.00000  Uiso   1.00
C661   C     0.68007   0.49523   0.48192   0.00000  Uiso   1.00
C662   C     0.98660   0.50476   0.51809   0.00000  Uiso   1.00
C663   C     0.83547   0.35306   0.45659   0.00000  Uiso   1.00
C664   C     0.83116   0.64694   0.54341   0.00000  Uiso   1.00
C665   C     0.83318   0.64408   0.45817   0.00000  Uiso   1.00
C666   C     0.83346   0.35592   0.54183   0.00000  Uiso   1.00
H667   H     0.83393   0.62693   0.42544   0.00000  Uiso   1.00
H668   H     0.83271   0.37307   0.57456   0.00000  Uiso   1.00
C669   C     0.83152   0.62395   0.50104   0.00000  Uiso   1.00
C670   C     0.83512   0.37605   0.49896   0.00000  Uiso   1.00
C671   C     0.80015   0.47582   0.35368   0.00000  Uiso   1.00
C672   C     0.86651   0.52418   0.64632   0.00000  Uiso   1.00
H673   H     0.77367   0.45641   0.36886   0.00000  Uiso   1.00
H674   H     0.89300   0.54359   0.63114   0.00000  Uiso   1.00
C675   C     0.80016   0.47583   0.63735   0.00000  Uiso   1.00
C676   C     0.86650   0.52417   0.36265   0.00000  Uiso   1.00
H677   H     0.77366   0.45644   0.61501   0.00000  Uiso   1.00
H678   H     0.89301   0.54356   0.38499   0.00000  Uiso   1.00
N679   N     0.99055   0.47450   0.43944   0.00000  Uiso   1.00
O680   O     0.99600   0.48904   0.39811   0.00000  Uiso   1.00
O681   O     0.97151   0.43806   0.44210   0.00000  Uiso   1.00
N682   N     0.67612   0.52548   0.56057   0.00000  Uiso   1.00
O683   O     0.67069   0.51092   0.60189   0.00000  Uiso   1.00
O684   O     0.69512   0.56193   0.55791   0.00000  Uiso   1.00
N685   N     0.83906   0.37162   0.41183   0.00000  Uiso   1.00
O686   O     0.88123   0.38965   0.40497   0.00000  Uiso   1.00
O687   O     0.80569   0.36242   0.37539   0.00000  Uiso   1.00
N688   N     0.82754   0.62838   0.58817   0.00000  Uiso   1.00
O689   O     0.78539   0.61028   0.59496   0.00000  Uiso   1.00
O690   O     0.86080   0.63767   0.62466   0.00000  Uiso   1.00
O691   O     0.16666   0.77322   0.53958   0.00000  Uiso   1.00
O692   O     0.16667   0.89345   0.46042   0.00000  Uiso   1.00
O693   O     0.16666   0.77321   0.46039   0.00000  Uiso   1.00
O694   O     0.16667   0.89346   0.53961   0.00000  Uiso   1.00
C695   C     0.16760   0.75401   0.49966   0.00000  Uiso   1.00
C696   C     0.16572   0.91266   0.50034   0.00000  Uiso   1.00
O697   O     0.09161   0.83334   0.53046   0.00000  Uiso   1.00
O698   O     0.24172   0.83333   0.46954   0.00000  Uiso   1.00
O699   O     0.09161   0.83333   0.45127   0.00000  Uiso   1.00
O700   O     0.24172   0.83334   0.54873   0.00000  Uiso   1.00
C701   C     0.06805   0.83340   0.48805   0.00000  Uiso   1.00
C702   C     0.26528   0.83326   0.51195   0.00000  Uiso   1.00
Cu703  Cu    0.16667   0.83334   0.54689   0.00000  Uiso   1.00
Cu704  Cu    0.16667   0.83333   0.45311   0.00000  Uiso   1.00
N705   N     0.16668   0.83334   0.61736   0.00000  Uiso   1.00
N706   N     0.16665   0.83332   0.38264   0.00000  Uiso   1.00
C707   C     0.01340   0.82856   0.48192   0.00000  Uiso   1.00
C708   C     0.31993   0.83809   0.51809   0.00000  Uiso   1.00
C709   C     0.16881   0.68639   0.45659   0.00000  Uiso   1.00
C710   C     0.16449   0.98028   0.54341   0.00000  Uiso   1.00
C711   C     0.16652   0.97741   0.45817   0.00000  Uiso   1.00
C712   C     0.16679   0.68926   0.54183   0.00000  Uiso   1.00
H713   H     0.16726   0.96026   0.42544   0.00000  Uiso   1.00
H714   H     0.16604   0.70641   0.57456   0.00000  Uiso   1.00
C715   C     0.16485   0.95729   0.50104   0.00000  Uiso   1.00
C716   C     0.16846   0.70938   0.49896   0.00000  Uiso   1.00
C717   C     0.13349   0.80915   0.35368   0.00000  Uiso   1.00
C718   C     0.19985   0.85752   0.64632   0.00000  Uiso   1.00
H719   H     0.10700   0.78974   0.36886   0.00000  Uiso   1.00
H720   H     0.22633   0.87693   0.63114   0.00000  Uiso   1.00
C721   C     0.13350   0.80916   0.63735   0.00000  Uiso   1.00
C722   C     0.19984   0.85750   0.36265   0.00000  Uiso   1.00
H723   H     0.10699   0.78978   0.61501   0.00000  Uiso   1.00
H724   H     0.22634   0.87689   0.38499   0.00000  Uiso   1.00
N725   N     0.32388   0.80784   0.43944   0.00000  Uiso   1.00
O726   O     0.32933   0.82238   0.39811   0.00000  Uiso   1.00
O727   O     0.30484   0.77140   0.44210   0.00000  Uiso   1.00
N728   N     0.00945   0.85881   0.56057   0.00000  Uiso   1.00
O729   O     0.00403   0.84425   0.60189   0.00000  Uiso   1.00
O730   O     0.02845   0.89527   0.55791   0.00000  Uiso   1.00
N731   N     0.17239   0.70496   0.41183   0.00000  Uiso   1.00
O732   O     0.21456   0.72298   0.40497   0.00000  Uiso   1.00
O733   O     0.13902   0.69576   0.37539   0.00000  Uiso   1.00
N734   N     0.16087   0.96171   0.58817   0.00000  Uiso   1.00
O735   O     0.11873   0.94362   0.59496   0.00000  Uiso   1.00
O736   O     0.19413   0.97101   0.62466   0.00000  Uiso   1.00
O737   O     0.50000   0.77322   0.53958   0.00000  Uiso   1.00
O738   O     0.50000   0.89345   0.46042   0.00000  Uiso   1.00
O739   O     0.50000   0.77321   0.46039   0.00000  Uiso   1.00
O740   O     0.50000   0.89346   0.53961   0.00000  Uiso   1.00
C741   C     0.50094   0.75401   0.49966   0.00000  Uiso   1.00
C742   C     0.49905   0.91266   0.50034   0.00000  Uiso   1.00
O743   O     0.42495   0.83334   0.53046   0.00000  Uiso   1.00
O744   O     0.57505   0.83333   0.46954   0.00000  Uiso   1.00
O745   O     0.42494   0.83333   0.45127   0.00000  Uiso   1.00
O746   O     0.57506   0.83334   0.54873   0.00000  Uiso   1.00
C747   C     0.40139   0.83340   0.48805   0.00000  Uiso   1.00
C748   C     0.59861   0.83326   0.51195   0.00000  Uiso   1.00
Cu749  Cu    0.50000   0.83334   0.54689   0.00000  Uiso   1.00
Cu750  Cu    0.50000   0.83333   0.45311   0.00000  Uiso   1.00
N751   N     0.50001   0.83334   0.61736   0.00000  Uiso   1.00
N752   N     0.49999   0.83332   0.38264   0.00000  Uiso   1.00
C753   C     0.34673   0.82856   0.48192   0.00000  Uiso   1.00
C754   C     0.65327   0.83809   0.51809   0.00000  Uiso   1.00
C755   C     0.50214   0.68639   0.45659   0.00000  Uiso   1.00
C756   C     0.49783   0.98028   0.54341   0.00000  Uiso   1.00
C757   C     0.49985   0.97741   0.45817   0.00000  Uiso   1.00
C758   C     0.50012   0.68926   0.54183   0.00000  Uiso   1.00
H759   H     0.50059   0.96026   0.42544   0.00000  Uiso   1.00
H760   H     0.49937   0.70641   0.57456   0.00000  Uiso   1.00
C761   C     0.49819   0.95729   0.50104   0.00000  Uiso   1.00
C762   C     0.50179   0.70938   0.49896   0.00000  Uiso   1.00
C763   C     0.46682   0.80915   0.35368   0.00000  Uiso   1.00
C764   C     0.53318   0.85752   0.64632   0.00000  Uiso   1.00
H765   H     0.44034   0.78974   0.36886   0.00000  Uiso   1.00
H766   H     0.55966   0.87693   0.63114   0.00000  Uiso   1.00
C767   C     0.46683   0.80916   0.63735   0.00000  Uiso   1.00
C768   C     0.53317   0.85750   0.36265   0.00000  Uiso   1.00
H769   H     0.44032   0.78978   0.61501   0.00000  Uiso   1.00
H770   H     0.55968   0.87689   0.38499   0.00000  Uiso   1.00
N771   N     0.65721   0.80784   0.43944   0.00000  Uiso   1.00
O772   O     0.66267   0.82238   0.39811   0.00000  Uiso   1.00
O773   O     0.63818   0.77140   0.44210   0.00000  Uiso   1.00
N774   N     0.34279   0.85881   0.56057   0.00000  Uiso   1.00
O775   O     0.33736   0.84425   0.60189   0.00000  Uiso   1.00
O776   O     0.36179   0.89527   0.55791   0.00000  Uiso   1.00
N777   N     0.50572   0.70496   0.41183   0.00000  Uiso   1.00
O778   O     0.54789   0.72298   0.40497   0.00000  Uiso   1.00
O779   O     0.47235   0.69576   0.37539   0.00000  Uiso   1.00
N780   N     0.49420   0.96171   0.58817   0.00000  Uiso   1.00
O781   O     0.45206   0.94362   0.59496   0.00000  Uiso   1.00
O782   O     0.52747   0.97101   0.62466   0.00000  Uiso   1.00
O783   O     0.83333   0.77322   0.53958   0.00000  Uiso   1.00
O784   O     0.83334   0.89345   0.46042   0.00000  Uiso   1.00
O785   O     0.83333   0.77321   0.46039   0.00000  Uiso   1.00
O786   O     0.83334   0.89346   0.53961   0.00000  Uiso   1.00
C787   C     0.83427   0.75401   0.49966   0.00000  Uiso   1.00
C788   C     0.83239   0.91266   0.50034   0.00000  Uiso   1.00
O789   O     0.75828   0.83334   0.53046   0.00000  Uiso   1.00
O790   O     0.90839   0.83333   0.46954   0.00000  Uiso   1.00
O791   O     0.75828   0.83333   0.45127   0.00000  Uiso   1.00
O792   O     0.90839   0.83334   0.54873   0.00000  Uiso   1.00
C793   C     0.73472   0.83340   0.48805   0.00000  Uiso   1.00
C794   C     0.93195   0.83326   0.51195   0.00000  Uiso   1.00
Cu795  Cu    0.83333   0.83334   0.54689   0.00000  Uiso   1.00
Cu796  Cu    0.83333   0.83333   0.45311   0.00000  Uiso   1.00
N797   N     0.83335   0.83334   0.61736   0.00000  Uiso   1.00
N798   N     0.83332   0.83332   0.38264   0.00000  Uiso   1.00
C799   C     0.68007   0.82856   0.48192   0.00000  Uiso   1.00
C800   C     0.98660   0.83809   0.51809   0.00000  Uiso   1.00
C801   C     0.83547   0.68639   0.45659   0.00000  Uiso   1.00
C802   C     0.83116   0.98028   0.54341   0.00000  Uiso   1.00
C803   C     0.83318   0.97741   0.45817   0.00000  Uiso   1.00
C804   C     0.83346   0.68926   0.54183   0.00000  Uiso   1.00
H805   H     0.83393   0.96026   0.42544   0.00000  Uiso   1.00
H806   H     0.83271   0.70641   0.57456   0.00000  Uiso   1.00
C807   C     0.83152   0.95729   0.50104   0.00000  Uiso   1.00
C808   C     0.83512   0.70938   0.49896   0.00000  Uiso   1.00
C809   C     0.80015   0.80915   0.35368   0.00000  Uiso   1.00
C810   C     0.86651   0.85752   0.64632   0.00000  Uiso   1.00
H811   H     0.77367   0.78974   0.36886   0.00000  Uiso   1.00
H812   H     0.89300   0.87693   0.63114   0.00000  Uiso   1.00
C813   C     0.80016   0.80916   0.63735   0.00000  Uiso   1.00
C814   C     0.86650   0.85750   0.36265   0.00000  Uiso   1.00
H815   H     0.77366   0.78978   0.61501   0.00000  Uiso   1.00
H816   H     0.89301   0.87689   0.38499   0.00000  Uiso   1.00
N817   N     0.99055   0.80784   0.43944   0.00000  Uiso   1.00
O818   O     0.99600   0.82238   0.39811   0.00000  Uiso   1.00
O819   O     0.97151   0.77140   0.44210   0.00000  Uiso   1.00
N820   N     0.67612   0.85881   0.56057   0.00000  Uiso   1.00
O821   O     0.67069   0.84425   0.60189   0.00000  Uiso   1.00
O822   O     0.69512   0.89527   0.55791   0.00000  Uiso   1.00
N823   N     0.83906   0.70496   0.41183   0.00000  Uiso   1.00
O824   O     0.88123   0.72298   0.40497   0.00000  Uiso   1.00
O825   O     0.80569   0.69576   0.37539   0.00000  Uiso   1.00
N826   N     0.82754   0.96171   0.58817   0.00000  Uiso   1.00
O827   O     0.78539   0.94362   0.59496   0.00000  Uiso   1.00
O828   O     0.86080   0.97101   0.62466   0.00000  Uiso   1.00
O829   O     0.16666   0.10655   0.87291   0.00000  Uiso   1.00
O830   O     0.16667   0.22678   0.79375   0.00000  Uiso   1.00
O831   O     0.16666   0.10654   0.79372   0.00000  Uiso   1.00
O832   O     0.16667   0.22679   0.87294   0.00000  Uiso   1.00
C833   C     0.16760   0.08734   0.83299   0.00000  Uiso   1.00
C834   C     0.16572   0.24599   0.83367   0.00000  Uiso   1.00
O835   O     0.09161   0.16667   0.86379   0.00000  Uiso   1.00
O836   O     0.24172   0.16666   0.80288   0.00000  Uiso   1.00
O837   O     0.09161   0.16666   0.78460   0.00000  Uiso   1.00
O838   O     0.24172   0.16667   0.88207   0.00000  Uiso   1.00
C839   C     0.06805   0.16674   0.82139   0.00000  Uiso   1.00
C840   C     0.26528   0.16659   0.84528   0.00000  Uiso   1.00
Cu841  Cu    0.16667   0.16667   0.88022   0.00000  Uiso   1.00
Cu842  Cu    0.16667   0.16666   0.78645   0.00000  Uiso   1.00
N843   N     0.16668   0.16668   0.95069   0.00000  Uiso   1.00
N844   N     0.16665   0.16666   0.71597   0.00000  Uiso   1.00
C845   C     0.01340   0.16190   0.81525   0.00000  Uiso   1.00
C846   C     0.31993   0.17142   0.85142   0.00000  Uiso   1.00
C847   C     0.16881   0.01972   0.78993   0.00000  Uiso   1.00
C848   C     0.16449   0.31361   0.87674   0.00000  Uiso   1.00
C849   C     0.16652   0.31074   0.79150   0.00000  Uiso   1.00
C850   C     0.16679   0.02259   0.87516   0.00000  Uiso   1.00
H851   H     0.16726   0.29360   0.75878   0.00000  Uiso   1.00
H852   H     0.16604   0.03974   0.90789   0.00000  Uiso   1.00
C853   C     0.16485   0.29062   0.83437   0.00000  Uiso   1.00
C854   C     0.16846   0.04271   0.83230   0.00000  Uiso   1.00
C855   C     0.13349   0.14248   0.68701   0.00000  Uiso   1.00
C856   C     0.19985   0.19085   0.97966   0.00000  Uiso   1.00
H857   H     0.10700   0.12307   0.70219   0.00000  Uiso   1.00
H858   H     0.22633   0.21026   0.96447   0.00000  Uiso   1.00
C859   C     0.13350   0.14250   0.97069   0.00000  Uiso   1.00
C860   C     0.19984   0.19084   0.69598   0.00000  Uiso   1.00
H861   H     0.10699   0.12311   0.94834   0.00000  Uiso   1.00
H862   H     0.22634   0.21022   0.71832   0.00000  Uiso   1.00
N863   N     0.32388   0.14117   0.77277   0.00000  Uiso   1.00
O864   O     0.32933   0.15571   0.73144   0.00000  Uiso   1.00
O865   O     0.30484   0.10473   0.77544   0.00000  Uiso   1.00
N866   N     0.00945   0.19214   0.89390   0.00000  Uiso   1.00
O867   O     0.00403   0.17759   0.93523   0.00000  Uiso   1.00
O868   O     0.02845   0.22860   0.89124   0.00000  Uiso   1.00
N869   N     0.17239   0.03829   0.74516   0.00000  Uiso   1.00
O870   O     0.21456   0.05632   0.73830   0.00000  Uiso   1.00
O871   O     0.13902   0.02909   0.70872   0.00000  Uiso   1.00
N872   N     0.16087   0.29505   0.92150   0.00000  Uiso   1.00
O873   O     0.11873   0.27695   0.92830   0.00000  Uiso   1.00
O874   O     0.19413   0.30434   0.95799   0.00000  Uiso   1.00
O875   O     0.50000   0.10655   0.87291   0.00000  Uiso   1.00
O876   O     0.50000   0.22678   0.79375   0.00000  Uiso   1.00
O877   O     0.50000   0.10654   0.79372   0.00000  Uiso   1.00
O878   O     0.50000   0.22679   0.87294   0.00000  Uiso   1.00
C879   C     0.50094   0.08734   0.83299   0.00000  Uiso   1.00
C880   C     0.49905   0.24599   0.83367   0.00000  Uiso   1.00
O881   O     0.42495   0.16667   0.86379   0.00000  Uiso   1.00
O882   O     0.57505   0.16666   0.80288   0.00000  Uiso   1.00
O883   O     0.42494   0.16666   0.78460   0.00000  Uiso   1.00
O884   O     0.57506   0.16667   0.88207   0.00000  Uiso   1.00
C885   C     0.40139   0.16674   0.82139   0.00000  Uiso   1.00
C886   C     0.59861   0.16659   0.84528   0.00000  Uiso   1.00
Cu887  Cu    0.50000   0.16667   0.88022   0.00000  Uiso   1.00
Cu888  Cu    0.50000   0.16666   0.78645   0.00000  Uiso   1.00
N889   N     0.50001   0.16668   0.95069   0.00000  Uiso   1.00
N890   N     0.49999   0.16666   0.71597   0.00000  Uiso   1.00
C891   C     0.34673   0.16190   0.81525   0.00000  Uiso   1.00
C892   C     0.65327   0.17142   0.85142   0.00000  Uiso   1.00
C893   C     0.50214   0.01972   0.78993   0.00000  Uiso   1.00
C894   C     0.49783   0.31361   0.87674   0.00000  Uiso   1.00
C895   C     0.49985   0.31074   0.79150   0.00000  Uiso   1.00
C896   C     0.50012   0.02259   0.87516   0.00000  Uiso   1.00
H897   H     0.50059   0.29360   0.75878   0.00000  Uiso   1.00
H898   H     0.49937   0.03974   0.90789   0.00000  Uiso   1.00
C899   C     0.49819   0.29062   0.83437   0.00000  Uiso   1.00
C900   C     0.50179   0.04271   0.83230   0.00000  Uiso   1.00
C901   C     0.46682   0.14248   0.68701   0.00000  Uiso   1.00
C902   C     0.53318   0.19085   0.97966   0.00000  Uiso   1.00
H903   H     0.44034   0.12307   0.70219   0.00000  Uiso   1.00
H904   H     0.55966   0.21026   0.96447   0.00000  Uiso   1.00
C905   C     0.46683   0.14250   0.97069   0.00000  Uiso   1.00
C906   C     0.53317   0.19084   0.69598   0.00000  Uiso   1.00
H907   H     0.44032   0.12311   0.94834   0.00000  Uiso   1.00
H908   H     0.55968   0.21022   0.71832   0.00000  Uiso   1.00
N909   N     0.65721   0.14117   0.77277   0.00000  Uiso   1.00
O910   O     0.66267   0.15571   0.73144   0.00000  Uiso   1.00
O911   O     0.63818   0.10473   0.77544   0.00000  Uiso   1.00
N912   N     0.34279   0.19214   0.89390   0.00000  Uiso   1.00
O913   O     0.33736   0.17759   0.93523   0.00000  Uiso   1.00
O914   O     0.36179   0.22860   0.89124   0.00000  Uiso   1.00
N915   N     0.50572   0.03829   0.74516   0.00000  Uiso   1.00
O916   O     0.54789   0.05632   0.73830   0.00000  Uiso   1.00
O917   O     0.47235   0.02909   0.70872   0.00000  Uiso   1.00
N918   N     0.49420   0.29505   0.92150   0.00000  Uiso   1.00
O919   O     0.45206   0.27695   0.92830   0.00000  Uiso   1.00
O920   O     0.52747   0.30434   0.95799   0.00000  Uiso   1.00
O921   O     0.83333   0.10655   0.87291   0.00000  Uiso   1.00
O922   O     0.83334   0.22678   0.79375   0.00000  Uiso   1.00
O923   O     0.83333   0.10654   0.79372   0.00000  Uiso   1.00
O924   O     0.83334   0.22679   0.87294   0.00000  Uiso   1.00
C925   C     0.83427   0.08734   0.83299   0.00000  Uiso   1.00
C926   C     0.83239   0.24599   0.83367   0.00000  Uiso   1.00
O927   O     0.75828   0.16667   0.86379   0.00000  Uiso   1.00
O928   O     0.90839   0.16666   0.80288   0.00000  Uiso   1.00
O929   O     0.75828   0.16666   0.78460   0.00000  Uiso   1.00
O930   O     0.90839   0.16667   0.88207   0.00000  Uiso   1.00
C931   C     0.73472   0.16674   0.82139   0.00000  Uiso   1.00
C932   C     0.93195   0.16659   0.84528   0.00000  Uiso   1.00
Cu933  Cu    0.83333   0.16667   0.88022   0.00000  Uiso   1.00
Cu934  Cu    0.83333   0.16666   0.78645   0.00000  Uiso   1.00
N935   N     0.83335   0.16668   0.95069   0.00000  Uiso   1.00
N936   N     0.83332   0.16666   0.71597   0.00000  Uiso   1.00
C937   C     0.68007   0.16190   0.81525   0.00000  Uiso   1.00
C938   C     0.98660   0.17142   0.85142   0.00000  Uiso   1.00
C939   C     0.83547   0.01972   0.78993   0.00000  Uiso   1.00
C940   C     0.83116   0.31361   0.87674   0.00000  Uiso   1.00
C941   C     0.83318   0.31074   0.79150   0.00000  Uiso   1.00
C942   C     0.83346   0.02259   0.87516   0.00000  Uiso   1.00
H943   H     0.83393   0.29360   0.75878   0.00000  Uiso   1.00
H944   H     0.83271   0.03974   0.90789   0.00000  Uiso   1.00
C945   C     0.83152   0.29062   0.83437   0.00000  Uiso   1.00
C946   C     0.83512   0.04271   0.83230   0.00000  Uiso   1.00
C947   C     0.80015   0.14248   0.68701   0.00000  Uiso   1.00
C948   C     0.86651   0.19085   0.97966   0.00000  Uiso   1.00
H949   H     0.77367   0.12307   0.70219   0.00000  Uiso   1.00
H950   H     0.89300   0.21026   0.96447   0.00000  Uiso   1.00
C951   C     0.80016   0.14250   0.97069   0.00000  Uiso   1.00
C952   C     0.86650   0.19084   0.69598   0.00000  Uiso   1.00
H953   H     0.77366   0.12311   0.94834   0.00000  Uiso   1.00
H954   H     0.89301   0.21022   0.71832   0.00000  Uiso   1.00
N955   N     0.99055   0.14117   0.77277   0.00000  Uiso   1.00
O956   O     0.99600   0.15571   0.73144   0.00000  Uiso   1.00
O957   O     0.97151   0.10473   0.77544   0.00000  Uiso   1.00
N958   N     0.67612   0.19214   0.89390   0.00000  Uiso   1.00
O959   O     0.67069   0.17759   0.93523   0.00000  Uiso   1.00
O960   O     0.69512   0.22860   0.89124   0.00000  Uiso   1.00
N961   N     0.83906   0.03829   0.74516   0.00000  Uiso   1.00
O962   O     0.88123   0.05632   0.73830   0.00000  Uiso   1.00
O963   O     0.80569   0.02909   0.70872   0.00000  Uiso   1.00
N964   N     0.82754   0.29505   0.92150   0.00000  Uiso   1.00
O965   O     0.78539   0.27695   0.92830   0.00000  Uiso   1.00
O966   O     0.86080   0.30434   0.95799   0.00000  Uiso   1.00
O967   O     0.16666   0.43989   0.87291   0.00000  Uiso   1.00
O968   O     0.16667   0.56011   0.79375   0.00000  Uiso   1.00
O969   O     0.16666   0.43988   0.79372   0.00000  Uiso   1.00
O970   O     0.16667   0.56012   0.87294   0.00000  Uiso   1.00
C971   C     0.16760   0.42068   0.83299   0.00000  Uiso   1.00
C972   C     0.16572   0.57932   0.83367   0.00000  Uiso   1.00
O973   O     0.09161   0.50000   0.86379   0.00000  Uiso   1.00
O974   O     0.24172   0.50000   0.80288   0.00000  Uiso   1.00
O975   O     0.09161   0.49999   0.78460   0.00000  Uiso   1.00
O976   O     0.24172   0.50001   0.88207   0.00000  Uiso   1.00
C977   C     0.06805   0.50007   0.82139   0.00000  Uiso   1.00
C978   C     0.26528   0.49993   0.84528   0.00000  Uiso   1.00
Cu979  Cu    0.16667   0.50001   0.88022   0.00000  Uiso   1.00
Cu980  Cu    0.16667   0.49999   0.78645   0.00000  Uiso   1.00
N981   N     0.16668   0.50001   0.95069   0.00000  Uiso   1.00
N982   N     0.16665   0.49999   0.71597   0.00000  Uiso   1.00
C983   C     0.01340   0.49523   0.81525   0.00000  Uiso   1.00
C984   C     0.31993   0.50476   0.85142   0.00000  Uiso   1.00
C985   C     0.16881   0.35306   0.78993   0.00000  Uiso   1.00
C986   C     0.16449   0.64694   0.87674   0.00000  Uiso   1.00
C987   C     0.16652   0.64408   0.79150   0.00000  Uiso   1.00
C988   C     0.16679   0.35592   0.87516   0.00000  Uiso   1.00
H989   H     0.16726   0.62693   0.75878   0.00000  Uiso   1.00
H990   H     0.16604   0.37307   0.90789   0.00000  Uiso   1.00
C991   C     0.16485   0.62395   0.83437   0.00000  Uiso   1.00
C992   C     0.16846   0.37605   0.83230   0.00000  Uiso   1.00
C993   C     0.13349   0.47582   0.68701   0.00000  Uiso   1.00
C994   C     0.19985   0.52418   0.97966   0.00000  Uiso   1.00
H995   H     0.10700   0.45641   0.70219   0.00000  Uiso   1.00
H996   H     0.22633   0.54359   0.96447   0.00000  Uiso   1.00
C997   C     0.13350   0.47583   0.97069   0.00000  Uiso   1.00
C998   C     0.19984   0.52417   0.69598   0.00000  Uiso   1.00
H999   H     0.10699   0.45644   0.94834   0.00000  Uiso   1.00
H1000  H     0.22634   0.54356   0.71832   0.00000  Uiso   1.00
N1001  N     0.32388   0.47450   0.77277   0.00000  Uiso   1.00
O1002  O     0.32933   0.48904   0.73144   0.00000  Uiso   1.00
O1003  O     0.30484   0.43806   0.77544   0.00000  Uiso   1.00
N1004  N     0.00945   0.52548   0.89390   0.00000  Uiso   1.00
O1005  O     0.00403   0.51092   0.93523   0.00000  Uiso   1.00
O1006  O     0.02845   0.56193   0.89124   0.00000  Uiso   1.00
N1007  N     0.17239   0.37162   0.74516   0.00000  Uiso   1.00
O1008  O     0.21456   0.38965   0.73830   0.00000  Uiso   1.00
O1009  O     0.13902   0.36242   0.70872   0.00000  Uiso   1.00
N1010  N     0.16087   0.62838   0.92150   0.00000  Uiso   1.00
O1011  O     0.11873   0.61028   0.92830   0.00000  Uiso   1.00
O1012  O     0.19413   0.63767   0.95799   0.00000  Uiso   1.00
O1013  O     0.50000   0.43989   0.87291   0.00000  Uiso   1.00
O1014  O     0.50000   0.56011   0.79375   0.00000  Uiso   1.00
O1015  O     0.50000   0.43988   0.79372   0.00000  Uiso   1.00
O1016  O     0.50000   0.56012   0.87294   0.00000  Uiso   1.00
C1017  C     0.50094   0.42068   0.83299   0.00000  Uiso   1.00
C1018  C     0.49905   0.57932   0.83367   0.00000  Uiso   1.00
O1019  O     0.42495   0.50000   0.86379   0.00000  Uiso   1.00
O1020  O     0.57505   0.50000   0.80288   0.00000  Uiso   1.00
O1021  O     0.42494   0.49999   0.78460   0.00000  Uiso   1.00
O1022  O     0.57506   0.50001   0.88207   0.00000  Uiso   1.00
C1023  C     0.40139   0.50007   0.82139   0.00000  Uiso   1.00
C1024  C     0.59861   0.49993   0.84528   0.00000  Uiso   1.00
Cu1025 Cu    0.50000   0.50001   0.88022   0.00000  Uiso   1.00
Cu1026 Cu    0.50000   0.49999   0.78645   0.00000  Uiso   1.00
N1027  N     0.50001   0.50001   0.95069   0.00000  Uiso   1.00
N1028  N     0.49999   0.49999   0.71597   0.00000  Uiso   1.00
C1029  C     0.34673   0.49523   0.81525   0.00000  Uiso   1.00
C1030  C     0.65327   0.50476   0.85142   0.00000  Uiso   1.00
C1031  C     0.50214   0.35306   0.78993   0.00000  Uiso   1.00
C1032  C     0.49783   0.64694   0.87674   0.00000  Uiso   1.00
C1033  C     0.49985   0.64408   0.79150   0.00000  Uiso   1.00
C1034  C     0.50012   0.35592   0.87516   0.00000  Uiso   1.00
H1035  H     0.50059   0.62693   0.75878   0.00000  Uiso   1.00
H1036  H     0.49937   0.37307   0.90789   0.00000  Uiso   1.00
C1037  C     0.49819   0.62395   0.83437   0.00000  Uiso   1.00
C1038  C     0.50179   0.37605   0.83230   0.00000  Uiso   1.00
C1039  C     0.46682   0.47582   0.68701   0.00000  Uiso   1.00
C1040  C     0.53318   0.52418   0.97966   0.00000  Uiso   1.00
H1041  H     0.44034   0.45641   0.70219   0.00000  Uiso   1.00
H1042  H     0.55966   0.54359   0.96447   0.00000  Uiso   1.00
C1043  C     0.46683   0.47583   0.97069   0.00000  Uiso   1.00
C1044  C     0.53317   0.52417   0.69598   0.00000  Uiso   1.00
H1045  H     0.44032   0.45644   0.94834   0.00000  Uiso   1.00
H1046  H     0.55968   0.54356   0.71832   0.00000  Uiso   1.00
N1047  N     0.65721   0.47450   0.77277   0.00000  Uiso   1.00
O1048  O     0.66267   0.48904   0.73144   0.00000  Uiso   1.00
O1049  O     0.63818   0.43806   0.77544   0.00000  Uiso   1.00
N1050  N     0.34279   0.52548   0.89390   0.00000  Uiso   1.00
O1051  O     0.33736   0.51092   0.93523   0.00000  Uiso   1.00
O1052  O     0.36179   0.56193   0.89124   0.00000  Uiso   1.00
N1053  N     0.50572   0.37162   0.74516   0.00000  Uiso   1.00
O1054  O     0.54789   0.38965   0.73830   0.00000  Uiso   1.00
O1055  O     0.47235   0.36242   0.70872   0.00000  Uiso   1.00
N1056  N     0.49420   0.62838   0.92150   0.00000  Uiso   1.00
O1057  O     0.45206   0.61028   0.92830   0.00000  Uiso   1.00
O1058  O     0.52747   0.63767   0.95799   0.00000  Uiso   1.00
O1059  O     0.83333   0.43989   0.87291   0.00000  Uiso   1.00
O1060  O     0.83334   0.56011   0.79375   0.00000  Uiso   1.00
O1061  O     0.83333   0.43988   0.79372   0.00000  Uiso   1.00
O1062  O     0.83334   0.56012   0.87294   0.00000  Uiso   1.00
C1063  C     0.83427   0.42068   0.83299   0.00000  Uiso   1.00
C1064  C     0.83239   0.57932   0.83367   0.00000  Uiso   1.00
O1065  O     0.75828   0.50000   0.86379   0.00000  Uiso   1.00
O1066  O     0.90839   0.50000   0.80288   0.00000  Uiso   1.00
O1067  O     0.75828   0.49999   0.78460   0.00000  Uiso   1.00
O1068  O     0.90839   0.50001   0.88207   0.00000  Uiso   1.00
C1069  C     0.73472   0.50007   0.82139   0.00000  Uiso   1.00
C1070  C     0.93195   0.49993   0.84528   0.00000  Uiso   1.00
Cu1071 Cu    0.83333   0.50001   0.88022   0.00000  Uiso   1.00
Cu1072 Cu    0.83333   0.49999   0.78645   0.00000  Uiso   1.00
N1073  N     0.83335   0.50001   0.95069   0.00000  Uiso   1.00
N1074  N     0.83332   0.49999   0.71597   0.00000  Uiso   1.00
C1075  C     0.68007   0.49523   0.81525   0.00000  Uiso   1.00
C1076  C     0.98660   0.50476   0.85142   0.00000  Uiso   1.00
C1077  C     0.83547   0.35306   0.78993   0.00000  Uiso   1.00
C1078  C     0.83116   0.64694   0.87674   0.00000  Uiso   1.00
C1079  C     0.83318   0.64408   0.79150   0.00000  Uiso   1.00
C1080  C     0.83346   0.35592   0.87516   0.00000  Uiso   1.00
H1081  H     0.83393   0.62693   0.75878   0.00000  Uiso   1.00
H1082  H     0.83271   0.37307   0.90789   0.00000  Uiso   1.00
C1083  C     0.83152   0.62395   0.83437   0.00000  Uiso   1.00
C1084  C     0.83512   0.37605   0.83230   0.00000  Uiso   1.00
C1085  C     0.80015   0.47582   0.68701   0.00000  Uiso   1.00
C1086  C     0.86651   0.52418   0.97966   0.00000  Uiso   1.00
H1087  H     0.77367   0.45641   0.70219   0.00000  Uiso   1.00
H1088  H     0.89300   0.54359   0.96447   0.00000  Uiso   1.00
C1089  C     0.80016   0.47583   0.97069   0.00000  Uiso   1.00
C1090  C     0.86650   0.52417   0.69598   0.00000  Uiso   1.00
H1091  H     0.77366   0.45644   0.94834   0.00000  Uiso   1.00
H1092  H     0.89301   0.54356   0.71832   0.00000  Uiso   1.00
N1093  N     0.99055   0.47450   0.77277   0.00000  Uiso   1.00
O1094  O     0.99600   0.48904   0.73144   0.00000  Uiso   1.00
O1095  O     0.97151   0.43806   0.77544   0.00000  Uiso   1.00
N1096  N     0.67612   0.52548   0.89390   0.00000  Uiso   1.00
O1097  O     0.67069   0.51092   0.93523   0.00000  Uiso   1.00
O1098  O     0.69512   0.56193   0.89124   0.00000  Uiso   1.00
N1099  N     0.83906   0.37162   0.74516   0.00000  Uiso   1.00
O1100  O     0.88123   0.38965   0.73830   0.00000  Uiso   1.00
O1101  O     0.80569   0.36242   0.70872   0.00000  Uiso   1.00
N1102  N     0.82754   0.62838   0.92150   0.00000  Uiso   1.00
O1103  O     0.78539   0.61028   0.92830   0.00000  Uiso   1.00
O1104  O     0.86080   0.63767   0.95799   0.00000  Uiso   1.00
O1105  O     0.16666   0.77322   0.87291   0.00000  Uiso   1.00
O1106  O     0.16667   0.89345   0.79375   0.00000  Uiso   1.00
O1107  O     0.16666   0.77321   0.79372   0.00000  Uiso   1.00
O1108  O     0.16667   0.89346   0.87294   0.00000  Uiso   1.00
C1109  C     0.16760   0.75401   0.83299   0.00000  Uiso   1.00
C1110  C     0.16572   0.91266   0.83367   0.00000  Uiso   1.00
O1111  O     0.09161   0.83334   0.86379   0.00000  Uiso   1.00
O1112  O     0.24172   0.83333   0.80288   0.00000  Uiso   1.00
O1113  O     0.09161   0.83333   0.78460   0.00000  Uiso   1.00
O1114  O     0.24172   0.83334   0.88207   0.00000  Uiso   1.00
C1115  C     0.06805   0.83340   0.82139   0.00000  Uiso   1.00
C1116  C     0.26528   0.83326   0.84528   0.00000  Uiso   1.00
Cu1117 Cu    0.16667   0.83334   0.88022   0.00000  Uiso   1.00
Cu1118 Cu    0.16667   0.83333   0.78645   0.00000  Uiso   1.00
N1119  N     0.16668   0.83334   0.95069   0.00000  Uiso   1.00
N1120  N     0.16665   0.83332   0.71597   0.00000  Uiso   1.00
C1121  C     0.01340   0.82856   0.81525   0.00000  Uiso   1.00
C1122  C     0.31993   0.83809   0.85142   0.00000  Uiso   1.00
C1123  C     0.16881   0.68639   0.78993   0.00000  Uiso   1.00
C1124  C     0.16449   0.98028   0.87674   0.00000  Uiso   1.00
C1125  C     0.16652   0.97741   0.79150   0.00000  Uiso   1.00
C1126  C     0.16679   0.68926   0.87516   0.00000  Uiso   1.00
H1127  H     0.16726   0.96026   0.75878   0.00000  Uiso   1.00
H1128  H     0.16604   0.70641   0.90789   0.00000  Uiso   1.00
C1129  C     0.16485   0.95729   0.83437   0.00000  Uiso   1.00
C1130  C     0.16846   0.70938   0.83230   0.00000  Uiso   1.00
C1131  C     0.13349   0.80915   0.68701   0.00000  Uiso   1.00
C1132  C     0.19985   0.85752   0.97966   0.00000  Uiso   1.00
H1133  H     0.10700   0.78974   0.70219   0.00000  Uiso   1.00
H1134  H     0.22633   0.87693   0.96447   0.00000  Uiso   1.00
C1135  C     0.13350   0.80916   0.97069   0.00000  Uiso   1.00
C1136  C     0.19984   0.85750   0.69598   0.00000  Uiso   1.00
H1137  H     0.10699   0.78978   0.94834   0.00000  Uiso   1.00
H1138  H     0.22634   0.87689   0.71832   0.00000  Uiso   1.00
N1139  N     0.32388   0.80784   0.77277   0.00000  Uiso   1.00
O1140  O     0.32933   0.82238   0.73144   0.00000  Uiso   1.00
O1141  O     0.30484   0.77140   0.77544   0.00000  Uiso   1.00
N1142  N     0.00945   0.85881   0.89390   0.00000  Uiso   1.00
O1143  O     0.00403   0.84425   0.93523   0.00000  Uiso   1.00
O1144  O     0.02845   0.89527   0.89124   0.00000  Uiso   1.00
N1145  N     0.17239   0.70496   0.74516   0.00000  Uiso   1.00
O1146  O     0.21456   0.72298   0.73830   0.00000  Uiso   1.00
O1147  O     0.13902   0.69576   0.70872   0.00000  Uiso   1.00
N1148  N     0.16087   0.96171   0.92150   0.00000  Uiso   1.00
O1149  O     0.11873   0.94362   0.92830   0.00000  Uiso   1.00
O1150  O     0.19413   0.97101   0.95799   0.00000  Uiso   1.00
O1151  O     0.50000   0.77322   0.87291   0.00000  Uiso   1.00
O1152  O     0.50000   0.89345   0.79375   0.00000  Uiso   1.00
O1153  O     0.50000   0.77321   0.79372   0.00000  Uiso   1.00
O1154  O     0.50000   0.89346   0.87294   0.00000  Uiso   1.00
C1155  C     0.50094   0.75401   0.83299   0.00000  Uiso   1.00
C1156  C     0.49905   0.91266   0.83367   0.00000  Uiso   1.00
O1157  O     0.42495   0.83334   0.86379   0.00000  Uiso   1.00
O1158  O     0.57505   0.83333   0.80288   0.00000  Uiso   1.00
O1159  O     0.42494   0.83333   0.78460   0.00000  Uiso   1.00
O1160  O     0.57506   0.83334   0.88207   0.00000  Uiso   1.00
C1161  C     0.40139   0.83340   0.82139   0.00000  Uiso   1.00
C1162  C     0.59861   0.83326   0.84528   0.00000  Uiso   1.00
Cu1163 Cu    0.50000   0.83334   0.88022   0.00000  Uiso   1.00
Cu1164 Cu    0.50000   0.83333   0.78645   0.00000  Uiso   1.00
N1165  N     0.50001   0.83334   0.95069   0.00000  Uiso   1.00
N1166  N     0.49999   0.83332   0.71597   0.00000  Uiso   1.00
C1167  C     0.34673   0.82856   0.81525   0.00000  Uiso   1.00
C1168  C     0.65327   0.83809   0.85142   0.00000  Uiso   1.00
C1169  C     0.50214   0.68639   0.78993   0.00000  Uiso   1.00
C1170  C     0.49783   0.98028   0.87674   0.00000  Uiso   1.00
C1171  C     0.49985   0.97741   0.79150   0.00000  Uiso   1.00
C1172  C     0.50012   0.68926   0.87516   0.00000  Uiso   1.00
H1173  H     0.50059   0.96026   0.75878   0.00000  Uiso   1.00
H1174  H     0.49937   0.70641   0.90789   0.00000  Uiso   1.00
C1175  C     0.49819   0.95729   0.83437   0.00000  Uiso   1.00
C1176  C     0.50179   0.70938   0.83230   0.00000  Uiso   1.00
C1177  C     0.46682   0.80915   0.68701   0.00000  Uiso   1.00
C1178  C     0.53318   0.85752   0.97966   0.00000  Uiso   1.00
H1179  H     0.44034   0.78974   0.70219   0.00000  Uiso   1.00
H1180  H     0.55966   0.87693   0.96447   0.00000  Uiso   1.00
C1181  C     0.46683   0.80916   0.97069   0.00000  Uiso   1.00
C1182  C     0.53317   0.85750   0.69598   0.00000  Uiso   1.00
H1183  H     0.44032   0.78978   0.94834   0.00000  Uiso   1.00
H1184  H     0.55968   0.87689   0.71832   0.00000  Uiso   1.00
N1185  N     0.65721   0.80784   0.77277   0.00000  Uiso   1.00
O1186  O     0.66267   0.82238   0.73144   0.00000  Uiso   1.00
O1187  O     0.63818   0.77140   0.77544   0.00000  Uiso   1.00
N1188  N     0.34279   0.85881   0.89390   0.00000  Uiso   1.00
O1189  O     0.33736   0.84425   0.93523   0.00000  Uiso   1.00
O1190  O     0.36179   0.89527   0.89124   0.00000  Uiso   1.00
N1191  N     0.50572   0.70496   0.74516   0.00000  Uiso   1.00
O1192  O     0.54789   0.72298   0.73830   0.00000  Uiso   1.00
O1193  O     0.47235   0.69576   0.70872   0.00000  Uiso   1.00
N1194  N     0.49420   0.96171   0.92150   0.00000  Uiso   1.00
O1195  O     0.45206   0.94362   0.92830   0.00000  Uiso   1.00
O1196  O     0.52747   0.97101   0.95799   0.00000  Uiso   1.00
O1197  O     0.83333   0.77322   0.87291   0.00000  Uiso   1.00
O1198  O     0.83334   0.89345   0.79375   0.00000  Uiso   1.00
O1199  O     0.83333   0.77321   0.79372   0.00000  Uiso   1.00
O1200  O     0.83334   0.89346   0.87294   0.00000  Uiso   1.00
C1201  C     0.83427   0.75401   0.83299   0.00000  Uiso   1.00
C1202  C     0.83239   0.91266   0.83367   0.00000  Uiso   1.00
O1203  O     0.75828   0.83334   0.86379   0.00000  Uiso   1.00
O1204  O     0.90839   0.83333   0.80288   0.00000  Uiso   1.00
O1205  O     0.75828   0.83333   0.78460   0.00000  Uiso   1.00
O1206  O     0.90839   0.83334   0.88207   0.00000  Uiso   1.00
C1207  C     0.73472   0.83340   0.82139   0.00000  Uiso   1.00
C1208  C     0.93195   0.83326   0.84528   0.00000  Uiso   1.00
Cu1209 Cu    0.83333   0.83334   0.88022   0.00000  Uiso   1.00
Cu1210 Cu    0.83333   0.83333   0.78645   0.00000  Uiso   1.00
N1211  N     0.83335   0.83334   0.95069   0.00000  Uiso   1.00
N1212  N     0.83332   0.83332   0.71597   0.00000  Uiso   1.00
C1213  C     0.68007   0.82856   0.81525   0.00000  Uiso   1.00
C1214  C     0.98660   0.83809   0.85142   0.00000  Uiso   1.00
C1215  C     0.83547   0.68639   0.78993   0.00000  Uiso   1.00
C1216  C     0.83116   0.98028   0.87674   0.00000  Uiso   1.00
C1217  C     0.83318   0.97741   0.79150   0.00000  Uiso   1.00
C1218  C     0.83346   0.68926   0.87516   0.00000  Uiso   1.00
H1219  H     0.83393   0.96026   0.75878   0.00000  Uiso   1.00
H1220  H     0.83271   0.70641   0.90789   0.00000  Uiso   1.00
C1221  C     0.83152   0.95729   0.83437   0.00000  Uiso   1.00
C1222  C     0.83512   0.70938   0.83230   0.00000  Uiso   1.00
C1223  C     0.80015   0.80915   0.68701   0.00000  Uiso   1.00
C1224  C     0.86651   0.85752   0.97966   0.00000  Uiso   1.00
H1225  H     0.77367   0.78974   0.70219   0.00000  Uiso   1.00
H1226  H     0.89300   0.87693   0.96447   0.00000  Uiso   1.00
C1227  C     0.80016   0.80916   0.97069   0.00000  Uiso   1.00
C1228  C     0.86650   0.85750   0.69598   0.00000  Uiso   1.00
H1229  H     0.77366   0.78978   0.94834   0.00000  Uiso   1.00
H1230  H     0.89301   0.87689   0.71832   0.00000  Uiso   1.00
N1231  N     0.99055   0.80784   0.77277   0.00000  Uiso   1.00
O1232  O     0.99600   0.82238   0.73144   0.00000  Uiso   1.00
O1233  O     0.97151   0.77140   0.77544   0.00000  Uiso   1.00
N1234  N     0.67612   0.85881   0.89390   0.00000  Uiso   1.00
O1235  O     0.67069   0.84425   0.93523   0.00000  Uiso   1.00
O1236  O     0.69512   0.89527   0.89124   0.00000  Uiso   1.00
N1237  N     0.83906   0.70496   0.74516   0.00000  Uiso   1.00
O1238  O     0.88123   0.72298   0.73830   0.00000  Uiso   1.00
O1239  O     0.80569   0.69576   0.70872   0.00000  Uiso   1.00
N1240  N     0.82754   0.96171   0.92150   0.00000  Uiso   1.00
O1241  O     0.78539   0.94362   0.92830   0.00000  Uiso   1.00
O1242  O     0.86080   0.97101   0.95799   0.00000  Uiso   1.00
loop_
_geom_bond_atom_site_label_1
_geom_bond_atom_site_label_2
_geom_bond_distance
_geom_bond_site_symmetry_2
_ccdc_geom_bond_type
O1     C5      1.295   .     A
O1     Cu13    1.972   .     S
O2     C6      1.295   .     A
O2     Cu14    1.972   .     S
O3     Cu14    1.977   .     S
O3     C5      1.287   .     A
O4     C6      1.287   .     A
O4     Cu13    1.977   .     S
C5     C26     1.457   .     S
C6     C25     1.457   .     S
O7     Cu13    1.974   .     S
O7     C11     1.283   .     A
O8     C12     1.283   .     A
O8     Cu14    1.974   .     S
O9     Cu14    1.975   .     S
O9     C11     1.289   .     A
O10    C12     1.289   .     A
O10    Cu13    1.975   .     S
C11    C17     1.439   .     S
C12    C18     1.439   .     S
Cu13   Cu14    2.672   .     S
Cu13   N15     2.008   .     S
Cu14   N16     2.008   .     S
N15    C31     1.367   .     A
N15    C28     1.366   .     A
N16    C27     1.366   .     A
N16    C32     1.367   .     A
C17    C110    1.358   1_455 S
C17    N127    1.440   1_455 S
C18    C63     1.358   .     S
C18    N84     1.440   .     S
C19    C26     1.415   .     A
C19    N41     1.434   .     S
C19    C297    1.385   1_545 S
C20    N44     1.434   .     S
C20    C25     1.415   .     A
C20    C160    1.385   .     S
C21    H23     1.084   .     S
C21    C25     1.400   .     A
C21    C157    1.385   .     S
C22    H24     1.084   .     S
C22    C26     1.400   .     A
C22    C296    1.385   1_545 S
C27    H29     1.082   .     S
C27    C859    1.415   1_554 S
C28    H30     1.082   .     S
C28    C446    1.415   .     S
C31    H33     1.082   .     S
C31    C441    1.415   .     S
C32    H34     1.082   .     S
C32    C856    1.415   1_554 S
N35    O36     1.301   .     A
N35    O37     1.301   .     A
N35    C63     1.440   .     S
N38    O40     1.301   .     A
N38    O39     1.301   .     A
N38    C110    1.440   1_455 S
N41    O43     1.301   .     A
N41    O42     1.301   .     A
N44    O46     1.301   .     A
N44    O45     1.301   .     A
O47    C51     1.295   .     A
O47    Cu59    1.972   .     S
O48    C52     1.295   .     A
O48    Cu60    1.972   .     S
O49    Cu60    1.977   .     S
O49    C51     1.287   .     A
O50    C52     1.287   .     A
O50    Cu59    1.977   .     S
C51    C72     1.457   .     S
C52    C71     1.457   .     S
O53    Cu59    1.974   .     S
O53    C57     1.283   .     A
O54    C58     1.283   .     A
O54    Cu60    1.974   .     S
O55    Cu60    1.975   .     S
O55    C57     1.289   .     A
O56    C58     1.289   .     A
O56    Cu59    1.975   .     S
C57    C63     1.439   .     S
C58    C64     1.439   .     S
Cu59   Cu60    2.672   .     S
Cu59   N61     2.008   .     S
Cu60   N62     2.008   .     S
N61    C77     1.367   .     A
N61    C74     1.366   .     A
N62    C73     1.366   .     A
N62    C78     1.367   .     A
C64    C109    1.358   .     S
C64    N130    1.440   .     S
C65    C72     1.415   .     A
C65    N87     1.434   .     S
C65    C343    1.385   1_545 S
C66    N90     1.434   .     S
C66    C71     1.415   .     A
C66    C206    1.385   .     S
C67    H69     1.084   .     S
C67    C71     1.400   .     A
C67    C203    1.385   .     S
C68    H70     1.084   .     S
C68    C72     1.400   .     A
C68    C342    1.385   1_545 S
C73    H75     1.082   .     S
C73    C905    1.415   1_554 S
C74    H76     1.082   .     S
C74    C492    1.415   .     S
C77    H79     1.082   .     S
C77    C487    1.415   .     S
C78    H80     1.082   .     S
C78    C902    1.415   1_554 S
N81    O82     1.301   .     A
N81    O83     1.301   .     A
N81    C109    1.440   .     S
N84    O86     1.301   .     A
N84    O85     1.301   .     A
N87    O89     1.301   .     A
N87    O88     1.301   .     A
N90    O92     1.301   .     A
N90    O91     1.301   .     A
O93    C97     1.295   .     A
O93    Cu105   1.972   .     S
O94    C98     1.295   .     A
O94    Cu106   1.972   .     S
O95    Cu106   1.977   .     S
O95    C97     1.287   .     A
O96    C98     1.287   .     A
O96    Cu105   1.977   .     S
C97    C118    1.457   .     S
C98    C117    1.457   .     S
O99    Cu105   1.974   .     S
O99    C103    1.283   .     A
O100   C104    1.283   .     A
O100   Cu106   1.974   .     S
O101   Cu106   1.975   .     S
O101   C103    1.289   .     A
O102   C104    1.289   .     A
O102   Cu105   1.975   .     S
C103   C109    1.439   .     S
C104   C110    1.439   .     S
Cu105  Cu106   2.672   .     S
Cu105  N107    2.008   .     S
Cu106  N108    2.008   .     S
N107   C123    1.367   .     A
N107   C120    1.366   .     A
N108   C119    1.366   .     A
N108   C124    1.367   .     A
C110   C17     1.358   1_655 S
C110   N38     1.440   1_655 S
C111   C118    1.415   .     A
C111   N133    1.434   .     S
C111   C389    1.385   1_545 S
C112   N136    1.434   .     S
C112   C117    1.415   .     A
C112   C252    1.385   .     S
C113   H115    1.084   .     S
C113   C117    1.400   .     A
C113   C249    1.385   .     S
C114   H116    1.084   .     S
C114   C118    1.400   .     A
C114   C388    1.385   1_545 S
C119   H121    1.082   .     S
C119   C951    1.415   1_554 S
C120   H122    1.082   .     S
C120   C538    1.415   .     S
C123   H125    1.082   .     S
C123   C533    1.415   .     S
C124   H126    1.082   .     S
C124   C948    1.415   1_554 S
N127   O128    1.301   .     A
N127   O129    1.301   .     A
N127   C17     1.440   1_655 S
N130   O132    1.301   .     A
N130   O131    1.301   .     A
N133   O135    1.301   .     A
N133   O134    1.301   .     A
N136   O138    1.301   .     A
N136   O137    1.301   .     A
O139   C143    1.295   .     A
O139   Cu151   1.972   .     S
O140   C144    1.295   .     A
O140   Cu152   1.972   .     S
O141   Cu152   1.977   .     S
O141   C143    1.287   .     A
O142   C144    1.287   .     A
O142   Cu151   1.977   .     S
C143   C164    1.457   .     S
C144   C163    1.457   .     S
O145   Cu151   1.974   .     S
O145   C149    1.283   .     A
O146   C150    1.283   .     A
O146   Cu152   1.974   .     S
O147   Cu152   1.975   .     S
O147   C149    1.289   .     A
O148   C150    1.289   .     A
O148   Cu151   1.975   .     S
C149   C155    1.439   .     S
C150   C156    1.439   .     S
Cu151  Cu152   2.672   .     S
Cu151  N153    2.008   .     S
Cu152  N154    2.008   .     S
N153   C169    1.367   .     A
N153   C166    1.366   .     A
N154   C165    1.366   .     A
N154   C170    1.367   .     A
C155   C248    1.358   1_455 S
C155   N265    1.440   1_455 S
C156   C201    1.358   .     S
C156   N222    1.440   .     S
C157   C164    1.415   .     A
C157   N179    1.434   .     S
C158   N182    1.434   .     S
C158   C163    1.415   .     A
C158   C298    1.385   .     S
C159   H161    1.084   .     S
C159   C163    1.400   .     A
C159   C295    1.385   .     S
C160   H162    1.084   .     S
C160   C164    1.400   .     A
C165   H167    1.082   .     S
C165   C997    1.415   1_554 S
C166   H168    1.082   .     S
C166   C584    1.415   .     S
C169   H171    1.082   .     S
C169   C579    1.415   .     S
C170   H172    1.082   .     S
C170   C994    1.415   1_554 S
N173   O174    1.301   .     A
N173   O175    1.301   .     A
N173   C201    1.440   .     S
N176   O178    1.301   .     A
N176   O177    1.301   .     A
N176   C248    1.440   1_455 S
N179   O181    1.301   .     A
N179   O180    1.301   .     A
N182   O184    1.301   .     A
N182   O183    1.301   .     A
O185   C189    1.295   .     A
O185   Cu197   1.972   .     S
O186   C190    1.295   .     A
O186   Cu198   1.972   .     S
O187   Cu198   1.977   .     S
O187   C189    1.287   .     A
O188   C190    1.287   .     A
O188   Cu197   1.977   .     S
C189   C210    1.457   .     S
C190   C209    1.457   .     S
O191   Cu197   1.974   .     S
O191   C195    1.283   .     A
O192   C196    1.283   .     A
O192   Cu198   1.974   .     S
O193   Cu198   1.975   .     S
O193   C195    1.289   .     A
O194   C196    1.289   .     A
O194   Cu197   1.975   .     S
C195   C201    1.439   .     S
C196   C202    1.439   .     S
Cu197  Cu198   2.672   .     S
Cu197  N199    2.008   .     S
Cu198  N200    2.008   .     S
N199   C215    1.367   .     A
N199   C212    1.366   .     A
N200   C211    1.366   .     A
N200   C216    1.367   .     A
C202   C247    1.358   .     S
C202   N268    1.440   .     S
C203   C210    1.415   .     A
C203   N225    1.434   .     S
C204   N228    1.434   .     S
C204   C209    1.415   .     A
C204   C344    1.385   .     S
C205   H207    1.084   .     S
C205   C209    1.400   .     A
C205   C341    1.385   .     S
C206   H208    1.084   .     S
C206   C210    1.400   .     A
C211   H213    1.082   .     S
C211   C1043   1.415   1_554 S
C212   H214    1.082   .     S
C212   C630    1.415   .     S
C215   H217    1.082   .     S
C215   C625    1.415   .     S
C216   H218    1.082   .     S
C216   C1040   1.415   1_554 S
N219   O220    1.301   .     A
N219   O221    1.301   .     A
N219   C247    1.440   .     S
N222   O224    1.301   .     A
N222   O223    1.301   .     A
N225   O227    1.301   .     A
N225   O226    1.301   .     A
N228   O230    1.301   .     A
N228   O229    1.301   .     A
O231   C235    1.295   .     A
O231   Cu243   1.972   .     S
O232   C236    1.295   .     A
O232   Cu244   1.972   .     S
O233   Cu244   1.977   .     S
O233   C235    1.287   .     A
O234   C236    1.287   .     A
O234   Cu243   1.977   .     S
C235   C256    1.457   .     S
C236   C255    1.457   .     S
O237   Cu243   1.974   .     S
O237   C241    1.283   .     A
O238   C242    1.283   .     A
O238   Cu244   1.974   .     S
O239   Cu244   1.975   .     S
O239   C241    1.289   .     A
O240   C242    1.289   .     A
O240   Cu243   1.975   .     S
C241   C247    1.439   .     S
C242   C248    1.439   .     S
Cu243  Cu244   2.672   .     S
Cu243  N245    2.008   .     S
Cu244  N246    2.008   .     S
N245   C261    1.367   .     A
N245   C258    1.366   .     A
N246   C257    1.366   .     A
N246   C262    1.367   .     A
C248   C155    1.358   1_655 S
C248   N176    1.440   1_655 S
C249   C256    1.415   .     A
C249   N271    1.434   .     S
C250   N274    1.434   .     S
C250   C255    1.415   .     A
C250   C390    1.385   .     S
C251   H253    1.084   .     S
C251   C255    1.400   .     A
C251   C387    1.385   .     S
C252   H254    1.084   .     S
C252   C256    1.400   .     A
C257   H259    1.082   .     S
C257   C1089   1.415   1_554 S
C258   H260    1.082   .     S
C258   C676    1.415   .     S
C261   H263    1.082   .     S
C261   C671    1.415   .     S
C262   H264    1.082   .     S
C262   C1086   1.415   1_554 S
N265   O266    1.301   .     A
N265   O267    1.301   .     A
N265   C155    1.440   1_655 S
N268   O270    1.301   .     A
N268   O269    1.301   .     A
N271   O273    1.301   .     A
N271   O272    1.301   .     A
N274   O276    1.301   .     A
N274   O275    1.301   .     A
O277   C281    1.295   .     A
O277   Cu289   1.972   .     S
O278   C282    1.295   .     A
O278   Cu290   1.972   .     S
O279   Cu290   1.977   .     S
O279   C281    1.287   .     A
O280   C282    1.287   .     A
O280   Cu289   1.977   .     S
C281   C302    1.457   .     S
C282   C301    1.457   .     S
O283   Cu289   1.974   .     S
O283   C287    1.283   .     A
O284   C288    1.283   .     A
O284   Cu290   1.974   .     S
O285   Cu290   1.975   .     S
O285   C287    1.289   .     A
O286   C288    1.289   .     A
O286   Cu289   1.975   .     S
C287   C293    1.439   .     S
C288   C294    1.439   .     S
Cu289  Cu290   2.672   .     S
Cu289  N291    2.008   .     S
Cu290  N292    2.008   .     S
N291   C307    1.367   .     A
N291   C304    1.366   .     A
N292   C303    1.366   .     A
N292   C308    1.367   .     A
C293   C386    1.358   1_455 S
C293   N403    1.440   1_455 S
C294   C339    1.358   .     S
C294   N360    1.440   .     S
C295   C302    1.415   .     A
C295   N317    1.434   .     S
C296   N320    1.434   .     S
C296   C301    1.415   .     A
C296   C22     1.385   1_565 S
C297   H299    1.084   .     S
C297   C301    1.400   .     A
C297   C19     1.385   1_565 S
C298   H300    1.084   .     S
C298   C302    1.400   .     A
C303   H305    1.082   .     S
C303   C1135   1.415   1_554 S
C304   H306    1.082   .     S
C304   C722    1.415   .     S
C307   H309    1.082   .     S
C307   C717    1.415   .     S
C308   H310    1.082   .     S
C308   C1132   1.415   1_554 S
N311   O312    1.301   .     A
N311   O313    1.301   .     A
N311   C339    1.440   .     S
N314   O316    1.301   .     A
N314   O315    1.301   .     A
N314   C386    1.440   1_455 S
N317   O319    1.301   .     A
N317   O318    1.301   .     A
N320   O322    1.301   .     A
N320   O321    1.301   .     A
O323   C327    1.295   .     A
O323   Cu335   1.972   .     S
O324   C328    1.295   .     A
O324   Cu336   1.972   .     S
O325   Cu336   1.977   .     S
O325   C327    1.287   .     A
O326   C328    1.287   .     A
O326   Cu335   1.977   .     S
C327   C348    1.457   .     S
C328   C347    1.457   .     S
O329   Cu335   1.974   .     S
O329   C333    1.283   .     A
O330   C334    1.283   .     A
O330   Cu336   1.974   .     S
O331   Cu336   1.975   .     S
O331   C333    1.289   .     A
O332   C334    1.289   .     A
O332   Cu335   1.975   .     S
C333   C339    1.439   .     S
C334   C340    1.439   .     S
Cu335  Cu336   2.672   .     S
Cu335  N337    2.008   .     S
Cu336  N338    2.008   .     S
N337   C353    1.367   .     A
N337   C350    1.366   .     A
N338   C349    1.366   .     A
N338   C354    1.367   .     A
C340   C385    1.358   .     S
C340   N406    1.440   .     S
C341   C348    1.415   .     A
C341   N363    1.434   .     S
C342   N366    1.434   .     S
C342   C347    1.415   .     A
C342   C68     1.385   1_565 S
C343   H345    1.084   .     S
C343   C347    1.400   .     A
C343   C65     1.385   1_565 S
C344   H346    1.084   .     S
C344   C348    1.400   .     A
C349   H351    1.082   .     S
C349   C1181   1.415   1_554 S
C350   H352    1.082   .     S
C350   C768    1.415   .     S
C353   H355    1.082   .     S
C353   C763    1.415   .     S
C354   H356    1.082   .     S
C354   C1178   1.415   1_554 S
N357   O358    1.301   .     A
N357   O359    1.301   .     A
N357   C385    1.440   .     S
N360   O362    1.301   .     A
N360   O361    1.301   .     A
N363   O365    1.301   .     A
N363   O364    1.301   .     A
N366   O368    1.301   .     A
N366   O367    1.301   .     A
O369   C373    1.295   .     A
O369   Cu381   1.972   .     S
O370   C374    1.295   .     A
O370   Cu382   1.972   .     S
O371   Cu382   1.977   .     S
O371   C373    1.287   .     A
O372   C374    1.287   .     A
O372   Cu381   1.977   .     S
C373   C394    1.457   .     S
C374   C393    1.457   .     S
O375   Cu381   1.974   .     S
O375   C379    1.283   .     A
O376   C380    1.283   .     A
O376   Cu382   1.974   .     S
O377   Cu382   1.975   .     S
O377   C379    1.289   .     A
O378   C380    1.289   .     A
O378   Cu381   1.975   .     S
C379   C385    1.439   .     S
C380   C386    1.439   .     S
Cu381  Cu382   2.672   .     S
Cu381  N383    2.008   .     S
Cu382  N384    2.008   .     S
N383   C399    1.367   .     A
N383   C396    1.366   .     A
N384   C395    1.366   .     A
N384   C400    1.367   .     A
C386   C293    1.358   1_655 S
C386   N314    1.440   1_655 S
C387   C394    1.415   .     A
C387   N409    1.434   .     S
C388   N412    1.434   .     S
C388   C393    1.415   .     A
C388   C114    1.385   1_565 S
C389   H391    1.084   .     S
C389   C393    1.400   .     A
C389   C111    1.385   1_565 S
C390   H392    1.084   .     S
C390   C394    1.400   .     A
C395   H397    1.082   .     S
C395   C1227   1.415   1_554 S
C396   H398    1.082   .     S
C396   C814    1.415   .     S
C399   H401    1.082   .     S
C399   C809    1.415   .     S
C400   H402    1.082   .     S
C400   C1224   1.415   1_554 S
N403   O404    1.301   .     A
N403   O405    1.301   .     A
N403   C293    1.440   1_655 S
N406   O408    1.301   .     A
N406   O407    1.301   .     A
N409   O411    1.301   .     A
N409   O410    1.301   .     A
N412   O414    1.301   .     A
N412   O413    1.301   .     A
O415   C419    1.295   .     A
O415   Cu427   1.972   .     S
O416   C420    1.295   .     A
O416   Cu428   1.972   .     S
O417   Cu428   1.977   .     S
O417   C419    1.287   .     A
O418   C420    1.287   .     A
O418   Cu427   1.977   .     S
C419   C440    1.457   .     S
C420   C439    1.457   .     S
O421   Cu427   1.974   .     S
O421   C425    1.283   .     A
O422   C426    1.283   .     A
O422   Cu428   1.974   .     S
O423   Cu428   1.975   .     S
O423   C425    1.289   .     A
O424   C426    1.289   .     A
O424   Cu427   1.975   .     S
C425   C431    1.439   .     S
C426   C432    1.439   .     S
Cu427  Cu428   2.672   .     S
Cu427  N429    2.008   .     S
Cu428  N430    2.008   .     S
N429   C445    1.367   .     A
N429   C442    1.366   .     A
N430   C441    1.366   .     A
N430   C446    1.367   .     A
C431   C524    1.358   1_455 S
C431   N541    1.440   1_455 S
C432   C477    1.358   .     S
C432   N498    1.440   .     S
C433   C440    1.415   .     A
C433   N455    1.434   .     S
C433   C711    1.385   1_545 S
C434   N458    1.434   .     S
C434   C439    1.415   .     A
C434   C574    1.385   .     S
C435   H437    1.084   .     S
C435   C439    1.400   .     A
C435   C571    1.385   .     S
C436   H438    1.084   .     S
C436   C440    1.400   .     A
C436   C710    1.385   1_545 S
C441   H443    1.082   .     S
C442   H444    1.082   .     S
C442   C860    1.415   .     S
C445   H447    1.082   .     S
C445   C855    1.415   .     S
C446   H448    1.082   .     S
N449   O450    1.301   .     A
N449   O451    1.301   .     A
N449   C477    1.440   .     S
N452   O454    1.301   .     A
N452   O453    1.301   .     A
N452   C524    1.440   1_455 S
N455   O457    1.301   .     A
N455   O456    1.301   .     A
N458   O460    1.301   .     A
N458   O459    1.301   .     A
O461   C465    1.295   .     A
O461   Cu473   1.972   .     S
O462   C466    1.295   .     A
O462   Cu474   1.972   .     S
O463   Cu474   1.977   .     S
O463   C465    1.287   .     A
O464   C466    1.287   .     A
O464   Cu473   1.977   .     S
C465   C486    1.457   .     S
C466   C485    1.457   .     S
O467   Cu473   1.974   .     S
O467   C471    1.283   .     A
O468   C472    1.283   .     A
O468   Cu474   1.974   .     S
O469   Cu474   1.975   .     S
O469   C471    1.289   .     A
O470   C472    1.289   .     A
O470   Cu473   1.975   .     S
C471   C477    1.439   .     S
C472   C478    1.439   .     S
Cu473  Cu474   2.672   .     S
Cu473  N475    2.008   .     S
Cu474  N476    2.008   .     S
N475   C491    1.367   .     A
N475   C488    1.366   .     A
N476   C487    1.366   .     A
N476   C492    1.367   .     A
C478   C523    1.358   .     S
C478   N544    1.440   .     S
C479   C486    1.415   .     A
C479   N501    1.434   .     S
C479   C757    1.385   1_545 S
C480   N504    1.434   .     S
C480   C485    1.415   .     A
C480   C620    1.385   .     S
C481   H483    1.084   .     S
C481   C485    1.400   .     A
C481   C617    1.385   .     S
C482   H484    1.084   .     S
C482   C486    1.400   .     A
C482   C756    1.385   1_545 S
C487   H489    1.082   .     S
C488   H490    1.082   .     S
C488   C906    1.415   .     S
C491   H493    1.082   .     S
C491   C901    1.415   .     S
C492   H494    1.082   .     S
N495   O496    1.301   .     A
N495   O497    1.301   .     A
N495   C523    1.440   .     S
N498   O500    1.301   .     A
N498   O499    1.301   .     A
N501   O503    1.301   .     A
N501   O502    1.301   .     A
N504   O506    1.301   .     A
N504   O505    1.301   .     A
O507   C511    1.295   .     A
O507   Cu519   1.972   .     S
O508   C512    1.295   .     A
O508   Cu520   1.972   .     S
O509   Cu520   1.977   .     S
O509   C511    1.287   .     A
O510   C512    1.287   .     A
O510   Cu519   1.977   .     S
C511   C532    1.457   .     S
C512   C531    1.457   .     S
O513   Cu519   1.974   .     S
O513   C517    1.283   .     A
O514   C518    1.283   .     A
O514   Cu520   1.974   .     S
O515   Cu520   1.975   .     S
O515   C517    1.289   .     A
O516   C518    1.289   .     A
O516   Cu519   1.975   .     S
C517   C523    1.439   .     S
C518   C524    1.439   .     S
Cu519  Cu520   2.672   .     S
Cu519  N521    2.008   .     S
Cu520  N522    2.008   .     S
N521   C537    1.367   .     A
N521   C534    1.366   .     A
N522   C533    1.366   .     A
N522   C538    1.367   .     A
C524   C431    1.358   1_655 S
C524   N452    1.440   1_655 S
C525   C532    1.415   .     A
C525   N547    1.434   .     S
C525   C803    1.385   1_545 S
C526   N550    1.434   .     S
C526   C531    1.415   .     A
C526   C666    1.385   .     S
C527   H529    1.084   .     S
C527   C531    1.400   .     A
C527   C663    1.385   .     S
C528   H530    1.084   .     S
C528   C532    1.400   .     A
C528   C802    1.385   1_545 S
C533   H535    1.082   .     S
C534   H536    1.082   .     S
C534   C952    1.415   .     S
C537   H539    1.082   .     S
C537   C947    1.415   .     S
C538   H540    1.082   .     S
N541   O542    1.301   .     A
N541   O543    1.301   .     A
N541   C431    1.440   1_655 S
N544   O546    1.301   .     A
N544   O545    1.301   .     A
N547   O549    1.301   .     A
N547   O548    1.301   .     A
N550   O552    1.301   .     A
N550   O551    1.301   .     A
O553   C557    1.295   .     A
O553   Cu565   1.972   .     S
O554   C558    1.295   .     A
O554   Cu566   1.972   .     S
O555   Cu566   1.977   .     S
O555   C557    1.287   .     A
O556   C558    1.287   .     A
O556   Cu565   1.977   .     S
C557   C578    1.457   .     S
C558   C577    1.457   .     S
O559   Cu565   1.974   .     S
O559   C563    1.283   .     A
O560   C564    1.283   .     A
O560   Cu566   1.974   .     S
O561   Cu566   1.975   .     S
O561   C563    1.289   .     A
O562   C564    1.289   .     A
O562   Cu565   1.975   .     S
C563   C569    1.439   .     S
C564   C570    1.439   .     S
Cu565  Cu566   2.672   .     S
Cu565  N567    2.008   .     S
Cu566  N568    2.008   .     S
N567   C583    1.367   .     A
N567   C580    1.366   .     A
N568   C579    1.366   .     A
N568   C584    1.367   .     A
C569   C662    1.358   1_455 S
C569   N679    1.440   1_455 S
C570   C615    1.358   .     S
C570   N636    1.440   .     S
C571   C578    1.415   .     A
C571   N593    1.434   .     S
C572   N596    1.434   .     S
C572   C577    1.415   .     A
C572   C712    1.385   .     S
C573   H575    1.084   .     S
C573   C577    1.400   .     A
C573   C709    1.385   .     S
C574   H576    1.084   .     S
C574   C578    1.400   .     A
C579   H581    1.082   .     S
C580   H582    1.082   .     S
C580   C998    1.415   .     S
C583   H585    1.082   .     S
C583   C993    1.415   .     S
C584   H586    1.082   .     S
N587   O588    1.301   .     A
N587   O589    1.301   .     A
N587   C615    1.440   .     S
N590   O592    1.301   .     A
N590   O591    1.301   .     A
N590   C662    1.440   1_455 S
N593   O595    1.301   .     A
N593   O594    1.301   .     A
N596   O598    1.301   .     A
N596   O597    1.301   .     A
O599   C603    1.295   .     A
O599   Cu611   1.972   .     S
O600   C604    1.295   .     A
O600   Cu612   1.972   .     S
O601   Cu612   1.977   .     S
O601   C603    1.287   .     A
O602   C604    1.287   .     A
O602   Cu611   1.977   .     S
C603   C624    1.457   .     S
C604   C623    1.457   .     S
O605   Cu611   1.974   .     S
O605   C609    1.283   .     A
O606   C610    1.283   .     A
O606   Cu612   1.974   .     S
O607   Cu612   1.975   .     S
O607   C609    1.289   .     A
O608   C610    1.289   .     A
O608   Cu611   1.975   .     S
C609   C615    1.439   .     S
C610   C616    1.439   .     S
Cu611  Cu612   2.672   .     S
Cu611  N613    2.008   .     S
Cu612  N614    2.008   .     S
N613   C629    1.367   .     A
N613   C626    1.366   .     A
N614   C625    1.366   .     A
N614   C630    1.367   .     A
C616   C661    1.358   .     S
C616   N682    1.440   .     S
C617   C624    1.415   .     A
C617   N639    1.434   .     S
C618   N642    1.434   .     S
C618   C623    1.415   .     A
C618   C758    1.385   .     S
C619   H621    1.084   .     S
C619   C623    1.400   .     A
C619   C755    1.385   .     S
C620   H622    1.084   .     S
C620   C624    1.400   .     A
C625   H627    1.082   .     S
C626   H628    1.082   .     S
C626   C1044   1.415   .     S
C629   H631    1.082   .     S
C629   C1039   1.415   .     S
C630   H632    1.082   .     S
N633   O634    1.301   .     A
N633   O635    1.301   .     A
N633   C661    1.440   .     S
N636   O638    1.301   .     A
N636   O637    1.301   .     A
N639   O641    1.301   .     A
N639   O640    1.301   .     A
N642   O644    1.301   .     A
N642   O643    1.301   .     A
O645   C649    1.295   .     A
O645   Cu657   1.972   .     S
O646   C650    1.295   .     A
O646   Cu658   1.972   .     S
O647   Cu658   1.977   .     S
O647   C649    1.287   .     A
O648   C650    1.287   .     A
O648   Cu657   1.977   .     S
C649   C670    1.457   .     S
C650   C669    1.457   .     S
O651   Cu657   1.974   .     S
O651   C655    1.283   .     A
O652   C656    1.283   .     A
O652   Cu658   1.974   .     S
O653   Cu658   1.975   .     S
O653   C655    1.289   .     A
O654   C656    1.289   .     A
O654   Cu657   1.975   .     S
C655   C661    1.439   .     S
C656   C662    1.439   .     S
Cu657  Cu658   2.672   .     S
Cu657  N659    2.008   .     S
Cu658  N660    2.008   .     S
N659   C675    1.367   .     A
N659   C672    1.366   .     A
N660   C671    1.366   .     A
N660   C676    1.367   .     A
C662   C569    1.358   1_655 S
C662   N590    1.440   1_655 S
C663   C670    1.415   .     A
C663   N685    1.434   .     S
C664   N688    1.434   .     S
C664   C669    1.415   .     A
C664   C804    1.385   .     S
C665   H667    1.084   .     S
C665   C669    1.400   .     A
C665   C801    1.385   .     S
C666   H668    1.084   .     S
C666   C670    1.400   .     A
C671   H673    1.082   .     S
C672   H674    1.082   .     S
C672   C1090   1.415   .     S
C675   H677    1.082   .     S
C675   C1085   1.415   .     S
C676   H678    1.082   .     S
N679   O680    1.301   .     A
N679   O681    1.301   .     A
N679   C569    1.440   1_655 S
N682   O684    1.301   .     A
N682   O683    1.301   .     A
N685   O687    1.301   .     A
N685   O686    1.301   .     A
N688   O690    1.301   .     A
N688   O689    1.301   .     A
O691   C695    1.295   .     A
O691   Cu703   1.972   .     S
O692   C696    1.295   .     A
O692   Cu704   1.972   .     S
O693   Cu704   1.977   .     S
O693   C695    1.287   .     A
O694   C696    1.287   .     A
O694   Cu703   1.977   .     S
C695   C716    1.457   .     S
C696   C715    1.457   .     S
O697   Cu703   1.974   .     S
O697   C701    1.283   .     A
O698   C702    1.283   .     A
O698   Cu704   1.974   .     S
O699   Cu704   1.975   .     S
O699   C701    1.289   .     A
O700   C702    1.289   .     A
O700   Cu703   1.975   .     S
C701   C707    1.439   .     S
C702   C708    1.439   .     S
Cu703  Cu704   2.672   .     S
Cu703  N705    2.008   .     S
Cu704  N706    2.008   .     S
N705   C721    1.367   .     A
N705   C718    1.366   .     A
N706   C717    1.366   .     A
N706   C722    1.367   .     A
C707   C800    1.358   1_455 S
C707   N817    1.440   1_455 S
C708   C753    1.358   .     S
C708   N774    1.440   .     S
C709   C716    1.415   .     A
C709   N731    1.434   .     S
C710   N734    1.434   .     S
C710   C715    1.415   .     A
C710   C436    1.385   1_565 S
C711   H713    1.084   .     S
C711   C715    1.400   .     A
C711   C433    1.385   1_565 S
C712   H714    1.084   .     S
C712   C716    1.400   .     A
C717   H719    1.082   .     S
C718   H720    1.082   .     S
C718   C1136   1.415   .     S
C721   H723    1.082   .     S
C721   C1131   1.415   .     S
C722   H724    1.082   .     S
N725   O726    1.301   .     A
N725   O727    1.301   .     A
N725   C753    1.440   .     S
N728   O730    1.301   .     A
N728   O729    1.301   .     A
N728   C800    1.440   1_455 S
N731   O733    1.301   .     A
N731   O732    1.301   .     A
N734   O736    1.301   .     A
N734   O735    1.301   .     A
O737   C741    1.295   .     A
O737   Cu749   1.972   .     S
O738   C742    1.295   .     A
O738   Cu750   1.972   .     S
O739   Cu750   1.977   .     S
O739   C741    1.287   .     A
O740   C742    1.287   .     A
O740   Cu749   1.977   .     S
C741   C762    1.457   .     S
C742   C761    1.457   .     S
O743   Cu749   1.974   .     S
O743   C747    1.283   .     A
O744   C748    1.283   .     A
O744   Cu750   1.974   .     S
O745   Cu750   1.975   .     S
O745   C747    1.289   .     A
O746   C748    1.289   .     A
O746   Cu749   1.975   .     S
C747   C753    1.439   .     S
C748   C754    1.439   .     S
Cu749  Cu750   2.672   .     S
Cu749  N751    2.008   .     S
Cu750  N752    2.008   .     S
N751   C767    1.367   .     A
N751   C764    1.366   .     A
N752   C763    1.366   .     A
N752   C768    1.367   .     A
C754   C799    1.358   .     S
C754   N820    1.440   .     S
C755   C762    1.415   .     A
C755   N777    1.434   .     S
C756   N780    1.434   .     S
C756   C761    1.415   .     A
C756   C482    1.385   1_565 S
C757   H759    1.084   .     S
C757   C761    1.400   .     A
C757   C479    1.385   1_565 S
C758   H760    1.084   .     S
C758   C762    1.400   .     A
C763   H765    1.082   .     S
C764   H766    1.082   .     S
C764   C1182   1.415   .     S
C767   H769    1.082   .     S
C767   C1177   1.415   .     S
C768   H770    1.082   .     S
N771   O772    1.301   .     A
N771   O773    1.301   .     A
N771   C799    1.440   .     S
N774   O776    1.301   .     A
N774   O775    1.301   .     A
N777   O779    1.301   .     A
N777   O778    1.301   .     A
N780   O782    1.301   .     A
N780   O781    1.301   .     A
O783   C787    1.295   .     A
O783   Cu795   1.972   .     S
O784   C788    1.295   .     A
O784   Cu796   1.972   .     S
O785   Cu796   1.977   .     S
O785   C787    1.287   .     A
O786   C788    1.287   .     A
O786   Cu795   1.977   .     S
C787   C808    1.457   .     S
C788   C807    1.457   .     S
O789   Cu795   1.974   .     S
O789   C793    1.283   .     A
O790   C794    1.283   .     A
O790   Cu796   1.974   .     S
O791   Cu796   1.975   .     S
O791   C793    1.289   .     A
O792   C794    1.289   .     A
O792   Cu795   1.975   .     S
C793   C799    1.439   .     S
C794   C800    1.439   .     S
Cu795  Cu796   2.672   .     S
Cu795  N797    2.008   .     S
Cu796  N798    2.008   .     S
N797   C813    1.367   .     A
N797   C810    1.366   .     A
N798   C809    1.366   .     A
N798   C814    1.367   .     A
C800   C707    1.358   1_655 S
C800   N728    1.440   1_655 S
C801   C808    1.415   .     A
C801   N823    1.434   .     S
C802   N826    1.434   .     S
C802   C807    1.415   .     A
C802   C528    1.385   1_565 S
C803   H805    1.084   .     S
C803   C807    1.400   .     A
C803   C525    1.385   1_565 S
C804   H806    1.084   .     S
C804   C808    1.400   .     A
C809   H811    1.082   .     S
C810   H812    1.082   .     S
C810   C1228   1.415   .     S
C813   H815    1.082   .     S
C813   C1223   1.415   .     S
C814   H816    1.082   .     S
N817   O818    1.301   .     A
N817   O819    1.301   .     A
N817   C707    1.440   1_655 S
N820   O822    1.301   .     A
N820   O821    1.301   .     A
N823   O825    1.301   .     A
N823   O824    1.301   .     A
N826   O828    1.301   .     A
N826   O827    1.301   .     A
O829   C833    1.295   .     A
O829   Cu841   1.972   .     S
O830   C834    1.295   .     A
O830   Cu842   1.972   .     S
O831   Cu842   1.977   .     S
O831   C833    1.287   .     A
O832   C834    1.287   .     A
O832   Cu841   1.977   .     S
C833   C854    1.457   .     S
C834   C853    1.457   .     S
O835   Cu841   1.974   .     S
O835   C839    1.283   .     A
O836   C840    1.283   .     A
O836   Cu842   1.974   .     S
O837   Cu842   1.975   .     S
O837   C839    1.289   .     A
O838   C840    1.289   .     A
O838   Cu841   1.975   .     S
C839   C845    1.439   .     S
C840   C846    1.439   .     S
Cu841  Cu842   2.672   .     S
Cu841  N843    2.008   .     S
Cu842  N844    2.008   .     S
N843   C859    1.367   .     A
N843   C856    1.366   .     A
N844   C855    1.366   .     A
N844   C860    1.367   .     A
C845   C938    1.358   1_455 S
C845   N955    1.440   1_455 S
C846   C891    1.358   .     S
C846   N912    1.440   .     S
C847   C854    1.415   .     A
C847   N869    1.434   .     S
C847   C1125   1.385   1_545 S
C848   N872    1.434   .     S
C848   C853    1.415   .     A
C848   C988    1.385   .     S
C849   H851    1.084   .     S
C849   C853    1.400   .     A
C849   C985    1.385   .     S
C850   H852    1.084   .     S
C850   C854    1.400   .     A
C850   C1124   1.385   1_545 S
C855   H857    1.082   .     S
C856   H858    1.082   .     S
C856   C32     1.415   1_556 S
C859   H861    1.082   .     S
C859   C27     1.415   1_556 S
C860   H862    1.082   .     S
N863   O864    1.301   .     A
N863   O865    1.301   .     A
N863   C891    1.440   .     S
N866   O868    1.301   .     A
N866   O867    1.301   .     A
N866   C938    1.440   1_455 S
N869   O871    1.301   .     A
N869   O870    1.301   .     A
N872   O874    1.301   .     A
N872   O873    1.301   .     A
O875   C879    1.295   .     A
O875   Cu887   1.972   .     S
O876   C880    1.295   .     A
O876   Cu888   1.972   .     S
O877   Cu888   1.977   .     S
O877   C879    1.287   .     A
O878   C880    1.287   .     A
O878   Cu887   1.977   .     S
C879   C900    1.457   .     S
C880   C899    1.457   .     S
O881   Cu887   1.974   .     S
O881   C885    1.283   .     A
O882   C886    1.283   .     A
O882   Cu888   1.974   .     S
O883   Cu888   1.975   .     S
O883   C885    1.289   .     A
O884   C886    1.289   .     A
O884   Cu887   1.975   .     S
C885   C891    1.439   .     S
C886   C892    1.439   .     S
Cu887  Cu888   2.672   .     S
Cu887  N889    2.008   .     S
Cu888  N890    2.008   .     S
N889   C905    1.367   .     A
N889   C902    1.366   .     A
N890   C901    1.366   .     A
N890   C906    1.367   .     A
C892   C937    1.358   .     S
C892   N958    1.440   .     S
C893   C900    1.415   .     A
C893   N915    1.434   .     S
C893   C1171   1.385   1_545 S
C894   N918    1.434   .     S
C894   C899    1.415   .     A
C894   C1034   1.385   .     S
C895   H897    1.084   .     S
C895   C899    1.400   .     A
C895   C1031   1.385   .     S
C896   H898    1.084   .     S
C896   C900    1.400   .     A
C896   C1170   1.385   1_545 S
C901   H903    1.082   .     S
C902   H904    1.082   .     S
C902   C78     1.415   1_556 S
C905   H907    1.082   .     S
C905   C73     1.415   1_556 S
C906   H908    1.082   .     S
N909   O910    1.301   .     A
N909   O911    1.301   .     A
N909   C937    1.440   .     S
N912   O914    1.301   .     A
N912   O913    1.301   .     A
N915   O917    1.301   .     A
N915   O916    1.301   .     A
N918   O920    1.301   .     A
N918   O919    1.301   .     A
O921   C925    1.295   .     A
O921   Cu933   1.972   .     S
O922   C926    1.295   .     A
O922   Cu934   1.972   .     S
O923   Cu934   1.977   .     S
O923   C925    1.287   .     A
O924   C926    1.287   .     A
O924   Cu933   1.977   .     S
C925   C946    1.457   .     S
C926   C945    1.457   .     S
O927   Cu933   1.974   .     S
O927   C931    1.283   .     A
O928   C932    1.283   .     A
O928   Cu934   1.974   .     S
O929   Cu934   1.975   .     S
O929   C931    1.289   .     A
O930   C932    1.289   .     A
O930   Cu933   1.975   .     S
C931   C937    1.439   .     S
C932   C938    1.439   .     S
Cu933  Cu934   2.672   .     S
Cu933  N935    2.008   .     S
Cu934  N936    2.008   .     S
N935   C951    1.367   .     A
N935   C948    1.366   .     A
N936   C947    1.366   .     A
N936   C952    1.367   .     A
C938   C845    1.358   1_655 S
C938   N866    1.440   1_655 S
C939   C946    1.415   .     A
C939   N961    1.434   .     S
C939   C1217   1.385   1_545 S
C940   N964    1.434   .     S
C940   C945    1.415   .     A
C940   C1080   1.385   .     S
C941   H943    1.084   .     S
C941   C945    1.400   .     A
C941   C1077   1.385   .     S
C942   H944    1.084   .     S
C942   C946    1.400   .     A
C942   C1216   1.385   1_545 S
C947   H949    1.082   .     S
C948   H950    1.082   .     S
C948   C124    1.415   1_556 S
C951   H953    1.082   .     S
C951   C119    1.415   1_556 S
C952   H954    1.082   .     S
N955   O956    1.301   .     A
N955   O957    1.301   .     A
N955   C845    1.440   1_655 S
N958   O960    1.301   .     A
N958   O959    1.301   .     A
N961   O963    1.301   .     A
N961   O962    1.301   .     A
N964   O966    1.301   .     A
N964   O965    1.301   .     A
O967   C971    1.295   .     A
O967   Cu979   1.972   .     S
O968   C972    1.295   .     A
O968   Cu980   1.972   .     S
O969   Cu980   1.977   .     S
O969   C971    1.287   .     A
O970   C972    1.287   .     A
O970   Cu979   1.977   .     S
C971   C992    1.457   .     S
C972   C991    1.457   .     S
O973   Cu979   1.974   .     S
O973   C977    1.283   .     A
O974   C978    1.283   .     A
O974   Cu980   1.974   .     S
O975   Cu980   1.975   .     S
O975   C977    1.289   .     A
O976   C978    1.289   .     A
O976   Cu979   1.975   .     S
C977   C983    1.439   .     S
C978   C984    1.439   .     S
Cu979  Cu980   2.672   .     S
Cu979  N981    2.008   .     S
Cu980  N982    2.008   .     S
N981   C997    1.367   .     A
N981   C994    1.366   .     A
N982   C993    1.366   .     A
N982   C998    1.367   .     A
C983   C1076   1.358   1_455 S
C983   N1093   1.440   1_455 S
C984   C1029   1.358   .     S
C984   N1050   1.440   .     S
C985   C992    1.415   .     A
C985   N1007   1.434   .     S
C986   N1010   1.434   .     S
C986   C991    1.415   .     A
C986   C1126   1.385   .     S
C987   H989    1.084   .     S
C987   C991    1.400   .     A
C987   C1123   1.385   .     S
C988   H990    1.084   .     S
C988   C992    1.400   .     A
C993   H995    1.082   .     S
C994   H996    1.082   .     S
C994   C170    1.415   1_556 S
C997   H999    1.082   .     S
C997   C165    1.415   1_556 S
C998   H1000   1.082   .     S
N1001  O1002   1.301   .     A
N1001  O1003   1.301   .     A
N1001  C1029   1.440   .     S
N1004  O1006   1.301   .     A
N1004  O1005   1.301   .     A
N1004  C1076   1.440   1_455 S
N1007  O1009   1.301   .     A
N1007  O1008   1.301   .     A
N1010  O1012   1.301   .     A
N1010  O1011   1.301   .     A
O1013  C1017   1.295   .     A
O1013  Cu1025  1.972   .     S
O1014  C1018   1.295   .     A
O1014  Cu1026  1.972   .     S
O1015  Cu1026  1.977   .     S
O1015  C1017   1.287   .     A
O1016  C1018   1.287   .     A
O1016  Cu1025  1.977   .     S
C1017  C1038   1.457   .     S
C1018  C1037   1.457   .     S
O1019  Cu1025  1.974   .     S
O1019  C1023   1.283   .     A
O1020  C1024   1.283   .     A
O1020  Cu1026  1.974   .     S
O1021  Cu1026  1.975   .     S
O1021  C1023   1.289   .     A
O1022  C1024   1.289   .     A
O1022  Cu1025  1.975   .     S
C1023  C1029   1.439   .     S
C1024  C1030   1.439   .     S
Cu1025 Cu1026  2.672   .     S
Cu1025 N1027   2.008   .     S
Cu1026 N1028   2.008   .     S
N1027  C1043   1.367   .     A
N1027  C1040   1.366   .     A
N1028  C1039   1.366   .     A
N1028  C1044   1.367   .     A
C1030  C1075   1.358   .     S
C1030  N1096   1.440   .     S
C1031  C1038   1.415   .     A
C1031  N1053   1.434   .     S
C1032  N1056   1.434   .     S
C1032  C1037   1.415   .     A
C1032  C1172   1.385   .     S
C1033  H1035   1.084   .     S
C1033  C1037   1.400   .     A
C1033  C1169   1.385   .     S
C1034  H1036   1.084   .     S
C1034  C1038   1.400   .     A
C1039  H1041   1.082   .     S
C1040  H1042   1.082   .     S
C1040  C216    1.415   1_556 S
C1043  H1045   1.082   .     S
C1043  C211    1.415   1_556 S
C1044  H1046   1.082   .     S
N1047  O1048   1.301   .     A
N1047  O1049   1.301   .     A
N1047  C1075   1.440   .     S
N1050  O1052   1.301   .     A
N1050  O1051   1.301   .     A
N1053  O1055   1.301   .     A
N1053  O1054   1.301   .     A
N1056  O1058   1.301   .     A
N1056  O1057   1.301   .     A
O1059  C1063   1.295   .     A
O1059  Cu1071  1.972   .     S
O1060  C1064   1.295   .     A
O1060  Cu1072  1.972   .     S
O1061  Cu1072  1.977   .     S
O1061  C1063   1.287   .     A
O1062  C1064   1.287   .     A
O1062  Cu1071  1.977   .     S
C1063  C1084   1.457   .     S
C1064  C1083   1.457   .     S
O1065  Cu1071  1.974   .     S
O1065  C1069   1.283   .     A
O1066  C1070   1.283   .     A
O1066  Cu1072  1.974   .     S
O1067  Cu1072  1.975   .     S
O1067  C1069   1.289   .     A
O1068  C1070   1.289   .     A
O1068  Cu1071  1.975   .     S
C1069  C1075   1.439   .     S
C1070  C1076   1.439   .     S
Cu1071 Cu1072  2.672   .     S
Cu1071 N1073   2.008   .     S
Cu1072 N1074   2.008   .     S
N1073  C1089   1.367   .     A
N1073  C1086   1.366   .     A
N1074  C1085   1.366   .     A
N1074  C1090   1.367   .     A
C1076  C983    1.358   1_655 S
C1076  N1004   1.440   1_655 S
C1077  C1084   1.415   .     A
C1077  N1099   1.434   .     S
C1078  N1102   1.434   .     S
C1078  C1083   1.415   .     A
C1078  C1218   1.385   .     S
C1079  H1081   1.084   .     S
C1079  C1083   1.400   .     A
C1079  C1215   1.385   .     S
C1080  H1082   1.084   .     S
C1080  C1084   1.400   .     A
C1085  H1087   1.082   .     S
C1086  H1088   1.082   .     S
C1086  C262    1.415   1_556 S
C1089  H1091   1.082   .     S
C1089  C257    1.415   1_556 S
C1090  H1092   1.082   .     S
N1093  O1094   1.301   .     A
N1093  O1095   1.301   .     A
N1093  C983    1.440   1_655 S
N1096  O1098   1.301   .     A
N1096  O1097   1.301   .     A
N1099  O1101   1.301   .     A
N1099  O1100   1.301   .     A
N1102  O1104   1.301   .     A
N1102  O1103   1.301   .     A
O1105  C1109   1.295   .     A
O1105  Cu1117  1.972   .     S
O1106  C1110   1.295   .     A
O1106  Cu1118  1.972   .     S
O1107  Cu1118  1.977   .     S
O1107  C1109   1.287   .     A
O1108  C1110   1.287   .     A
O1108  Cu1117  1.977   .     S
C1109  C1130   1.457   .     S
C1110  C1129   1.457   .     S
O1111  Cu1117  1.974   .     S
O1111  C1115   1.283   .     A
O1112  C1116   1.283   .     A
O1112  Cu1118  1.974   .     S
O1113  Cu1118  1.975   .     S
O1113  C1115   1.289   .     A
O1114  C1116   1.289   .     A
O1114  Cu1117  1.975   .     S
C1115  C1121   1.439   .     S
C1116  C1122   1.439   .     S
Cu1117 Cu1118  2.672   .     S
Cu1117 N1119   2.008   .     S
Cu1118 N1120   2.008   .     S
N1119  C1135   1.367   .     A
N1119  C1132   1.366   .     A
N1120  C1131   1.366   .     A
N1120  C1136   1.367   .     A
C1121  C1214   1.358   1_455 S
C1121  N1231   1.440   1_455 S
C1122  C1167   1.358   .     S
C1122  N1188   1.440   .     S
C1123  C1130   1.415   .     A
C1123  N1145   1.434   .     S
C1124  N1148   1.434   .     S
C1124  C1129   1.415   .     A
C1124  C850    1.385   1_565 S
C1125  H1127   1.084   .     S
C1125  C1129   1.400   .     A
C1125  C847    1.385   1_565 S
C1126  H1128   1.084   .     S
C1126  C1130   1.400   .     A
C1131  H1133   1.082   .     S
C1132  H1134   1.082   .     S
C1132  C308    1.415   1_556 S
C1135  H1137   1.082   .     S
C1135  C303    1.415   1_556 S
C1136  H1138   1.082   .     S
N1139  O1140   1.301   .     A
N1139  O1141   1.301   .     A
N1139  C1167   1.440   .     S
N1142  O1144   1.301   .     A
N1142  O1143   1.301   .     A
N1142  C1214   1.440   1_455 S
N1145  O1147   1.301   .     A
N1145  O1146   1.301   .     A
N1148  O1150   1.301   .     A
N1148  O1149   1.301   .     A
O1151  C1155   1.295   .     A
O1151  Cu1163  1.972   .     S
O1152  C1156   1.295   .     A
O1152  Cu1164  1.972   .     S
O1153  Cu1164  1.977   .     S
O1153  C1155   1.287   .     A
O1154  C1156   1.287   .     A
O1154  Cu1163  1.977   .     S
C1155  C1176   1.457   .     S
C1156  C1175   1.457   .     S
O1157  Cu1163  1.974   .     S
O1157  C1161   1.283   .     A
O1158  C1162   1.283   .     A
O1158  Cu1164  1.974   .     S
O1159  Cu1164  1.975   .     S
O1159  C1161   1.289   .     A
O1160  C1162   1.289   .     A
O1160  Cu1163  1.975   .     S
C1161  C1167   1.439   .     S
C1162  C1168   1.439   .     S
Cu1163 Cu1164  2.672   .     S
Cu1163 N1165   2.008   .     S
Cu1164 N1166   2.008   .     S
N1165  C1181   1.367   .     A
N1165  C1178   1.366   .     A
N1166  C1177   1.366   .     A
N1166  C1182   1.367   .     A
C1168  C1213   1.358   .     S
C1168  N1234   1.440   .     S
C1169  C1176   1.415   .     A
C1169  N1191   1.434   .     S
C1170  N1194   1.434   .     S
C1170  C1175   1.415   .     A
C1170  C896    1.385   1_565 S
C1171  H1173   1.084   .     S
C1171  C1175   1.400   .     A
C1171  C893    1.385   1_565 S
C1172  H1174   1.084   .     S
C1172  C1176   1.400   .     A
C1177  H1179   1.082   .     S
C1178  H1180   1.082   .     S
C1178  C354    1.415   1_556 S
C1181  H1183   1.082   .     S
C1181  C349    1.415   1_556 S
C1182  H1184   1.082   .     S
N1185  O1186   1.301   .     A
N1185  O1187   1.301   .     A
N1185  C1213   1.440   .     S
N1188  O1190   1.301   .     A
N1188  O1189   1.301   .     A
N1191  O1193   1.301   .     A
N1191  O1192   1.301   .     A
N1194  O1196   1.301   .     A
N1194  O1195   1.301   .     A
O1197  C1201   1.295   .     A
O1197  Cu1209  1.972   .     S
O1198  C1202   1.295   .     A
O1198  Cu1210  1.972   .     S
O1199  Cu1210  1.977   .     S
O1199  C1201   1.287   .     A
O1200  C1202   1.287   .     A
O1200  Cu1209  1.977   .     S
C1201  C1222   1.457   .     S
C1202  C1221   1.457   .     S
O1203  Cu1209  1.974   .     S
O1203  C1207   1.283   .     A
O1204  C1208   1.283   .     A
O1204  Cu1210  1.974   .     S
O1205  Cu1210  1.975   .     S
O1205  C1207   1.289   .     A
O1206  C1208   1.289   .     A
O1206  Cu1209  1.975   .     S
C1207  C1213   1.439   .     S
C1208  C1214   1.439   .     S
Cu1209 Cu1210  2.672   .     S
Cu1209 N1211   2.008   .     S
Cu1210 N1212   2.008   .     S
N1211  C1227   1.367   .     A
N1211  C1224   1.366   .     A
N1212  C1223   1.366   .     A
N1212  C1228   1.367   .     A
C1214  C1121   1.358   1_655 S
C1214  N1142   1.440   1_655 S
C1215  C1222   1.415   .     A
C1215  N1237   1.434   .     S
C1216  N1240   1.434   .     S
C1216  C1221   1.415   .     A
C1216  C942    1.385   1_565 S
C1217  H1219   1.084   .     S
C1217  C1221   1.400   .     A
C1217  C939    1.385   1_565 S
C1218  H1220   1.084   .     S
C1218  C1222   1.400   .     A
C1223  H1225   1.082   .     S
C1224  H1226   1.082   .     S
C1224  C400    1.415   1_556 S
C1227  H1229   1.082   .     S
C1227  C395    1.415   1_556 S
C1228  H1230   1.082   .     S
N1231  O1232   1.301   .     A
N1231  O1233   1.301   .     A
N1231  C1121   1.440   1_655 S
N1234  O1236   1.301   .     A
N1234  O1235   1.301   .     A
N1237  O1239   1.301   .     A
N1237  O1238   1.301   .     A
N1240  O1242   1.301   .     A
N1240  O1241   1.301   .     A
