data_str_m2_o1_o16_pcu_sym.169
_audit_creation_date              2020-01-03
_audit_creation_method            'Materials Studio'
_symmetry_space_group_name_H-M    'P1'
_symmetry_Int_Tables_number       1
_symmetry_cell_setting            triclinic
loop_
_symmetry_equiv_pos_as_xyz
  x,y,z
_cell_length_a                    28.5946
_cell_length_b                    32.4843
_cell_length_c                    26.9480
_cell_angle_alpha                 91.0700
_cell_angle_beta                  72.6074
_cell_angle_gamma                 89.6713
loop_
_atom_site_label
_atom_site_type_symbol
_atom_site_fract_x
_atom_site_fract_y
_atom_site_fract_z
_atom_site_U_iso_or_equiv
_atom_site_adp_type
_atom_site_occupancy
O1     O     0.12708   0.22678   0.25000   0.00000  Uiso   1.00
O2     O     0.20627   0.22679   0.25000   0.00000  Uiso   1.00
C3     C     0.16672   0.24592   0.24965   0.00000  Uiso   1.00
O4     O     0.10775   0.16665   0.32549   0.00000  Uiso   1.00
O5     O     0.18694   0.16666   0.32549   0.00000  Uiso   1.00
C6     C     0.14053   0.16459   0.34971   0.00000  Uiso   1.00
Cu7    Cu    0.11978   0.16666   0.25000   0.00000  Uiso   1.00
Cu8    Cu    0.21355   0.16667   0.25000   0.00000  Uiso   1.00
O9     O     0.12706   0.10654   0.24999   0.00000  Uiso   1.00
O10    O     0.20625   0.10655   0.24999   0.00000  Uiso   1.00
O11    O     0.14640   0.16667   0.17451   0.00000  Uiso   1.00
O12    O     0.22559   0.16668   0.17451   0.00000  Uiso   1.00
C13    C     0.16623   0.08744   0.25221   0.00000  Uiso   1.00
C14    C     0.19280   0.16554   0.14997   0.00000  Uiso   1.00
C15    C     0.24895   0.20974   0.02041   0.00000  Uiso   1.00
H16    H     0.26841   0.20763   0.09068   0.00000  Uiso   1.00
H17    H     0.23197   0.24793   0.44327   0.00000  Uiso   1.00
H18    H     0.27491   0.23398   0.00523   0.00000  Uiso   1.00
C19    C     0.20754   0.16777   0.09294   0.00000  Uiso   1.00
C20    C     0.09958   0.11719   0.41903   0.00000  Uiso   1.00
C21    C     0.10742   0.09352   0.45816   0.00000  Uiso   1.00
C22    C     0.13908   0.10676   0.48509   0.00000  Uiso   1.00
C23    C     0.15814   0.14694   0.47925   0.00000  Uiso   1.00
C24    C     0.15289   0.17066   0.43733   0.00000  Uiso   1.00
C25    C     0.18461   0.16333   0.01216   0.00000  Uiso   1.00
C26    C     0.21635   0.19669   0.49379   0.00000  Uiso   1.00
C27    C     0.21182   0.21950   0.45216   0.00000  Uiso   1.00
C28    C     0.17650   0.20950   0.42767   0.00000  Uiso   1.00
C29    C     0.17806   0.15034   0.06406   0.00000  Uiso   1.00
C30    C     0.24540   0.19452   0.06912   0.00000  Uiso   1.00
C31    C     0.12634   0.15381   0.40478   0.00000  Uiso   1.00
H32    H     0.14867   0.08481   0.01011   0.00000  Uiso   1.00
H33    H     0.09090   0.06349   0.46594   0.00000  Uiso   1.00
C34    C     0.20345   0.31131   0.26483   0.00000  Uiso   1.00
H35    H     0.23203   0.29420   0.27457   0.00000  Uiso   1.00
C36    C     0.20208   0.02059   0.27007   0.00000  Uiso   1.00
C37    C     0.16579   0.04275   0.25508   0.00000  Uiso   1.00
C38    C     0.12943   0.02156   0.23998   0.00000  Uiso   1.00
H39    H     0.10115   0.03784   0.22869   0.00000  Uiso   1.00
C40    C     0.12942   0.31234   0.23848   0.00000  Uiso   1.00
H41    H     0.10084   0.29660   0.22703   0.00000  Uiso   1.00
C42    C     0.16668   0.29049   0.25043   0.00000  Uiso   1.00
C43    C     0.29908   0.19330   0.28127   0.00000  Uiso   1.00
H44    H     0.27273   0.21437   0.30632   0.00000  Uiso   1.00
C45    C     0.01492   0.19338   0.28177   0.00000  Uiso   1.00
N46    N     0.04931   0.16666   0.24998   0.00000  Uiso   1.00
C47    C     0.03361   0.13930   0.21948   0.00000  Uiso   1.00
H48    H     0.05915   0.11697   0.19578   0.00000  Uiso   1.00
C49    C     0.31743   0.13945   0.21923   0.00000  Uiso   1.00
H50    H     0.30587   0.11759   0.19461   0.00000  Uiso   1.00
N51    N     0.28402   0.16669   0.24999   0.00000  Uiso   1.00
C52    C     0.23716   0.03991   0.29419   0.00000  Uiso   1.00
O53    O     0.22316   0.06678   0.32792   0.00000  Uiso   1.00
O54    O     0.28578   0.02587   0.28009   0.00000  Uiso   1.00
H55    H     0.30605   0.04106   0.29951   0.00000  Uiso   1.00
I56    I     0.02930   0.23585   0.33589   0.00000  Uiso   1.00
C57    C     0.13601   0.12415   0.09125   0.00000  Uiso   1.00
O58    O     0.14275   0.09395   0.11482   0.00000  Uiso   1.00
O59    O     0.08885   0.13418   0.08958   0.00000  Uiso   1.00
H60    H     0.06379   0.11274   0.10638   0.00000  Uiso   1.00
I61    I     0.05326   0.09066   0.37847   0.00000  Uiso   1.00
C62    C     0.16048   0.24235   0.39814   0.00000  Uiso   1.00
O63    O     0.11721   0.24558   0.40095   0.00000  Uiso   1.00
O64    O     0.19305   0.27120   0.36936   0.00000  Uiso   1.00
H65    H     0.22866   0.26485   0.36532   0.00000  Uiso   1.00
O66    O     0.46042   0.22678   0.25000   0.00000  Uiso   1.00
O67    O     0.53961   0.22679   0.25000   0.00000  Uiso   1.00
C68    C     0.50005   0.24592   0.24965   0.00000  Uiso   1.00
O69    O     0.44108   0.16665   0.32549   0.00000  Uiso   1.00
O70    O     0.52027   0.16666   0.32549   0.00000  Uiso   1.00
C71    C     0.47386   0.16459   0.34971   0.00000  Uiso   1.00
Cu72   Cu    0.45311   0.16666   0.25000   0.00000  Uiso   1.00
Cu73   Cu    0.54689   0.16667   0.25000   0.00000  Uiso   1.00
O74    O     0.46039   0.10654   0.24999   0.00000  Uiso   1.00
O75    O     0.53958   0.10655   0.24999   0.00000  Uiso   1.00
O76    O     0.47973   0.16667   0.17451   0.00000  Uiso   1.00
O77    O     0.55892   0.16668   0.17451   0.00000  Uiso   1.00
C78    C     0.49956   0.08744   0.25221   0.00000  Uiso   1.00
C79    C     0.52613   0.16554   0.14997   0.00000  Uiso   1.00
C80    C     0.58228   0.20974   0.02041   0.00000  Uiso   1.00
H81    H     0.60174   0.20763   0.09068   0.00000  Uiso   1.00
H82    H     0.56530   0.24793   0.44327   0.00000  Uiso   1.00
H83    H     0.60824   0.23398   0.00523   0.00000  Uiso   1.00
C84    C     0.54087   0.16777   0.09294   0.00000  Uiso   1.00
C85    C     0.43292   0.11719   0.41903   0.00000  Uiso   1.00
C86    C     0.44075   0.09352   0.45816   0.00000  Uiso   1.00
C87    C     0.47241   0.10676   0.48509   0.00000  Uiso   1.00
C88    C     0.49147   0.14694   0.47925   0.00000  Uiso   1.00
C89    C     0.48622   0.17066   0.43733   0.00000  Uiso   1.00
C90    C     0.51794   0.16333   0.01216   0.00000  Uiso   1.00
C91    C     0.54968   0.19669   0.49379   0.00000  Uiso   1.00
C92    C     0.54516   0.21950   0.45216   0.00000  Uiso   1.00
C93    C     0.50984   0.20950   0.42767   0.00000  Uiso   1.00
C94    C     0.51140   0.15034   0.06406   0.00000  Uiso   1.00
C95    C     0.57873   0.19452   0.06912   0.00000  Uiso   1.00
C96    C     0.45968   0.15381   0.40478   0.00000  Uiso   1.00
H97    H     0.48201   0.08481   0.01011   0.00000  Uiso   1.00
H98    H     0.42423   0.06349   0.46594   0.00000  Uiso   1.00
C99    C     0.53678   0.31131   0.26483   0.00000  Uiso   1.00
H100   H     0.56537   0.29420   0.27457   0.00000  Uiso   1.00
C101   C     0.53542   0.02059   0.27007   0.00000  Uiso   1.00
C102   C     0.49912   0.04275   0.25508   0.00000  Uiso   1.00
C103   C     0.46276   0.02156   0.23998   0.00000  Uiso   1.00
H104   H     0.43449   0.03784   0.22869   0.00000  Uiso   1.00
C105   C     0.46275   0.31234   0.23848   0.00000  Uiso   1.00
H106   H     0.43417   0.29660   0.22703   0.00000  Uiso   1.00
C107   C     0.50001   0.29049   0.25043   0.00000  Uiso   1.00
C108   C     0.63242   0.19330   0.28127   0.00000  Uiso   1.00
H109   H     0.60606   0.21437   0.30632   0.00000  Uiso   1.00
C110   C     0.34825   0.19338   0.28177   0.00000  Uiso   1.00
N111   N     0.38265   0.16666   0.24998   0.00000  Uiso   1.00
C112   C     0.36695   0.13930   0.21948   0.00000  Uiso   1.00
H113   H     0.39248   0.11697   0.19578   0.00000  Uiso   1.00
C114   C     0.65076   0.13945   0.21923   0.00000  Uiso   1.00
H115   H     0.63920   0.11759   0.19461   0.00000  Uiso   1.00
N116   N     0.61735   0.16669   0.24999   0.00000  Uiso   1.00
C117   C     0.57049   0.03991   0.29419   0.00000  Uiso   1.00
O118   O     0.55650   0.06678   0.32792   0.00000  Uiso   1.00
O119   O     0.61911   0.02587   0.28009   0.00000  Uiso   1.00
H120   H     0.63938   0.04106   0.29951   0.00000  Uiso   1.00
I121   I     0.36263   0.23585   0.33589   0.00000  Uiso   1.00
C122   C     0.46935   0.12415   0.09125   0.00000  Uiso   1.00
O123   O     0.47608   0.09395   0.11482   0.00000  Uiso   1.00
O124   O     0.42218   0.13418   0.08958   0.00000  Uiso   1.00
H125   H     0.39712   0.11274   0.10638   0.00000  Uiso   1.00
I126   I     0.38659   0.09066   0.37847   0.00000  Uiso   1.00
C127   C     0.49381   0.24235   0.39814   0.00000  Uiso   1.00
O128   O     0.45054   0.24558   0.40095   0.00000  Uiso   1.00
O129   O     0.52639   0.27120   0.36936   0.00000  Uiso   1.00
H130   H     0.56200   0.26485   0.36532   0.00000  Uiso   1.00
O131   O     0.79375   0.22678   0.25000   0.00000  Uiso   1.00
O132   O     0.87294   0.22679   0.25000   0.00000  Uiso   1.00
C133   C     0.83338   0.24592   0.24965   0.00000  Uiso   1.00
O134   O     0.77441   0.16665   0.32549   0.00000  Uiso   1.00
O135   O     0.85360   0.16666   0.32549   0.00000  Uiso   1.00
C136   C     0.80720   0.16459   0.34971   0.00000  Uiso   1.00
Cu137  Cu    0.78645   0.16666   0.25000   0.00000  Uiso   1.00
Cu138  Cu    0.88022   0.16667   0.25000   0.00000  Uiso   1.00
O139   O     0.79373   0.10654   0.24999   0.00000  Uiso   1.00
O140   O     0.87292   0.10655   0.24999   0.00000  Uiso   1.00
O141   O     0.81306   0.16667   0.17451   0.00000  Uiso   1.00
O142   O     0.89225   0.16668   0.17451   0.00000  Uiso   1.00
C143   C     0.83289   0.08744   0.25221   0.00000  Uiso   1.00
C144   C     0.85946   0.16554   0.14997   0.00000  Uiso   1.00
C145   C     0.91562   0.20974   0.02041   0.00000  Uiso   1.00
H146   H     0.93508   0.20763   0.09068   0.00000  Uiso   1.00
H147   H     0.89864   0.24793   0.44327   0.00000  Uiso   1.00
H148   H     0.94157   0.23398   0.00523   0.00000  Uiso   1.00
C149   C     0.87420   0.16777   0.09294   0.00000  Uiso   1.00
C150   C     0.76625   0.11719   0.41903   0.00000  Uiso   1.00
C151   C     0.77408   0.09352   0.45816   0.00000  Uiso   1.00
C152   C     0.80574   0.10676   0.48509   0.00000  Uiso   1.00
C153   C     0.82480   0.14694   0.47925   0.00000  Uiso   1.00
C154   C     0.81955   0.17066   0.43733   0.00000  Uiso   1.00
C155   C     0.85127   0.16333   0.01216   0.00000  Uiso   1.00
C156   C     0.88301   0.19669   0.49379   0.00000  Uiso   1.00
C157   C     0.87849   0.21950   0.45216   0.00000  Uiso   1.00
C158   C     0.84317   0.20950   0.42767   0.00000  Uiso   1.00
C159   C     0.84473   0.15034   0.06406   0.00000  Uiso   1.00
C160   C     0.91207   0.19452   0.06912   0.00000  Uiso   1.00
C161   C     0.79301   0.15381   0.40478   0.00000  Uiso   1.00
H162   H     0.81534   0.08481   0.01011   0.00000  Uiso   1.00
H163   H     0.75756   0.06349   0.46594   0.00000  Uiso   1.00
C164   C     0.87011   0.31131   0.26483   0.00000  Uiso   1.00
H165   H     0.89870   0.29420   0.27457   0.00000  Uiso   1.00
C166   C     0.86875   0.02059   0.27007   0.00000  Uiso   1.00
C167   C     0.83245   0.04275   0.25508   0.00000  Uiso   1.00
C168   C     0.79609   0.02156   0.23998   0.00000  Uiso   1.00
H169   H     0.76782   0.03784   0.22869   0.00000  Uiso   1.00
C170   C     0.79608   0.31234   0.23848   0.00000  Uiso   1.00
H171   H     0.76751   0.29660   0.22703   0.00000  Uiso   1.00
C172   C     0.83334   0.29049   0.25043   0.00000  Uiso   1.00
C173   C     0.96575   0.19330   0.28127   0.00000  Uiso   1.00
H174   H     0.93940   0.21437   0.30632   0.00000  Uiso   1.00
C175   C     0.68158   0.19338   0.28177   0.00000  Uiso   1.00
N176   N     0.71598   0.16666   0.24998   0.00000  Uiso   1.00
C177   C     0.70028   0.13930   0.21948   0.00000  Uiso   1.00
H178   H     0.72581   0.11697   0.19578   0.00000  Uiso   1.00
C179   C     0.98409   0.13945   0.21923   0.00000  Uiso   1.00
H180   H     0.97253   0.11759   0.19461   0.00000  Uiso   1.00
N181   N     0.95069   0.16669   0.24999   0.00000  Uiso   1.00
C182   C     0.90383   0.03991   0.29419   0.00000  Uiso   1.00
O183   O     0.88983   0.06678   0.32792   0.00000  Uiso   1.00
O184   O     0.95244   0.02587   0.28009   0.00000  Uiso   1.00
H185   H     0.97272   0.04106   0.29951   0.00000  Uiso   1.00
I186   I     0.69597   0.23585   0.33589   0.00000  Uiso   1.00
C187   C     0.80268   0.12415   0.09125   0.00000  Uiso   1.00
O188   O     0.80941   0.09395   0.11482   0.00000  Uiso   1.00
O189   O     0.75552   0.13418   0.08958   0.00000  Uiso   1.00
H190   H     0.73046   0.11274   0.10638   0.00000  Uiso   1.00
I191   I     0.71992   0.09066   0.37847   0.00000  Uiso   1.00
C192   C     0.82714   0.24235   0.39814   0.00000  Uiso   1.00
O193   O     0.78388   0.24558   0.40095   0.00000  Uiso   1.00
O194   O     0.85972   0.27120   0.36936   0.00000  Uiso   1.00
H195   H     0.89533   0.26485   0.36532   0.00000  Uiso   1.00
O196   O     0.12708   0.56011   0.25000   0.00000  Uiso   1.00
O197   O     0.20627   0.56012   0.25000   0.00000  Uiso   1.00
C198   C     0.16672   0.57925   0.24965   0.00000  Uiso   1.00
O199   O     0.10775   0.49998   0.32549   0.00000  Uiso   1.00
O200   O     0.18694   0.49999   0.32549   0.00000  Uiso   1.00
C201   C     0.14053   0.49793   0.34971   0.00000  Uiso   1.00
Cu202  Cu    0.11978   0.49999   0.25000   0.00000  Uiso   1.00
Cu203  Cu    0.21355   0.50001   0.25000   0.00000  Uiso   1.00
O204   O     0.12706   0.43988   0.24999   0.00000  Uiso   1.00
O205   O     0.20625   0.43989   0.24999   0.00000  Uiso   1.00
O206   O     0.14640   0.50001   0.17451   0.00000  Uiso   1.00
O207   O     0.22559   0.50002   0.17451   0.00000  Uiso   1.00
C208   C     0.16623   0.42077   0.25221   0.00000  Uiso   1.00
C209   C     0.19280   0.49888   0.14997   0.00000  Uiso   1.00
C210   C     0.24895   0.54308   0.02041   0.00000  Uiso   1.00
H211   H     0.26841   0.54096   0.09068   0.00000  Uiso   1.00
H212   H     0.23197   0.58126   0.44327   0.00000  Uiso   1.00
H213   H     0.27491   0.56732   0.00523   0.00000  Uiso   1.00
C214   C     0.20754   0.50110   0.09294   0.00000  Uiso   1.00
C215   C     0.09958   0.45052   0.41903   0.00000  Uiso   1.00
C216   C     0.10742   0.42685   0.45816   0.00000  Uiso   1.00
C217   C     0.13908   0.44009   0.48509   0.00000  Uiso   1.00
C218   C     0.15814   0.48028   0.47925   0.00000  Uiso   1.00
C219   C     0.15289   0.50399   0.43733   0.00000  Uiso   1.00
C220   C     0.18461   0.49667   0.01216   0.00000  Uiso   1.00
C221   C     0.21635   0.53002   0.49379   0.00000  Uiso   1.00
C222   C     0.21182   0.55283   0.45216   0.00000  Uiso   1.00
C223   C     0.17650   0.54284   0.42767   0.00000  Uiso   1.00
C224   C     0.17806   0.48367   0.06406   0.00000  Uiso   1.00
C225   C     0.24540   0.52785   0.06912   0.00000  Uiso   1.00
C226   C     0.12634   0.48714   0.40478   0.00000  Uiso   1.00
H227   H     0.14867   0.41814   0.01011   0.00000  Uiso   1.00
H228   H     0.09090   0.39682   0.46594   0.00000  Uiso   1.00
C229   C     0.20345   0.64464   0.26483   0.00000  Uiso   1.00
H230   H     0.23203   0.62753   0.27457   0.00000  Uiso   1.00
C231   C     0.20208   0.35393   0.27007   0.00000  Uiso   1.00
C232   C     0.16579   0.37609   0.25508   0.00000  Uiso   1.00
C233   C     0.12943   0.35489   0.23998   0.00000  Uiso   1.00
H234   H     0.10115   0.37118   0.22869   0.00000  Uiso   1.00
C235   C     0.12942   0.64568   0.23848   0.00000  Uiso   1.00
H236   H     0.10084   0.62994   0.22703   0.00000  Uiso   1.00
C237   C     0.16668   0.62382   0.25043   0.00000  Uiso   1.00
C238   C     0.29908   0.52663   0.28127   0.00000  Uiso   1.00
H239   H     0.27273   0.54771   0.30632   0.00000  Uiso   1.00
C240   C     0.01492   0.52671   0.28177   0.00000  Uiso   1.00
N241   N     0.04931   0.49999   0.24998   0.00000  Uiso   1.00
C242   C     0.03361   0.47264   0.21948   0.00000  Uiso   1.00
H243   H     0.05915   0.45031   0.19578   0.00000  Uiso   1.00
C244   C     0.31743   0.47279   0.21923   0.00000  Uiso   1.00
H245   H     0.30587   0.45093   0.19461   0.00000  Uiso   1.00
N246   N     0.28402   0.50002   0.24999   0.00000  Uiso   1.00
C247   C     0.23716   0.37325   0.29419   0.00000  Uiso   1.00
O248   O     0.22316   0.40011   0.32792   0.00000  Uiso   1.00
O249   O     0.28578   0.35920   0.28009   0.00000  Uiso   1.00
H250   H     0.30605   0.37439   0.29951   0.00000  Uiso   1.00
I251   I     0.02930   0.56918   0.33589   0.00000  Uiso   1.00
C252   C     0.13601   0.45749   0.09125   0.00000  Uiso   1.00
O253   O     0.14275   0.42729   0.11482   0.00000  Uiso   1.00
O254   O     0.08885   0.46752   0.08958   0.00000  Uiso   1.00
H255   H     0.06379   0.44607   0.10638   0.00000  Uiso   1.00
I256   I     0.05326   0.42399   0.37847   0.00000  Uiso   1.00
C257   C     0.16048   0.57568   0.39814   0.00000  Uiso   1.00
O258   O     0.11721   0.57892   0.40095   0.00000  Uiso   1.00
O259   O     0.19305   0.60453   0.36936   0.00000  Uiso   1.00
H260   H     0.22866   0.59819   0.36532   0.00000  Uiso   1.00
O261   O     0.46042   0.56011   0.25000   0.00000  Uiso   1.00
O262   O     0.53961   0.56012   0.25000   0.00000  Uiso   1.00
C263   C     0.50005   0.57925   0.24965   0.00000  Uiso   1.00
O264   O     0.44108   0.49998   0.32549   0.00000  Uiso   1.00
O265   O     0.52027   0.49999   0.32549   0.00000  Uiso   1.00
C266   C     0.47386   0.49793   0.34971   0.00000  Uiso   1.00
Cu267  Cu    0.45311   0.49999   0.25000   0.00000  Uiso   1.00
Cu268  Cu    0.54689   0.50001   0.25000   0.00000  Uiso   1.00
O269   O     0.46039   0.43988   0.24999   0.00000  Uiso   1.00
O270   O     0.53958   0.43989   0.24999   0.00000  Uiso   1.00
O271   O     0.47973   0.50001   0.17451   0.00000  Uiso   1.00
O272   O     0.55892   0.50002   0.17451   0.00000  Uiso   1.00
C273   C     0.49956   0.42077   0.25221   0.00000  Uiso   1.00
C274   C     0.52613   0.49888   0.14997   0.00000  Uiso   1.00
C275   C     0.58228   0.54308   0.02041   0.00000  Uiso   1.00
H276   H     0.60174   0.54096   0.09068   0.00000  Uiso   1.00
H277   H     0.56530   0.58126   0.44327   0.00000  Uiso   1.00
H278   H     0.60824   0.56732   0.00523   0.00000  Uiso   1.00
C279   C     0.54087   0.50110   0.09294   0.00000  Uiso   1.00
C280   C     0.43292   0.45052   0.41903   0.00000  Uiso   1.00
C281   C     0.44075   0.42685   0.45816   0.00000  Uiso   1.00
C282   C     0.47241   0.44009   0.48509   0.00000  Uiso   1.00
C283   C     0.49147   0.48028   0.47925   0.00000  Uiso   1.00
C284   C     0.48622   0.50399   0.43733   0.00000  Uiso   1.00
C285   C     0.51794   0.49667   0.01216   0.00000  Uiso   1.00
C286   C     0.54968   0.53002   0.49379   0.00000  Uiso   1.00
C287   C     0.54516   0.55283   0.45216   0.00000  Uiso   1.00
C288   C     0.50984   0.54284   0.42767   0.00000  Uiso   1.00
C289   C     0.51140   0.48367   0.06406   0.00000  Uiso   1.00
C290   C     0.57873   0.52785   0.06912   0.00000  Uiso   1.00
C291   C     0.45968   0.48714   0.40478   0.00000  Uiso   1.00
H292   H     0.48201   0.41814   0.01011   0.00000  Uiso   1.00
H293   H     0.42423   0.39682   0.46594   0.00000  Uiso   1.00
C294   C     0.53678   0.64464   0.26483   0.00000  Uiso   1.00
H295   H     0.56537   0.62753   0.27457   0.00000  Uiso   1.00
C296   C     0.53542   0.35393   0.27007   0.00000  Uiso   1.00
C297   C     0.49912   0.37609   0.25508   0.00000  Uiso   1.00
C298   C     0.46276   0.35489   0.23998   0.00000  Uiso   1.00
H299   H     0.43449   0.37118   0.22869   0.00000  Uiso   1.00
C300   C     0.46275   0.64568   0.23848   0.00000  Uiso   1.00
H301   H     0.43417   0.62994   0.22703   0.00000  Uiso   1.00
C302   C     0.50001   0.62382   0.25043   0.00000  Uiso   1.00
C303   C     0.63242   0.52663   0.28127   0.00000  Uiso   1.00
H304   H     0.60606   0.54771   0.30632   0.00000  Uiso   1.00
C305   C     0.34825   0.52671   0.28177   0.00000  Uiso   1.00
N306   N     0.38265   0.49999   0.24998   0.00000  Uiso   1.00
C307   C     0.36695   0.47264   0.21948   0.00000  Uiso   1.00
H308   H     0.39248   0.45031   0.19578   0.00000  Uiso   1.00
C309   C     0.65076   0.47279   0.21923   0.00000  Uiso   1.00
H310   H     0.63920   0.45093   0.19461   0.00000  Uiso   1.00
N311   N     0.61735   0.50002   0.24999   0.00000  Uiso   1.00
C312   C     0.57049   0.37325   0.29419   0.00000  Uiso   1.00
O313   O     0.55650   0.40011   0.32792   0.00000  Uiso   1.00
O314   O     0.61911   0.35920   0.28009   0.00000  Uiso   1.00
H315   H     0.63938   0.37439   0.29951   0.00000  Uiso   1.00
I316   I     0.36263   0.56918   0.33589   0.00000  Uiso   1.00
C317   C     0.46935   0.45749   0.09125   0.00000  Uiso   1.00
O318   O     0.47608   0.42729   0.11482   0.00000  Uiso   1.00
O319   O     0.42218   0.46752   0.08958   0.00000  Uiso   1.00
H320   H     0.39712   0.44607   0.10638   0.00000  Uiso   1.00
I321   I     0.38659   0.42399   0.37847   0.00000  Uiso   1.00
C322   C     0.49381   0.57568   0.39814   0.00000  Uiso   1.00
O323   O     0.45054   0.57892   0.40095   0.00000  Uiso   1.00
O324   O     0.52639   0.60453   0.36936   0.00000  Uiso   1.00
H325   H     0.56200   0.59819   0.36532   0.00000  Uiso   1.00
O326   O     0.79375   0.56011   0.25000   0.00000  Uiso   1.00
O327   O     0.87294   0.56012   0.25000   0.00000  Uiso   1.00
C328   C     0.83338   0.57925   0.24965   0.00000  Uiso   1.00
O329   O     0.77441   0.49998   0.32549   0.00000  Uiso   1.00
O330   O     0.85360   0.49999   0.32549   0.00000  Uiso   1.00
C331   C     0.80720   0.49793   0.34971   0.00000  Uiso   1.00
Cu332  Cu    0.78645   0.49999   0.25000   0.00000  Uiso   1.00
Cu333  Cu    0.88022   0.50001   0.25000   0.00000  Uiso   1.00
O334   O     0.79373   0.43988   0.24999   0.00000  Uiso   1.00
O335   O     0.87292   0.43989   0.24999   0.00000  Uiso   1.00
O336   O     0.81306   0.50001   0.17451   0.00000  Uiso   1.00
O337   O     0.89225   0.50002   0.17451   0.00000  Uiso   1.00
C338   C     0.83289   0.42077   0.25221   0.00000  Uiso   1.00
C339   C     0.85946   0.49888   0.14997   0.00000  Uiso   1.00
C340   C     0.91562   0.54308   0.02041   0.00000  Uiso   1.00
H341   H     0.93508   0.54096   0.09068   0.00000  Uiso   1.00
H342   H     0.89864   0.58126   0.44327   0.00000  Uiso   1.00
H343   H     0.94157   0.56732   0.00523   0.00000  Uiso   1.00
C344   C     0.87420   0.50110   0.09294   0.00000  Uiso   1.00
C345   C     0.76625   0.45052   0.41903   0.00000  Uiso   1.00
C346   C     0.77408   0.42685   0.45816   0.00000  Uiso   1.00
C347   C     0.80574   0.44009   0.48509   0.00000  Uiso   1.00
C348   C     0.82480   0.48028   0.47925   0.00000  Uiso   1.00
C349   C     0.81955   0.50399   0.43733   0.00000  Uiso   1.00
C350   C     0.85127   0.49667   0.01216   0.00000  Uiso   1.00
C351   C     0.88301   0.53002   0.49379   0.00000  Uiso   1.00
C352   C     0.87849   0.55283   0.45216   0.00000  Uiso   1.00
C353   C     0.84317   0.54284   0.42767   0.00000  Uiso   1.00
C354   C     0.84473   0.48367   0.06406   0.00000  Uiso   1.00
C355   C     0.91207   0.52785   0.06912   0.00000  Uiso   1.00
C356   C     0.79301   0.48714   0.40478   0.00000  Uiso   1.00
H357   H     0.81534   0.41814   0.01011   0.00000  Uiso   1.00
H358   H     0.75756   0.39682   0.46594   0.00000  Uiso   1.00
C359   C     0.87011   0.64464   0.26483   0.00000  Uiso   1.00
H360   H     0.89870   0.62753   0.27457   0.00000  Uiso   1.00
C361   C     0.86875   0.35393   0.27007   0.00000  Uiso   1.00
C362   C     0.83245   0.37609   0.25508   0.00000  Uiso   1.00
C363   C     0.79609   0.35489   0.23998   0.00000  Uiso   1.00
H364   H     0.76782   0.37118   0.22869   0.00000  Uiso   1.00
C365   C     0.79608   0.64568   0.23848   0.00000  Uiso   1.00
H366   H     0.76751   0.62994   0.22703   0.00000  Uiso   1.00
C367   C     0.83334   0.62382   0.25043   0.00000  Uiso   1.00
C368   C     0.96575   0.52663   0.28127   0.00000  Uiso   1.00
H369   H     0.93940   0.54771   0.30632   0.00000  Uiso   1.00
C370   C     0.68158   0.52671   0.28177   0.00000  Uiso   1.00
N371   N     0.71598   0.49999   0.24998   0.00000  Uiso   1.00
C372   C     0.70028   0.47264   0.21948   0.00000  Uiso   1.00
H373   H     0.72581   0.45031   0.19578   0.00000  Uiso   1.00
C374   C     0.98409   0.47279   0.21923   0.00000  Uiso   1.00
H375   H     0.97253   0.45093   0.19461   0.00000  Uiso   1.00
N376   N     0.95069   0.50002   0.24999   0.00000  Uiso   1.00
C377   C     0.90383   0.37325   0.29419   0.00000  Uiso   1.00
O378   O     0.88983   0.40011   0.32792   0.00000  Uiso   1.00
O379   O     0.95244   0.35920   0.28009   0.00000  Uiso   1.00
H380   H     0.97272   0.37439   0.29951   0.00000  Uiso   1.00
I381   I     0.69597   0.56918   0.33589   0.00000  Uiso   1.00
C382   C     0.80268   0.45749   0.09125   0.00000  Uiso   1.00
O383   O     0.80941   0.42729   0.11482   0.00000  Uiso   1.00
O384   O     0.75552   0.46752   0.08958   0.00000  Uiso   1.00
H385   H     0.73046   0.44607   0.10638   0.00000  Uiso   1.00
I386   I     0.71992   0.42399   0.37847   0.00000  Uiso   1.00
C387   C     0.82714   0.57568   0.39814   0.00000  Uiso   1.00
O388   O     0.78388   0.57892   0.40095   0.00000  Uiso   1.00
O389   O     0.85972   0.60453   0.36936   0.00000  Uiso   1.00
H390   H     0.89533   0.59819   0.36532   0.00000  Uiso   1.00
O391   O     0.12708   0.89345   0.25000   0.00000  Uiso   1.00
O392   O     0.20627   0.89346   0.25000   0.00000  Uiso   1.00
C393   C     0.16672   0.91259   0.24965   0.00000  Uiso   1.00
O394   O     0.10775   0.83332   0.32549   0.00000  Uiso   1.00
O395   O     0.18694   0.83333   0.32549   0.00000  Uiso   1.00
C396   C     0.14053   0.83126   0.34971   0.00000  Uiso   1.00
Cu397  Cu    0.11978   0.83333   0.25000   0.00000  Uiso   1.00
Cu398  Cu    0.21355   0.83334   0.25000   0.00000  Uiso   1.00
O399   O     0.12706   0.77321   0.24999   0.00000  Uiso   1.00
O400   O     0.20625   0.77322   0.24999   0.00000  Uiso   1.00
O401   O     0.14640   0.83334   0.17451   0.00000  Uiso   1.00
O402   O     0.22559   0.83335   0.17451   0.00000  Uiso   1.00
C403   C     0.16623   0.75410   0.25221   0.00000  Uiso   1.00
C404   C     0.19280   0.83221   0.14997   0.00000  Uiso   1.00
C405   C     0.24895   0.87641   0.02041   0.00000  Uiso   1.00
H406   H     0.26841   0.87430   0.09068   0.00000  Uiso   1.00
H407   H     0.23197   0.91459   0.44327   0.00000  Uiso   1.00
H408   H     0.27491   0.90065   0.00523   0.00000  Uiso   1.00
C409   C     0.20754   0.83443   0.09294   0.00000  Uiso   1.00
C410   C     0.09958   0.78386   0.41903   0.00000  Uiso   1.00
C411   C     0.10742   0.76018   0.45816   0.00000  Uiso   1.00
C412   C     0.13908   0.77342   0.48509   0.00000  Uiso   1.00
C413   C     0.15814   0.81361   0.47925   0.00000  Uiso   1.00
C414   C     0.15289   0.83733   0.43733   0.00000  Uiso   1.00
C415   C     0.18461   0.83000   0.01216   0.00000  Uiso   1.00
C416   C     0.21635   0.86335   0.49379   0.00000  Uiso   1.00
C417   C     0.21182   0.88617   0.45216   0.00000  Uiso   1.00
C418   C     0.17650   0.87617   0.42767   0.00000  Uiso   1.00
C419   C     0.17806   0.81701   0.06406   0.00000  Uiso   1.00
C420   C     0.24540   0.86118   0.06912   0.00000  Uiso   1.00
C421   C     0.12634   0.82048   0.40478   0.00000  Uiso   1.00
H422   H     0.14867   0.75147   0.01011   0.00000  Uiso   1.00
H423   H     0.09090   0.73015   0.46594   0.00000  Uiso   1.00
C424   C     0.20345   0.97797   0.26483   0.00000  Uiso   1.00
H425   H     0.23203   0.96087   0.27457   0.00000  Uiso   1.00
C426   C     0.20208   0.68726   0.27007   0.00000  Uiso   1.00
C427   C     0.16579   0.70942   0.25508   0.00000  Uiso   1.00
C428   C     0.12943   0.68822   0.23998   0.00000  Uiso   1.00
H429   H     0.10115   0.70451   0.22869   0.00000  Uiso   1.00
C430   C     0.12942   0.97901   0.23848   0.00000  Uiso   1.00
H431   H     0.10084   0.96327   0.22703   0.00000  Uiso   1.00
C432   C     0.16668   0.95716   0.25043   0.00000  Uiso   1.00
C433   C     0.29908   0.85997   0.28127   0.00000  Uiso   1.00
H434   H     0.27273   0.88104   0.30632   0.00000  Uiso   1.00
C435   C     0.01492   0.86004   0.28177   0.00000  Uiso   1.00
N436   N     0.04931   0.83332   0.24998   0.00000  Uiso   1.00
C437   C     0.03361   0.80597   0.21948   0.00000  Uiso   1.00
H438   H     0.05915   0.78364   0.19578   0.00000  Uiso   1.00
C439   C     0.31743   0.80612   0.21923   0.00000  Uiso   1.00
H440   H     0.30587   0.78426   0.19461   0.00000  Uiso   1.00
N441   N     0.28402   0.83335   0.24999   0.00000  Uiso   1.00
C442   C     0.23716   0.70658   0.29419   0.00000  Uiso   1.00
O443   O     0.22316   0.73344   0.32792   0.00000  Uiso   1.00
O444   O     0.28578   0.69253   0.28009   0.00000  Uiso   1.00
H445   H     0.30605   0.70773   0.29951   0.00000  Uiso   1.00
I446   I     0.02930   0.90252   0.33589   0.00000  Uiso   1.00
C447   C     0.13601   0.79082   0.09125   0.00000  Uiso   1.00
O448   O     0.14275   0.76062   0.11482   0.00000  Uiso   1.00
O449   O     0.08885   0.80085   0.08958   0.00000  Uiso   1.00
H450   H     0.06379   0.77941   0.10638   0.00000  Uiso   1.00
I451   I     0.05326   0.75733   0.37847   0.00000  Uiso   1.00
C452   C     0.16048   0.90901   0.39814   0.00000  Uiso   1.00
O453   O     0.11721   0.91225   0.40095   0.00000  Uiso   1.00
O454   O     0.19305   0.93786   0.36936   0.00000  Uiso   1.00
H455   H     0.22866   0.93152   0.36532   0.00000  Uiso   1.00
O456   O     0.46042   0.89345   0.25000   0.00000  Uiso   1.00
O457   O     0.53961   0.89346   0.25000   0.00000  Uiso   1.00
C458   C     0.50005   0.91259   0.24965   0.00000  Uiso   1.00
O459   O     0.44108   0.83332   0.32549   0.00000  Uiso   1.00
O460   O     0.52027   0.83333   0.32549   0.00000  Uiso   1.00
C461   C     0.47386   0.83126   0.34971   0.00000  Uiso   1.00
Cu462  Cu    0.45311   0.83333   0.25000   0.00000  Uiso   1.00
Cu463  Cu    0.54689   0.83334   0.25000   0.00000  Uiso   1.00
O464   O     0.46039   0.77321   0.24999   0.00000  Uiso   1.00
O465   O     0.53958   0.77322   0.24999   0.00000  Uiso   1.00
O466   O     0.47973   0.83334   0.17451   0.00000  Uiso   1.00
O467   O     0.55892   0.83335   0.17451   0.00000  Uiso   1.00
C468   C     0.49956   0.75410   0.25221   0.00000  Uiso   1.00
C469   C     0.52613   0.83221   0.14997   0.00000  Uiso   1.00
C470   C     0.58228   0.87641   0.02041   0.00000  Uiso   1.00
H471   H     0.60174   0.87430   0.09068   0.00000  Uiso   1.00
H472   H     0.56530   0.91459   0.44327   0.00000  Uiso   1.00
H473   H     0.60824   0.90065   0.00523   0.00000  Uiso   1.00
C474   C     0.54087   0.83443   0.09294   0.00000  Uiso   1.00
C475   C     0.43292   0.78386   0.41903   0.00000  Uiso   1.00
C476   C     0.44075   0.76018   0.45816   0.00000  Uiso   1.00
C477   C     0.47241   0.77342   0.48509   0.00000  Uiso   1.00
C478   C     0.49147   0.81361   0.47925   0.00000  Uiso   1.00
C479   C     0.48622   0.83733   0.43733   0.00000  Uiso   1.00
C480   C     0.51794   0.83000   0.01216   0.00000  Uiso   1.00
C481   C     0.54968   0.86335   0.49379   0.00000  Uiso   1.00
C482   C     0.54516   0.88617   0.45216   0.00000  Uiso   1.00
C483   C     0.50984   0.87617   0.42767   0.00000  Uiso   1.00
C484   C     0.51140   0.81701   0.06406   0.00000  Uiso   1.00
C485   C     0.57873   0.86118   0.06912   0.00000  Uiso   1.00
C486   C     0.45968   0.82048   0.40478   0.00000  Uiso   1.00
H487   H     0.48201   0.75147   0.01011   0.00000  Uiso   1.00
H488   H     0.42423   0.73015   0.46594   0.00000  Uiso   1.00
C489   C     0.53678   0.97797   0.26483   0.00000  Uiso   1.00
H490   H     0.56537   0.96087   0.27457   0.00000  Uiso   1.00
C491   C     0.53542   0.68726   0.27007   0.00000  Uiso   1.00
C492   C     0.49912   0.70942   0.25508   0.00000  Uiso   1.00
C493   C     0.46276   0.68822   0.23998   0.00000  Uiso   1.00
H494   H     0.43449   0.70451   0.22869   0.00000  Uiso   1.00
C495   C     0.46275   0.97901   0.23848   0.00000  Uiso   1.00
H496   H     0.43417   0.96327   0.22703   0.00000  Uiso   1.00
C497   C     0.50001   0.95716   0.25043   0.00000  Uiso   1.00
C498   C     0.63242   0.85997   0.28127   0.00000  Uiso   1.00
H499   H     0.60606   0.88104   0.30632   0.00000  Uiso   1.00
C500   C     0.34825   0.86004   0.28177   0.00000  Uiso   1.00
N501   N     0.38265   0.83332   0.24998   0.00000  Uiso   1.00
C502   C     0.36695   0.80597   0.21948   0.00000  Uiso   1.00
H503   H     0.39248   0.78364   0.19578   0.00000  Uiso   1.00
C504   C     0.65076   0.80612   0.21923   0.00000  Uiso   1.00
H505   H     0.63920   0.78426   0.19461   0.00000  Uiso   1.00
N506   N     0.61735   0.83335   0.24999   0.00000  Uiso   1.00
C507   C     0.57049   0.70658   0.29419   0.00000  Uiso   1.00
O508   O     0.55650   0.73344   0.32792   0.00000  Uiso   1.00
O509   O     0.61911   0.69253   0.28009   0.00000  Uiso   1.00
H510   H     0.63938   0.70773   0.29951   0.00000  Uiso   1.00
I511   I     0.36263   0.90252   0.33589   0.00000  Uiso   1.00
C512   C     0.46935   0.79082   0.09125   0.00000  Uiso   1.00
O513   O     0.47608   0.76062   0.11482   0.00000  Uiso   1.00
O514   O     0.42218   0.80085   0.08958   0.00000  Uiso   1.00
H515   H     0.39712   0.77941   0.10638   0.00000  Uiso   1.00
I516   I     0.38659   0.75733   0.37847   0.00000  Uiso   1.00
C517   C     0.49381   0.90901   0.39814   0.00000  Uiso   1.00
O518   O     0.45054   0.91225   0.40095   0.00000  Uiso   1.00
O519   O     0.52639   0.93786   0.36936   0.00000  Uiso   1.00
H520   H     0.56200   0.93152   0.36532   0.00000  Uiso   1.00
O521   O     0.79375   0.89345   0.25000   0.00000  Uiso   1.00
O522   O     0.87294   0.89346   0.25000   0.00000  Uiso   1.00
C523   C     0.83338   0.91259   0.24965   0.00000  Uiso   1.00
O524   O     0.77441   0.83332   0.32549   0.00000  Uiso   1.00
O525   O     0.85360   0.83333   0.32549   0.00000  Uiso   1.00
C526   C     0.80720   0.83126   0.34971   0.00000  Uiso   1.00
Cu527  Cu    0.78645   0.83333   0.25000   0.00000  Uiso   1.00
Cu528  Cu    0.88022   0.83334   0.25000   0.00000  Uiso   1.00
O529   O     0.79373   0.77321   0.24999   0.00000  Uiso   1.00
O530   O     0.87292   0.77322   0.24999   0.00000  Uiso   1.00
O531   O     0.81306   0.83334   0.17451   0.00000  Uiso   1.00
O532   O     0.89225   0.83335   0.17451   0.00000  Uiso   1.00
C533   C     0.83289   0.75410   0.25221   0.00000  Uiso   1.00
C534   C     0.85946   0.83221   0.14997   0.00000  Uiso   1.00
C535   C     0.91562   0.87641   0.02041   0.00000  Uiso   1.00
H536   H     0.93508   0.87430   0.09068   0.00000  Uiso   1.00
H537   H     0.89864   0.91459   0.44327   0.00000  Uiso   1.00
H538   H     0.94157   0.90065   0.00523   0.00000  Uiso   1.00
C539   C     0.87420   0.83443   0.09294   0.00000  Uiso   1.00
C540   C     0.76625   0.78386   0.41903   0.00000  Uiso   1.00
C541   C     0.77408   0.76018   0.45816   0.00000  Uiso   1.00
C542   C     0.80574   0.77342   0.48509   0.00000  Uiso   1.00
C543   C     0.82480   0.81361   0.47925   0.00000  Uiso   1.00
C544   C     0.81955   0.83733   0.43733   0.00000  Uiso   1.00
C545   C     0.85127   0.83000   0.01216   0.00000  Uiso   1.00
C546   C     0.88301   0.86335   0.49379   0.00000  Uiso   1.00
C547   C     0.87849   0.88617   0.45216   0.00000  Uiso   1.00
C548   C     0.84317   0.87617   0.42767   0.00000  Uiso   1.00
C549   C     0.84473   0.81701   0.06406   0.00000  Uiso   1.00
C550   C     0.91207   0.86118   0.06912   0.00000  Uiso   1.00
C551   C     0.79301   0.82048   0.40478   0.00000  Uiso   1.00
H552   H     0.81534   0.75147   0.01011   0.00000  Uiso   1.00
H553   H     0.75756   0.73015   0.46594   0.00000  Uiso   1.00
C554   C     0.87011   0.97797   0.26483   0.00000  Uiso   1.00
H555   H     0.89870   0.96087   0.27457   0.00000  Uiso   1.00
C556   C     0.86875   0.68726   0.27007   0.00000  Uiso   1.00
C557   C     0.83245   0.70942   0.25508   0.00000  Uiso   1.00
C558   C     0.79609   0.68822   0.23998   0.00000  Uiso   1.00
H559   H     0.76782   0.70451   0.22869   0.00000  Uiso   1.00
C560   C     0.79608   0.97901   0.23848   0.00000  Uiso   1.00
H561   H     0.76751   0.96327   0.22703   0.00000  Uiso   1.00
C562   C     0.83334   0.95716   0.25043   0.00000  Uiso   1.00
C563   C     0.96575   0.85997   0.28127   0.00000  Uiso   1.00
H564   H     0.93940   0.88104   0.30632   0.00000  Uiso   1.00
C565   C     0.68158   0.86004   0.28177   0.00000  Uiso   1.00
N566   N     0.71598   0.83332   0.24998   0.00000  Uiso   1.00
C567   C     0.70028   0.80597   0.21948   0.00000  Uiso   1.00
H568   H     0.72581   0.78364   0.19578   0.00000  Uiso   1.00
C569   C     0.98409   0.80612   0.21923   0.00000  Uiso   1.00
H570   H     0.97253   0.78426   0.19461   0.00000  Uiso   1.00
N571   N     0.95069   0.83335   0.24999   0.00000  Uiso   1.00
C572   C     0.90383   0.70658   0.29419   0.00000  Uiso   1.00
O573   O     0.88983   0.73344   0.32792   0.00000  Uiso   1.00
O574   O     0.95244   0.69253   0.28009   0.00000  Uiso   1.00
H575   H     0.97272   0.70773   0.29951   0.00000  Uiso   1.00
I576   I     0.69597   0.90252   0.33589   0.00000  Uiso   1.00
C577   C     0.80268   0.79082   0.09125   0.00000  Uiso   1.00
O578   O     0.80941   0.76062   0.11482   0.00000  Uiso   1.00
O579   O     0.75552   0.80085   0.08958   0.00000  Uiso   1.00
H580   H     0.73046   0.77941   0.10638   0.00000  Uiso   1.00
I581   I     0.71992   0.75733   0.37847   0.00000  Uiso   1.00
C582   C     0.82714   0.90901   0.39814   0.00000  Uiso   1.00
O583   O     0.78388   0.91225   0.40095   0.00000  Uiso   1.00
O584   O     0.85972   0.93786   0.36936   0.00000  Uiso   1.00
H585   H     0.89533   0.93152   0.36532   0.00000  Uiso   1.00
O586   O     0.12708   0.22678   0.75000   0.00000  Uiso   1.00
O587   O     0.20627   0.22679   0.75000   0.00000  Uiso   1.00
C588   C     0.16672   0.24592   0.74965   0.00000  Uiso   1.00
O589   O     0.10775   0.16665   0.82549   0.00000  Uiso   1.00
O590   O     0.18694   0.16666   0.82549   0.00000  Uiso   1.00
C591   C     0.14053   0.16459   0.84971   0.00000  Uiso   1.00
Cu592  Cu    0.11978   0.16666   0.75000   0.00000  Uiso   1.00
Cu593  Cu    0.21355   0.16667   0.75000   0.00000  Uiso   1.00
O594   O     0.12706   0.10654   0.74999   0.00000  Uiso   1.00
O595   O     0.20625   0.10655   0.74999   0.00000  Uiso   1.00
O596   O     0.14640   0.16667   0.67451   0.00000  Uiso   1.00
O597   O     0.22559   0.16668   0.67451   0.00000  Uiso   1.00
C598   C     0.16623   0.08744   0.75221   0.00000  Uiso   1.00
C599   C     0.19280   0.16554   0.64997   0.00000  Uiso   1.00
C600   C     0.24895   0.20974   0.52041   0.00000  Uiso   1.00
H601   H     0.26841   0.20763   0.59068   0.00000  Uiso   1.00
H602   H     0.23197   0.24793   0.94327   0.00000  Uiso   1.00
H603   H     0.27491   0.23398   0.50523   0.00000  Uiso   1.00
C604   C     0.20754   0.16777   0.59294   0.00000  Uiso   1.00
C605   C     0.09958   0.11719   0.91903   0.00000  Uiso   1.00
C606   C     0.10742   0.09352   0.95816   0.00000  Uiso   1.00
C607   C     0.13908   0.10676   0.98509   0.00000  Uiso   1.00
C608   C     0.15814   0.14694   0.97925   0.00000  Uiso   1.00
C609   C     0.15289   0.17066   0.93733   0.00000  Uiso   1.00
C610   C     0.18461   0.16333   0.51216   0.00000  Uiso   1.00
C611   C     0.21635   0.19669   0.99379   0.00000  Uiso   1.00
C612   C     0.21182   0.21950   0.95216   0.00000  Uiso   1.00
C613   C     0.17650   0.20950   0.92767   0.00000  Uiso   1.00
C614   C     0.17806   0.15034   0.56406   0.00000  Uiso   1.00
C615   C     0.24540   0.19452   0.56912   0.00000  Uiso   1.00
C616   C     0.12634   0.15381   0.90478   0.00000  Uiso   1.00
H617   H     0.14867   0.08481   0.51011   0.00000  Uiso   1.00
H618   H     0.09090   0.06349   0.96594   0.00000  Uiso   1.00
C619   C     0.20345   0.31131   0.76483   0.00000  Uiso   1.00
H620   H     0.23203   0.29420   0.77457   0.00000  Uiso   1.00
C621   C     0.20208   0.02059   0.77007   0.00000  Uiso   1.00
C622   C     0.16579   0.04275   0.75508   0.00000  Uiso   1.00
C623   C     0.12943   0.02156   0.73998   0.00000  Uiso   1.00
H624   H     0.10115   0.03784   0.72869   0.00000  Uiso   1.00
C625   C     0.12942   0.31234   0.73848   0.00000  Uiso   1.00
H626   H     0.10084   0.29660   0.72703   0.00000  Uiso   1.00
C627   C     0.16668   0.29049   0.75043   0.00000  Uiso   1.00
C628   C     0.29908   0.19330   0.78127   0.00000  Uiso   1.00
H629   H     0.27273   0.21437   0.80632   0.00000  Uiso   1.00
C630   C     0.01492   0.19338   0.78177   0.00000  Uiso   1.00
N631   N     0.04931   0.16666   0.74998   0.00000  Uiso   1.00
C632   C     0.03361   0.13930   0.71948   0.00000  Uiso   1.00
H633   H     0.05915   0.11697   0.69578   0.00000  Uiso   1.00
C634   C     0.31743   0.13945   0.71923   0.00000  Uiso   1.00
H635   H     0.30587   0.11759   0.69461   0.00000  Uiso   1.00
N636   N     0.28402   0.16669   0.74999   0.00000  Uiso   1.00
C637   C     0.23716   0.03991   0.79419   0.00000  Uiso   1.00
O638   O     0.22316   0.06678   0.82792   0.00000  Uiso   1.00
O639   O     0.28578   0.02587   0.78009   0.00000  Uiso   1.00
H640   H     0.30605   0.04106   0.79951   0.00000  Uiso   1.00
I641   I     0.02930   0.23585   0.83589   0.00000  Uiso   1.00
C642   C     0.13601   0.12415   0.59125   0.00000  Uiso   1.00
O643   O     0.14275   0.09395   0.61482   0.00000  Uiso   1.00
O644   O     0.08885   0.13418   0.58958   0.00000  Uiso   1.00
H645   H     0.06379   0.11274   0.60638   0.00000  Uiso   1.00
I646   I     0.05326   0.09066   0.87847   0.00000  Uiso   1.00
C647   C     0.16048   0.24235   0.89814   0.00000  Uiso   1.00
O648   O     0.11721   0.24558   0.90095   0.00000  Uiso   1.00
O649   O     0.19305   0.27120   0.86936   0.00000  Uiso   1.00
H650   H     0.22866   0.26485   0.86532   0.00000  Uiso   1.00
O651   O     0.46042   0.22678   0.75000   0.00000  Uiso   1.00
O652   O     0.53961   0.22679   0.75000   0.00000  Uiso   1.00
C653   C     0.50005   0.24592   0.74965   0.00000  Uiso   1.00
O654   O     0.44108   0.16665   0.82549   0.00000  Uiso   1.00
O655   O     0.52027   0.16666   0.82549   0.00000  Uiso   1.00
C656   C     0.47386   0.16459   0.84971   0.00000  Uiso   1.00
Cu657  Cu    0.45311   0.16666   0.75000   0.00000  Uiso   1.00
Cu658  Cu    0.54689   0.16667   0.75000   0.00000  Uiso   1.00
O659   O     0.46039   0.10654   0.74999   0.00000  Uiso   1.00
O660   O     0.53958   0.10655   0.74999   0.00000  Uiso   1.00
O661   O     0.47973   0.16667   0.67451   0.00000  Uiso   1.00
O662   O     0.55892   0.16668   0.67451   0.00000  Uiso   1.00
C663   C     0.49956   0.08744   0.75221   0.00000  Uiso   1.00
C664   C     0.52613   0.16554   0.64997   0.00000  Uiso   1.00
C665   C     0.58228   0.20974   0.52041   0.00000  Uiso   1.00
H666   H     0.60174   0.20763   0.59068   0.00000  Uiso   1.00
H667   H     0.56530   0.24793   0.94327   0.00000  Uiso   1.00
H668   H     0.60824   0.23398   0.50523   0.00000  Uiso   1.00
C669   C     0.54087   0.16777   0.59294   0.00000  Uiso   1.00
C670   C     0.43292   0.11719   0.91903   0.00000  Uiso   1.00
C671   C     0.44075   0.09352   0.95816   0.00000  Uiso   1.00
C672   C     0.47241   0.10676   0.98509   0.00000  Uiso   1.00
C673   C     0.49147   0.14694   0.97925   0.00000  Uiso   1.00
C674   C     0.48622   0.17066   0.93733   0.00000  Uiso   1.00
C675   C     0.51794   0.16333   0.51216   0.00000  Uiso   1.00
C676   C     0.54968   0.19669   0.99379   0.00000  Uiso   1.00
C677   C     0.54516   0.21950   0.95216   0.00000  Uiso   1.00
C678   C     0.50984   0.20950   0.92767   0.00000  Uiso   1.00
C679   C     0.51140   0.15034   0.56406   0.00000  Uiso   1.00
C680   C     0.57873   0.19452   0.56912   0.00000  Uiso   1.00
C681   C     0.45968   0.15381   0.90478   0.00000  Uiso   1.00
H682   H     0.48201   0.08481   0.51011   0.00000  Uiso   1.00
H683   H     0.42423   0.06349   0.96594   0.00000  Uiso   1.00
C684   C     0.53678   0.31131   0.76483   0.00000  Uiso   1.00
H685   H     0.56537   0.29420   0.77457   0.00000  Uiso   1.00
C686   C     0.53542   0.02059   0.77007   0.00000  Uiso   1.00
C687   C     0.49912   0.04275   0.75508   0.00000  Uiso   1.00
C688   C     0.46276   0.02156   0.73998   0.00000  Uiso   1.00
H689   H     0.43449   0.03784   0.72869   0.00000  Uiso   1.00
C690   C     0.46275   0.31234   0.73848   0.00000  Uiso   1.00
H691   H     0.43417   0.29660   0.72703   0.00000  Uiso   1.00
C692   C     0.50001   0.29049   0.75043   0.00000  Uiso   1.00
C693   C     0.63242   0.19330   0.78127   0.00000  Uiso   1.00
H694   H     0.60606   0.21437   0.80632   0.00000  Uiso   1.00
C695   C     0.34825   0.19338   0.78177   0.00000  Uiso   1.00
N696   N     0.38265   0.16666   0.74998   0.00000  Uiso   1.00
C697   C     0.36695   0.13930   0.71948   0.00000  Uiso   1.00
H698   H     0.39248   0.11697   0.69578   0.00000  Uiso   1.00
C699   C     0.65076   0.13945   0.71923   0.00000  Uiso   1.00
H700   H     0.63920   0.11759   0.69461   0.00000  Uiso   1.00
N701   N     0.61735   0.16669   0.74999   0.00000  Uiso   1.00
C702   C     0.57049   0.03991   0.79419   0.00000  Uiso   1.00
O703   O     0.55650   0.06678   0.82792   0.00000  Uiso   1.00
O704   O     0.61911   0.02587   0.78009   0.00000  Uiso   1.00
H705   H     0.63938   0.04106   0.79951   0.00000  Uiso   1.00
I706   I     0.36263   0.23585   0.83589   0.00000  Uiso   1.00
C707   C     0.46935   0.12415   0.59125   0.00000  Uiso   1.00
O708   O     0.47608   0.09395   0.61482   0.00000  Uiso   1.00
O709   O     0.42218   0.13418   0.58958   0.00000  Uiso   1.00
H710   H     0.39712   0.11274   0.60638   0.00000  Uiso   1.00
I711   I     0.38659   0.09066   0.87847   0.00000  Uiso   1.00
C712   C     0.49381   0.24235   0.89814   0.00000  Uiso   1.00
O713   O     0.45054   0.24558   0.90095   0.00000  Uiso   1.00
O714   O     0.52639   0.27120   0.86936   0.00000  Uiso   1.00
H715   H     0.56200   0.26485   0.86532   0.00000  Uiso   1.00
O716   O     0.79375   0.22678   0.75000   0.00000  Uiso   1.00
O717   O     0.87294   0.22679   0.75000   0.00000  Uiso   1.00
C718   C     0.83338   0.24592   0.74965   0.00000  Uiso   1.00
O719   O     0.77441   0.16665   0.82549   0.00000  Uiso   1.00
O720   O     0.85360   0.16666   0.82549   0.00000  Uiso   1.00
C721   C     0.80720   0.16459   0.84971   0.00000  Uiso   1.00
Cu722  Cu    0.78645   0.16666   0.75000   0.00000  Uiso   1.00
Cu723  Cu    0.88022   0.16667   0.75000   0.00000  Uiso   1.00
O724   O     0.79373   0.10654   0.74999   0.00000  Uiso   1.00
O725   O     0.87292   0.10655   0.74999   0.00000  Uiso   1.00
O726   O     0.81306   0.16667   0.67451   0.00000  Uiso   1.00
O727   O     0.89225   0.16668   0.67451   0.00000  Uiso   1.00
C728   C     0.83289   0.08744   0.75221   0.00000  Uiso   1.00
C729   C     0.85946   0.16554   0.64997   0.00000  Uiso   1.00
C730   C     0.91562   0.20974   0.52041   0.00000  Uiso   1.00
H731   H     0.93508   0.20763   0.59068   0.00000  Uiso   1.00
H732   H     0.89864   0.24793   0.94327   0.00000  Uiso   1.00
H733   H     0.94157   0.23398   0.50523   0.00000  Uiso   1.00
C734   C     0.87420   0.16777   0.59294   0.00000  Uiso   1.00
C735   C     0.76625   0.11719   0.91903   0.00000  Uiso   1.00
C736   C     0.77408   0.09352   0.95816   0.00000  Uiso   1.00
C737   C     0.80574   0.10676   0.98509   0.00000  Uiso   1.00
C738   C     0.82480   0.14694   0.97925   0.00000  Uiso   1.00
C739   C     0.81955   0.17066   0.93733   0.00000  Uiso   1.00
C740   C     0.85127   0.16333   0.51216   0.00000  Uiso   1.00
C741   C     0.88301   0.19669   0.99379   0.00000  Uiso   1.00
C742   C     0.87849   0.21950   0.95216   0.00000  Uiso   1.00
C743   C     0.84317   0.20950   0.92767   0.00000  Uiso   1.00
C744   C     0.84473   0.15034   0.56406   0.00000  Uiso   1.00
C745   C     0.91207   0.19452   0.56912   0.00000  Uiso   1.00
C746   C     0.79301   0.15381   0.90478   0.00000  Uiso   1.00
H747   H     0.81534   0.08481   0.51011   0.00000  Uiso   1.00
H748   H     0.75756   0.06349   0.96594   0.00000  Uiso   1.00
C749   C     0.87011   0.31131   0.76483   0.00000  Uiso   1.00
H750   H     0.89870   0.29420   0.77457   0.00000  Uiso   1.00
C751   C     0.86875   0.02059   0.77007   0.00000  Uiso   1.00
C752   C     0.83245   0.04275   0.75508   0.00000  Uiso   1.00
C753   C     0.79609   0.02156   0.73998   0.00000  Uiso   1.00
H754   H     0.76782   0.03784   0.72869   0.00000  Uiso   1.00
C755   C     0.79608   0.31234   0.73848   0.00000  Uiso   1.00
H756   H     0.76751   0.29660   0.72703   0.00000  Uiso   1.00
C757   C     0.83334   0.29049   0.75043   0.00000  Uiso   1.00
C758   C     0.96575   0.19330   0.78127   0.00000  Uiso   1.00
H759   H     0.93940   0.21437   0.80632   0.00000  Uiso   1.00
C760   C     0.68158   0.19338   0.78177   0.00000  Uiso   1.00
N761   N     0.71598   0.16666   0.74998   0.00000  Uiso   1.00
C762   C     0.70028   0.13930   0.71948   0.00000  Uiso   1.00
H763   H     0.72581   0.11697   0.69578   0.00000  Uiso   1.00
C764   C     0.98409   0.13945   0.71923   0.00000  Uiso   1.00
H765   H     0.97253   0.11759   0.69461   0.00000  Uiso   1.00
N766   N     0.95069   0.16669   0.74999   0.00000  Uiso   1.00
C767   C     0.90383   0.03991   0.79419   0.00000  Uiso   1.00
O768   O     0.88983   0.06678   0.82792   0.00000  Uiso   1.00
O769   O     0.95244   0.02587   0.78009   0.00000  Uiso   1.00
H770   H     0.97272   0.04106   0.79951   0.00000  Uiso   1.00
I771   I     0.69597   0.23585   0.83589   0.00000  Uiso   1.00
C772   C     0.80268   0.12415   0.59125   0.00000  Uiso   1.00
O773   O     0.80941   0.09395   0.61482   0.00000  Uiso   1.00
O774   O     0.75552   0.13418   0.58958   0.00000  Uiso   1.00
H775   H     0.73046   0.11274   0.60638   0.00000  Uiso   1.00
I776   I     0.71992   0.09066   0.87847   0.00000  Uiso   1.00
C777   C     0.82714   0.24235   0.89814   0.00000  Uiso   1.00
O778   O     0.78388   0.24558   0.90095   0.00000  Uiso   1.00
O779   O     0.85972   0.27120   0.86936   0.00000  Uiso   1.00
H780   H     0.89533   0.26485   0.86532   0.00000  Uiso   1.00
O781   O     0.12708   0.56011   0.75000   0.00000  Uiso   1.00
O782   O     0.20627   0.56012   0.75000   0.00000  Uiso   1.00
C783   C     0.16672   0.57925   0.74965   0.00000  Uiso   1.00
O784   O     0.10775   0.49998   0.82549   0.00000  Uiso   1.00
O785   O     0.18694   0.49999   0.82549   0.00000  Uiso   1.00
C786   C     0.14053   0.49793   0.84971   0.00000  Uiso   1.00
Cu787  Cu    0.11978   0.49999   0.75000   0.00000  Uiso   1.00
Cu788  Cu    0.21355   0.50001   0.75000   0.00000  Uiso   1.00
O789   O     0.12706   0.43988   0.74999   0.00000  Uiso   1.00
O790   O     0.20625   0.43989   0.74999   0.00000  Uiso   1.00
O791   O     0.14640   0.50001   0.67451   0.00000  Uiso   1.00
O792   O     0.22559   0.50002   0.67451   0.00000  Uiso   1.00
C793   C     0.16623   0.42077   0.75221   0.00000  Uiso   1.00
C794   C     0.19280   0.49888   0.64997   0.00000  Uiso   1.00
C795   C     0.24895   0.54308   0.52041   0.00000  Uiso   1.00
H796   H     0.26841   0.54096   0.59068   0.00000  Uiso   1.00
H797   H     0.23197   0.58126   0.94327   0.00000  Uiso   1.00
H798   H     0.27491   0.56732   0.50523   0.00000  Uiso   1.00
C799   C     0.20754   0.50110   0.59294   0.00000  Uiso   1.00
C800   C     0.09958   0.45052   0.91903   0.00000  Uiso   1.00
C801   C     0.10742   0.42685   0.95816   0.00000  Uiso   1.00
C802   C     0.13908   0.44009   0.98509   0.00000  Uiso   1.00
C803   C     0.15814   0.48028   0.97925   0.00000  Uiso   1.00
C804   C     0.15289   0.50399   0.93733   0.00000  Uiso   1.00
C805   C     0.18461   0.49667   0.51216   0.00000  Uiso   1.00
C806   C     0.21635   0.53002   0.99379   0.00000  Uiso   1.00
C807   C     0.21182   0.55283   0.95216   0.00000  Uiso   1.00
C808   C     0.17650   0.54284   0.92767   0.00000  Uiso   1.00
C809   C     0.17806   0.48367   0.56406   0.00000  Uiso   1.00
C810   C     0.24540   0.52785   0.56912   0.00000  Uiso   1.00
C811   C     0.12634   0.48714   0.90478   0.00000  Uiso   1.00
H812   H     0.14867   0.41814   0.51011   0.00000  Uiso   1.00
H813   H     0.09090   0.39682   0.96594   0.00000  Uiso   1.00
C814   C     0.20345   0.64464   0.76483   0.00000  Uiso   1.00
H815   H     0.23203   0.62753   0.77457   0.00000  Uiso   1.00
C816   C     0.20208   0.35393   0.77007   0.00000  Uiso   1.00
C817   C     0.16579   0.37609   0.75508   0.00000  Uiso   1.00
C818   C     0.12943   0.35489   0.73998   0.00000  Uiso   1.00
H819   H     0.10115   0.37118   0.72869   0.00000  Uiso   1.00
C820   C     0.12942   0.64568   0.73848   0.00000  Uiso   1.00
H821   H     0.10084   0.62994   0.72703   0.00000  Uiso   1.00
C822   C     0.16668   0.62382   0.75043   0.00000  Uiso   1.00
C823   C     0.29908   0.52663   0.78127   0.00000  Uiso   1.00
H824   H     0.27273   0.54771   0.80632   0.00000  Uiso   1.00
C825   C     0.01492   0.52671   0.78177   0.00000  Uiso   1.00
N826   N     0.04931   0.49999   0.74998   0.00000  Uiso   1.00
C827   C     0.03361   0.47264   0.71948   0.00000  Uiso   1.00
H828   H     0.05915   0.45031   0.69578   0.00000  Uiso   1.00
C829   C     0.31743   0.47279   0.71923   0.00000  Uiso   1.00
H830   H     0.30587   0.45093   0.69461   0.00000  Uiso   1.00
N831   N     0.28402   0.50002   0.74999   0.00000  Uiso   1.00
C832   C     0.23716   0.37325   0.79419   0.00000  Uiso   1.00
O833   O     0.22316   0.40011   0.82792   0.00000  Uiso   1.00
O834   O     0.28578   0.35920   0.78009   0.00000  Uiso   1.00
H835   H     0.30605   0.37439   0.79951   0.00000  Uiso   1.00
I836   I     0.02930   0.56918   0.83589   0.00000  Uiso   1.00
C837   C     0.13601   0.45749   0.59125   0.00000  Uiso   1.00
O838   O     0.14275   0.42729   0.61482   0.00000  Uiso   1.00
O839   O     0.08885   0.46752   0.58958   0.00000  Uiso   1.00
H840   H     0.06379   0.44607   0.60638   0.00000  Uiso   1.00
I841   I     0.05326   0.42399   0.87847   0.00000  Uiso   1.00
C842   C     0.16048   0.57568   0.89814   0.00000  Uiso   1.00
O843   O     0.11721   0.57892   0.90095   0.00000  Uiso   1.00
O844   O     0.19305   0.60453   0.86936   0.00000  Uiso   1.00
H845   H     0.22866   0.59819   0.86532   0.00000  Uiso   1.00
O846   O     0.46042   0.56011   0.75000   0.00000  Uiso   1.00
O847   O     0.53961   0.56012   0.75000   0.00000  Uiso   1.00
C848   C     0.50005   0.57925   0.74965   0.00000  Uiso   1.00
O849   O     0.44108   0.49998   0.82549   0.00000  Uiso   1.00
O850   O     0.52027   0.49999   0.82549   0.00000  Uiso   1.00
C851   C     0.47386   0.49793   0.84971   0.00000  Uiso   1.00
Cu852  Cu    0.45311   0.49999   0.75000   0.00000  Uiso   1.00
Cu853  Cu    0.54689   0.50001   0.75000   0.00000  Uiso   1.00
O854   O     0.46039   0.43988   0.74999   0.00000  Uiso   1.00
O855   O     0.53958   0.43989   0.74999   0.00000  Uiso   1.00
O856   O     0.47973   0.50001   0.67451   0.00000  Uiso   1.00
O857   O     0.55892   0.50002   0.67451   0.00000  Uiso   1.00
C858   C     0.49956   0.42077   0.75221   0.00000  Uiso   1.00
C859   C     0.52613   0.49888   0.64997   0.00000  Uiso   1.00
C860   C     0.58228   0.54308   0.52041   0.00000  Uiso   1.00
H861   H     0.60174   0.54096   0.59068   0.00000  Uiso   1.00
H862   H     0.56530   0.58126   0.94327   0.00000  Uiso   1.00
H863   H     0.60824   0.56732   0.50523   0.00000  Uiso   1.00
C864   C     0.54087   0.50110   0.59294   0.00000  Uiso   1.00
C865   C     0.43292   0.45052   0.91903   0.00000  Uiso   1.00
C866   C     0.44075   0.42685   0.95816   0.00000  Uiso   1.00
C867   C     0.47241   0.44009   0.98509   0.00000  Uiso   1.00
C868   C     0.49147   0.48028   0.97925   0.00000  Uiso   1.00
C869   C     0.48622   0.50399   0.93733   0.00000  Uiso   1.00
C870   C     0.51794   0.49667   0.51216   0.00000  Uiso   1.00
C871   C     0.54968   0.53002   0.99379   0.00000  Uiso   1.00
C872   C     0.54516   0.55283   0.95216   0.00000  Uiso   1.00
C873   C     0.50984   0.54284   0.92767   0.00000  Uiso   1.00
C874   C     0.51140   0.48367   0.56406   0.00000  Uiso   1.00
C875   C     0.57873   0.52785   0.56912   0.00000  Uiso   1.00
C876   C     0.45968   0.48714   0.90478   0.00000  Uiso   1.00
H877   H     0.48201   0.41814   0.51011   0.00000  Uiso   1.00
H878   H     0.42423   0.39682   0.96594   0.00000  Uiso   1.00
C879   C     0.53678   0.64464   0.76483   0.00000  Uiso   1.00
H880   H     0.56537   0.62753   0.77457   0.00000  Uiso   1.00
C881   C     0.53542   0.35393   0.77007   0.00000  Uiso   1.00
C882   C     0.49912   0.37609   0.75508   0.00000  Uiso   1.00
C883   C     0.46276   0.35489   0.73998   0.00000  Uiso   1.00
H884   H     0.43449   0.37118   0.72869   0.00000  Uiso   1.00
C885   C     0.46275   0.64568   0.73848   0.00000  Uiso   1.00
H886   H     0.43417   0.62994   0.72703   0.00000  Uiso   1.00
C887   C     0.50001   0.62382   0.75043   0.00000  Uiso   1.00
C888   C     0.63242   0.52663   0.78127   0.00000  Uiso   1.00
H889   H     0.60606   0.54771   0.80632   0.00000  Uiso   1.00
C890   C     0.34825   0.52671   0.78177   0.00000  Uiso   1.00
N891   N     0.38265   0.49999   0.74998   0.00000  Uiso   1.00
C892   C     0.36695   0.47264   0.71948   0.00000  Uiso   1.00
H893   H     0.39248   0.45031   0.69578   0.00000  Uiso   1.00
C894   C     0.65076   0.47279   0.71923   0.00000  Uiso   1.00
H895   H     0.63920   0.45093   0.69461   0.00000  Uiso   1.00
N896   N     0.61735   0.50002   0.74999   0.00000  Uiso   1.00
C897   C     0.57049   0.37325   0.79419   0.00000  Uiso   1.00
O898   O     0.55650   0.40011   0.82792   0.00000  Uiso   1.00
O899   O     0.61911   0.35920   0.78009   0.00000  Uiso   1.00
H900   H     0.63938   0.37439   0.79951   0.00000  Uiso   1.00
I901   I     0.36263   0.56918   0.83589   0.00000  Uiso   1.00
C902   C     0.46935   0.45749   0.59125   0.00000  Uiso   1.00
O903   O     0.47608   0.42729   0.61482   0.00000  Uiso   1.00
O904   O     0.42218   0.46752   0.58958   0.00000  Uiso   1.00
H905   H     0.39712   0.44607   0.60638   0.00000  Uiso   1.00
I906   I     0.38659   0.42399   0.87847   0.00000  Uiso   1.00
C907   C     0.49381   0.57568   0.89814   0.00000  Uiso   1.00
O908   O     0.45054   0.57892   0.90095   0.00000  Uiso   1.00
O909   O     0.52639   0.60453   0.86936   0.00000  Uiso   1.00
H910   H     0.56200   0.59819   0.86532   0.00000  Uiso   1.00
O911   O     0.79375   0.56011   0.75000   0.00000  Uiso   1.00
O912   O     0.87294   0.56012   0.75000   0.00000  Uiso   1.00
C913   C     0.83338   0.57925   0.74965   0.00000  Uiso   1.00
O914   O     0.77441   0.49998   0.82549   0.00000  Uiso   1.00
O915   O     0.85360   0.49999   0.82549   0.00000  Uiso   1.00
C916   C     0.80720   0.49793   0.84971   0.00000  Uiso   1.00
Cu917  Cu    0.78645   0.49999   0.75000   0.00000  Uiso   1.00
Cu918  Cu    0.88022   0.50001   0.75000   0.00000  Uiso   1.00
O919   O     0.79373   0.43988   0.74999   0.00000  Uiso   1.00
O920   O     0.87292   0.43989   0.74999   0.00000  Uiso   1.00
O921   O     0.81306   0.50001   0.67451   0.00000  Uiso   1.00
O922   O     0.89225   0.50002   0.67451   0.00000  Uiso   1.00
C923   C     0.83289   0.42077   0.75221   0.00000  Uiso   1.00
C924   C     0.85946   0.49888   0.64997   0.00000  Uiso   1.00
C925   C     0.91562   0.54308   0.52041   0.00000  Uiso   1.00
H926   H     0.93508   0.54096   0.59068   0.00000  Uiso   1.00
H927   H     0.89864   0.58126   0.94327   0.00000  Uiso   1.00
H928   H     0.94157   0.56732   0.50523   0.00000  Uiso   1.00
C929   C     0.87420   0.50110   0.59294   0.00000  Uiso   1.00
C930   C     0.76625   0.45052   0.91903   0.00000  Uiso   1.00
C931   C     0.77408   0.42685   0.95816   0.00000  Uiso   1.00
C932   C     0.80574   0.44009   0.98509   0.00000  Uiso   1.00
C933   C     0.82480   0.48028   0.97925   0.00000  Uiso   1.00
C934   C     0.81955   0.50399   0.93733   0.00000  Uiso   1.00
C935   C     0.85127   0.49667   0.51216   0.00000  Uiso   1.00
C936   C     0.88301   0.53002   0.99379   0.00000  Uiso   1.00
C937   C     0.87849   0.55283   0.95216   0.00000  Uiso   1.00
C938   C     0.84317   0.54284   0.92767   0.00000  Uiso   1.00
C939   C     0.84473   0.48367   0.56406   0.00000  Uiso   1.00
C940   C     0.91207   0.52785   0.56912   0.00000  Uiso   1.00
C941   C     0.79301   0.48714   0.90478   0.00000  Uiso   1.00
H942   H     0.81534   0.41814   0.51011   0.00000  Uiso   1.00
H943   H     0.75756   0.39682   0.96594   0.00000  Uiso   1.00
C944   C     0.87011   0.64464   0.76483   0.00000  Uiso   1.00
H945   H     0.89870   0.62753   0.77457   0.00000  Uiso   1.00
C946   C     0.86875   0.35393   0.77007   0.00000  Uiso   1.00
C947   C     0.83245   0.37609   0.75508   0.00000  Uiso   1.00
C948   C     0.79609   0.35489   0.73998   0.00000  Uiso   1.00
H949   H     0.76782   0.37118   0.72869   0.00000  Uiso   1.00
C950   C     0.79608   0.64568   0.73848   0.00000  Uiso   1.00
H951   H     0.76751   0.62994   0.72703   0.00000  Uiso   1.00
C952   C     0.83334   0.62382   0.75043   0.00000  Uiso   1.00
C953   C     0.96575   0.52663   0.78127   0.00000  Uiso   1.00
H954   H     0.93940   0.54771   0.80632   0.00000  Uiso   1.00
C955   C     0.68158   0.52671   0.78177   0.00000  Uiso   1.00
N956   N     0.71598   0.49999   0.74998   0.00000  Uiso   1.00
C957   C     0.70028   0.47264   0.71948   0.00000  Uiso   1.00
H958   H     0.72581   0.45031   0.69578   0.00000  Uiso   1.00
C959   C     0.98409   0.47279   0.71923   0.00000  Uiso   1.00
H960   H     0.97253   0.45093   0.69461   0.00000  Uiso   1.00
N961   N     0.95069   0.50002   0.74999   0.00000  Uiso   1.00
C962   C     0.90383   0.37325   0.79419   0.00000  Uiso   1.00
O963   O     0.88983   0.40011   0.82792   0.00000  Uiso   1.00
O964   O     0.95244   0.35920   0.78009   0.00000  Uiso   1.00
H965   H     0.97272   0.37439   0.79951   0.00000  Uiso   1.00
I966   I     0.69597   0.56918   0.83589   0.00000  Uiso   1.00
C967   C     0.80268   0.45749   0.59125   0.00000  Uiso   1.00
O968   O     0.80941   0.42729   0.61482   0.00000  Uiso   1.00
O969   O     0.75552   0.46752   0.58958   0.00000  Uiso   1.00
H970   H     0.73046   0.44607   0.60638   0.00000  Uiso   1.00
I971   I     0.71992   0.42399   0.87847   0.00000  Uiso   1.00
C972   C     0.82714   0.57568   0.89814   0.00000  Uiso   1.00
O973   O     0.78388   0.57892   0.90095   0.00000  Uiso   1.00
O974   O     0.85972   0.60453   0.86936   0.00000  Uiso   1.00
H975   H     0.89533   0.59819   0.86532   0.00000  Uiso   1.00
O976   O     0.12708   0.89345   0.75000   0.00000  Uiso   1.00
O977   O     0.20627   0.89346   0.75000   0.00000  Uiso   1.00
C978   C     0.16672   0.91259   0.74965   0.00000  Uiso   1.00
O979   O     0.10775   0.83332   0.82549   0.00000  Uiso   1.00
O980   O     0.18694   0.83333   0.82549   0.00000  Uiso   1.00
C981   C     0.14053   0.83126   0.84971   0.00000  Uiso   1.00
Cu982  Cu    0.11978   0.83333   0.75000   0.00000  Uiso   1.00
Cu983  Cu    0.21355   0.83334   0.75000   0.00000  Uiso   1.00
O984   O     0.12706   0.77321   0.74999   0.00000  Uiso   1.00
O985   O     0.20625   0.77322   0.74999   0.00000  Uiso   1.00
O986   O     0.14640   0.83334   0.67451   0.00000  Uiso   1.00
O987   O     0.22559   0.83335   0.67451   0.00000  Uiso   1.00
C988   C     0.16623   0.75410   0.75221   0.00000  Uiso   1.00
C989   C     0.19280   0.83221   0.64997   0.00000  Uiso   1.00
C990   C     0.24895   0.87641   0.52041   0.00000  Uiso   1.00
H991   H     0.26841   0.87430   0.59068   0.00000  Uiso   1.00
H992   H     0.23197   0.91459   0.94327   0.00000  Uiso   1.00
H993   H     0.27491   0.90065   0.50523   0.00000  Uiso   1.00
C994   C     0.20754   0.83443   0.59294   0.00000  Uiso   1.00
C995   C     0.09958   0.78386   0.91903   0.00000  Uiso   1.00
C996   C     0.10742   0.76018   0.95816   0.00000  Uiso   1.00
C997   C     0.13908   0.77342   0.98509   0.00000  Uiso   1.00
C998   C     0.15814   0.81361   0.97925   0.00000  Uiso   1.00
C999   C     0.15289   0.83733   0.93733   0.00000  Uiso   1.00
C1000  C     0.18461   0.83000   0.51216   0.00000  Uiso   1.00
C1001  C     0.21635   0.86335   0.99379   0.00000  Uiso   1.00
C1002  C     0.21182   0.88617   0.95216   0.00000  Uiso   1.00
C1003  C     0.17650   0.87617   0.92767   0.00000  Uiso   1.00
C1004  C     0.17806   0.81701   0.56406   0.00000  Uiso   1.00
C1005  C     0.24540   0.86118   0.56912   0.00000  Uiso   1.00
C1006  C     0.12634   0.82048   0.90478   0.00000  Uiso   1.00
H1007  H     0.14867   0.75147   0.51011   0.00000  Uiso   1.00
H1008  H     0.09090   0.73015   0.96594   0.00000  Uiso   1.00
C1009  C     0.20345   0.97797   0.76483   0.00000  Uiso   1.00
H1010  H     0.23203   0.96087   0.77457   0.00000  Uiso   1.00
C1011  C     0.20208   0.68726   0.77007   0.00000  Uiso   1.00
C1012  C     0.16579   0.70942   0.75508   0.00000  Uiso   1.00
C1013  C     0.12943   0.68822   0.73998   0.00000  Uiso   1.00
H1014  H     0.10115   0.70451   0.72869   0.00000  Uiso   1.00
C1015  C     0.12942   0.97901   0.73848   0.00000  Uiso   1.00
H1016  H     0.10084   0.96327   0.72703   0.00000  Uiso   1.00
C1017  C     0.16668   0.95716   0.75043   0.00000  Uiso   1.00
C1018  C     0.29908   0.85997   0.78127   0.00000  Uiso   1.00
H1019  H     0.27273   0.88104   0.80632   0.00000  Uiso   1.00
C1020  C     0.01492   0.86004   0.78177   0.00000  Uiso   1.00
N1021  N     0.04931   0.83332   0.74998   0.00000  Uiso   1.00
C1022  C     0.03361   0.80597   0.71948   0.00000  Uiso   1.00
H1023  H     0.05915   0.78364   0.69578   0.00000  Uiso   1.00
C1024  C     0.31743   0.80612   0.71923   0.00000  Uiso   1.00
H1025  H     0.30587   0.78426   0.69461   0.00000  Uiso   1.00
N1026  N     0.28402   0.83335   0.74999   0.00000  Uiso   1.00
C1027  C     0.23716   0.70658   0.79419   0.00000  Uiso   1.00
O1028  O     0.22316   0.73344   0.82792   0.00000  Uiso   1.00
O1029  O     0.28578   0.69253   0.78009   0.00000  Uiso   1.00
H1030  H     0.30605   0.70773   0.79951   0.00000  Uiso   1.00
I1031  I     0.02930   0.90252   0.83589   0.00000  Uiso   1.00
C1032  C     0.13601   0.79082   0.59125   0.00000  Uiso   1.00
O1033  O     0.14275   0.76062   0.61482   0.00000  Uiso   1.00
O1034  O     0.08885   0.80085   0.58958   0.00000  Uiso   1.00
H1035  H     0.06379   0.77941   0.60638   0.00000  Uiso   1.00
I1036  I     0.05326   0.75733   0.87847   0.00000  Uiso   1.00
C1037  C     0.16048   0.90901   0.89814   0.00000  Uiso   1.00
O1038  O     0.11721   0.91225   0.90095   0.00000  Uiso   1.00
O1039  O     0.19305   0.93786   0.86936   0.00000  Uiso   1.00
H1040  H     0.22866   0.93152   0.86532   0.00000  Uiso   1.00
O1041  O     0.46042   0.89345   0.75000   0.00000  Uiso   1.00
O1042  O     0.53961   0.89346   0.75000   0.00000  Uiso   1.00
C1043  C     0.50005   0.91259   0.74965   0.00000  Uiso   1.00
O1044  O     0.44108   0.83332   0.82549   0.00000  Uiso   1.00
O1045  O     0.52027   0.83333   0.82549   0.00000  Uiso   1.00
C1046  C     0.47386   0.83126   0.84971   0.00000  Uiso   1.00
Cu1047 Cu    0.45311   0.83333   0.75000   0.00000  Uiso   1.00
Cu1048 Cu    0.54689   0.83334   0.75000   0.00000  Uiso   1.00
O1049  O     0.46039   0.77321   0.74999   0.00000  Uiso   1.00
O1050  O     0.53958   0.77322   0.74999   0.00000  Uiso   1.00
O1051  O     0.47973   0.83334   0.67451   0.00000  Uiso   1.00
O1052  O     0.55892   0.83335   0.67451   0.00000  Uiso   1.00
C1053  C     0.49956   0.75410   0.75221   0.00000  Uiso   1.00
C1054  C     0.52613   0.83221   0.64997   0.00000  Uiso   1.00
C1055  C     0.58228   0.87641   0.52041   0.00000  Uiso   1.00
H1056  H     0.60174   0.87430   0.59068   0.00000  Uiso   1.00
H1057  H     0.56530   0.91459   0.94327   0.00000  Uiso   1.00
H1058  H     0.60824   0.90065   0.50523   0.00000  Uiso   1.00
C1059  C     0.54087   0.83443   0.59294   0.00000  Uiso   1.00
C1060  C     0.43292   0.78386   0.91903   0.00000  Uiso   1.00
C1061  C     0.44075   0.76018   0.95816   0.00000  Uiso   1.00
C1062  C     0.47241   0.77342   0.98509   0.00000  Uiso   1.00
C1063  C     0.49147   0.81361   0.97925   0.00000  Uiso   1.00
C1064  C     0.48622   0.83733   0.93733   0.00000  Uiso   1.00
C1065  C     0.51794   0.83000   0.51216   0.00000  Uiso   1.00
C1066  C     0.54968   0.86335   0.99379   0.00000  Uiso   1.00
C1067  C     0.54516   0.88617   0.95216   0.00000  Uiso   1.00
C1068  C     0.50984   0.87617   0.92767   0.00000  Uiso   1.00
C1069  C     0.51140   0.81701   0.56406   0.00000  Uiso   1.00
C1070  C     0.57873   0.86118   0.56912   0.00000  Uiso   1.00
C1071  C     0.45968   0.82048   0.90478   0.00000  Uiso   1.00
H1072  H     0.48201   0.75147   0.51011   0.00000  Uiso   1.00
H1073  H     0.42423   0.73015   0.96594   0.00000  Uiso   1.00
C1074  C     0.53678   0.97797   0.76483   0.00000  Uiso   1.00
H1075  H     0.56537   0.96087   0.77457   0.00000  Uiso   1.00
C1076  C     0.53542   0.68726   0.77007   0.00000  Uiso   1.00
C1077  C     0.49912   0.70942   0.75508   0.00000  Uiso   1.00
C1078  C     0.46276   0.68822   0.73998   0.00000  Uiso   1.00
H1079  H     0.43449   0.70451   0.72869   0.00000  Uiso   1.00
C1080  C     0.46275   0.97901   0.73848   0.00000  Uiso   1.00
H1081  H     0.43417   0.96327   0.72703   0.00000  Uiso   1.00
C1082  C     0.50001   0.95716   0.75043   0.00000  Uiso   1.00
C1083  C     0.63242   0.85997   0.78127   0.00000  Uiso   1.00
H1084  H     0.60606   0.88104   0.80632   0.00000  Uiso   1.00
C1085  C     0.34825   0.86004   0.78177   0.00000  Uiso   1.00
N1086  N     0.38265   0.83332   0.74998   0.00000  Uiso   1.00
C1087  C     0.36695   0.80597   0.71948   0.00000  Uiso   1.00
H1088  H     0.39248   0.78364   0.69578   0.00000  Uiso   1.00
C1089  C     0.65076   0.80612   0.71923   0.00000  Uiso   1.00
H1090  H     0.63920   0.78426   0.69461   0.00000  Uiso   1.00
N1091  N     0.61735   0.83335   0.74999   0.00000  Uiso   1.00
C1092  C     0.57049   0.70658   0.79419   0.00000  Uiso   1.00
O1093  O     0.55650   0.73344   0.82792   0.00000  Uiso   1.00
O1094  O     0.61911   0.69253   0.78009   0.00000  Uiso   1.00
H1095  H     0.63938   0.70773   0.79951   0.00000  Uiso   1.00
I1096  I     0.36263   0.90252   0.83589   0.00000  Uiso   1.00
C1097  C     0.46935   0.79082   0.59125   0.00000  Uiso   1.00
O1098  O     0.47608   0.76062   0.61482   0.00000  Uiso   1.00
O1099  O     0.42218   0.80085   0.58958   0.00000  Uiso   1.00
H1100  H     0.39712   0.77941   0.60638   0.00000  Uiso   1.00
I1101  I     0.38659   0.75733   0.87847   0.00000  Uiso   1.00
C1102  C     0.49381   0.90901   0.89814   0.00000  Uiso   1.00
O1103  O     0.45054   0.91225   0.90095   0.00000  Uiso   1.00
O1104  O     0.52639   0.93786   0.86936   0.00000  Uiso   1.00
H1105  H     0.56200   0.93152   0.86532   0.00000  Uiso   1.00
O1106  O     0.79375   0.89345   0.75000   0.00000  Uiso   1.00
O1107  O     0.87294   0.89346   0.75000   0.00000  Uiso   1.00
C1108  C     0.83338   0.91259   0.74965   0.00000  Uiso   1.00
O1109  O     0.77441   0.83332   0.82549   0.00000  Uiso   1.00
O1110  O     0.85360   0.83333   0.82549   0.00000  Uiso   1.00
C1111  C     0.80720   0.83126   0.84971   0.00000  Uiso   1.00
Cu1112 Cu    0.78645   0.83333   0.75000   0.00000  Uiso   1.00
Cu1113 Cu    0.88022   0.83334   0.75000   0.00000  Uiso   1.00
O1114  O     0.79373   0.77321   0.74999   0.00000  Uiso   1.00
O1115  O     0.87292   0.77322   0.74999   0.00000  Uiso   1.00
O1116  O     0.81306   0.83334   0.67451   0.00000  Uiso   1.00
O1117  O     0.89225   0.83335   0.67451   0.00000  Uiso   1.00
C1118  C     0.83289   0.75410   0.75221   0.00000  Uiso   1.00
C1119  C     0.85946   0.83221   0.64997   0.00000  Uiso   1.00
C1120  C     0.91562   0.87641   0.52041   0.00000  Uiso   1.00
H1121  H     0.93508   0.87430   0.59068   0.00000  Uiso   1.00
H1122  H     0.89864   0.91459   0.94327   0.00000  Uiso   1.00
H1123  H     0.94157   0.90065   0.50523   0.00000  Uiso   1.00
C1124  C     0.87420   0.83443   0.59294   0.00000  Uiso   1.00
C1125  C     0.76625   0.78386   0.91903   0.00000  Uiso   1.00
C1126  C     0.77408   0.76018   0.95816   0.00000  Uiso   1.00
C1127  C     0.80574   0.77342   0.98509   0.00000  Uiso   1.00
C1128  C     0.82480   0.81361   0.97925   0.00000  Uiso   1.00
C1129  C     0.81955   0.83733   0.93733   0.00000  Uiso   1.00
C1130  C     0.85127   0.83000   0.51216   0.00000  Uiso   1.00
C1131  C     0.88301   0.86335   0.99379   0.00000  Uiso   1.00
C1132  C     0.87849   0.88617   0.95216   0.00000  Uiso   1.00
C1133  C     0.84317   0.87617   0.92767   0.00000  Uiso   1.00
C1134  C     0.84473   0.81701   0.56406   0.00000  Uiso   1.00
C1135  C     0.91207   0.86118   0.56912   0.00000  Uiso   1.00
C1136  C     0.79301   0.82048   0.90478   0.00000  Uiso   1.00
H1137  H     0.81534   0.75147   0.51011   0.00000  Uiso   1.00
H1138  H     0.75756   0.73015   0.96594   0.00000  Uiso   1.00
C1139  C     0.87011   0.97797   0.76483   0.00000  Uiso   1.00
H1140  H     0.89870   0.96087   0.77457   0.00000  Uiso   1.00
C1141  C     0.86875   0.68726   0.77007   0.00000  Uiso   1.00
C1142  C     0.83245   0.70942   0.75508   0.00000  Uiso   1.00
C1143  C     0.79609   0.68822   0.73998   0.00000  Uiso   1.00
H1144  H     0.76782   0.70451   0.72869   0.00000  Uiso   1.00
C1145  C     0.79608   0.97901   0.73848   0.00000  Uiso   1.00
H1146  H     0.76751   0.96327   0.72703   0.00000  Uiso   1.00
C1147  C     0.83334   0.95716   0.75043   0.00000  Uiso   1.00
C1148  C     0.96575   0.85997   0.78127   0.00000  Uiso   1.00
H1149  H     0.93940   0.88104   0.80632   0.00000  Uiso   1.00
C1150  C     0.68158   0.86004   0.78177   0.00000  Uiso   1.00
N1151  N     0.71598   0.83332   0.74998   0.00000  Uiso   1.00
C1152  C     0.70028   0.80597   0.71948   0.00000  Uiso   1.00
H1153  H     0.72581   0.78364   0.69578   0.00000  Uiso   1.00
C1154  C     0.98409   0.80612   0.71923   0.00000  Uiso   1.00
H1155  H     0.97253   0.78426   0.69461   0.00000  Uiso   1.00
N1156  N     0.95069   0.83335   0.74999   0.00000  Uiso   1.00
C1157  C     0.90383   0.70658   0.79419   0.00000  Uiso   1.00
O1158  O     0.88983   0.73344   0.82792   0.00000  Uiso   1.00
O1159  O     0.95244   0.69253   0.78009   0.00000  Uiso   1.00
H1160  H     0.97272   0.70773   0.79951   0.00000  Uiso   1.00
I1161  I     0.69597   0.90252   0.83589   0.00000  Uiso   1.00
C1162  C     0.80268   0.79082   0.59125   0.00000  Uiso   1.00
O1163  O     0.80941   0.76062   0.61482   0.00000  Uiso   1.00
O1164  O     0.75552   0.80085   0.58958   0.00000  Uiso   1.00
H1165  H     0.73046   0.77941   0.60638   0.00000  Uiso   1.00
I1166  I     0.71992   0.75733   0.87847   0.00000  Uiso   1.00
C1167  C     0.82714   0.90901   0.89814   0.00000  Uiso   1.00
O1168  O     0.78388   0.91225   0.90095   0.00000  Uiso   1.00
O1169  O     0.85972   0.93786   0.86936   0.00000  Uiso   1.00
H1170  H     0.89533   0.93152   0.86532   0.00000  Uiso   1.00
loop_
_geom_bond_atom_site_label_1
_geom_bond_atom_site_label_2
_geom_bond_distance
_geom_bond_site_symmetry_2
_ccdc_geom_bond_type
O1     Cu7     1.965   .     S
O1     C3      1.293   .     A
O2     C3      1.290   .     A
O2     Cu8     1.963   .     S
C3     C42     1.448   .     S
O4     Cu7     1.959   .     S
O4     C6      1.295   .     A
O5     Cu8     1.947   .     S
O5     C6      1.295   .     A
C6     C31     1.467   .     S
Cu7    O11     1.947   .     S
Cu7    N46     2.015   .     S
Cu7    O9      1.963   .     S
Cu7    Cu8     2.681   .     S
Cu8    O12     1.959   .     S
Cu8    N51     2.015   .     S
Cu8    O10     1.965   .     S
O9     C13     1.295   .     A
O10    C13     1.291   .     A
O11    C14     1.294   .     A
O12    C14     1.299   .     A
C13    C37     1.455   .     S
C14    C19     1.470   .     S
C15    H18     1.084   .     S
C15    C30     1.387   .     A
C15    C611    1.399   1_554 S
H16    C30     1.084   .     S
H17    C27     1.083   .     S
C19    C29     1.420   .     A
C19    C30     1.398   .     A
C20    C21     1.387   .     A
C20    I61     2.130   .     S
C20    C31     1.414   .     A
C21    C22     1.385   .     A
C21    H33     1.083   .     S
C22    C23     1.411   .     A
C22    H617    1.079   .     S
C23    C24     1.423   .     A
C23    C610    1.425   .     S
C24    C31     1.425   .     A
C24    C28     1.426   .     A
C25    C29     1.427   .     A
C25    C608    1.425   1_554 S
C25    C611    1.416   1_554 S
C26    C27     1.393   .     A
C26    C610    1.416   .     S
C26    C600    1.399   .     S
C27    C28     1.398   .     A
C28    C62     1.492   .     S
C29    C57     1.488   .     S
H32    C607    1.079   1_554 S
C34    H35     1.084   .     S
C34    C42     1.398   .     A
C34    C231    1.388   .     S
C36    C52     1.485   .     S
C36    C37     1.418   .     A
C36    C424    1.388   1_545 S
C37    C38     1.404   .     A
C38    H39     1.084   .     S
C38    C430    1.382   1_545 S
C40    C42     1.396   .     A
C40    H41     1.083   .     S
C40    C233    1.382   .     S
C43    N51     1.355   .     A
C43    H44     1.079   .     S
C43    C110    1.410   .     S
C45    N46     1.383   .     A
C45    I56     2.119   .     S
C45    C173    1.410   1_455 S
N46    C47     1.366   .     A
C47    H48     1.079   .     S
C47    C179    1.418   1_455 S
C49    H50     1.082   .     S
C49    N51     1.368   .     A
C49    C112    1.418   .     S
C52    O54     1.398   .     S
C52    O53     1.223   .     D
O54    H55     1.014   .     S
C57    O58     1.224   .     D
C57    O59     1.400   .     S
O59    H60     1.014   .     S
C62    O63     1.221   .     D
C62    O64     1.397   .     S
O64    H65     1.011   .     S
O66    Cu72    1.965   .     S
O66    C68     1.293   .     A
O67    C68     1.290   .     A
O67    Cu73    1.963   .     S
C68    C107    1.448   .     S
O69    Cu72    1.959   .     S
O69    C71     1.295   .     A
O70    Cu73    1.947   .     S
O70    C71     1.295   .     A
C71    C96     1.467   .     S
Cu72   O76     1.947   .     S
Cu72   N111    2.015   .     S
Cu72   O74     1.963   .     S
Cu72   Cu73    2.681   .     S
Cu73   O77     1.959   .     S
Cu73   N116    2.015   .     S
Cu73   O75     1.965   .     S
O74    C78     1.295   .     A
O75    C78     1.291   .     A
O76    C79     1.294   .     A
O77    C79     1.299   .     A
C78    C102    1.455   .     S
C79    C84     1.470   .     S
C80    H83     1.084   .     S
C80    C95     1.387   .     A
C80    C676    1.399   1_554 S
H81    C95     1.084   .     S
H82    C92     1.083   .     S
C84    C94     1.420   .     A
C84    C95     1.398   .     A
C85    C86     1.387   .     A
C85    I126    2.130   .     S
C85    C96     1.414   .     A
C86    C87     1.385   .     A
C86    H98     1.083   .     S
C87    C88     1.411   .     A
C87    H682    1.079   .     S
C88    C89     1.423   .     A
C88    C675    1.425   .     S
C89    C96     1.425   .     A
C89    C93     1.426   .     A
C90    C94     1.427   .     A
C90    C673    1.425   1_554 S
C90    C676    1.416   1_554 S
C91    C92     1.393   .     A
C91    C675    1.416   .     S
C91    C665    1.399   .     S
C92    C93     1.398   .     A
C93    C127    1.492   .     S
C94    C122    1.488   .     S
H97    C672    1.079   1_554 S
C99    H100    1.084   .     S
C99    C107    1.398   .     A
C99    C296    1.388   .     S
C101   C117    1.485   .     S
C101   C102    1.418   .     A
C101   C489    1.388   1_545 S
C102   C103    1.404   .     A
C103   H104    1.084   .     S
C103   C495    1.382   1_545 S
C105   C107    1.396   .     A
C105   H106    1.083   .     S
C105   C298    1.382   .     S
C108   N116    1.355   .     A
C108   H109    1.079   .     S
C108   C175    1.410   .     S
C110   N111    1.383   .     A
C110   I121    2.119   .     S
N111   C112    1.366   .     A
C112   H113    1.079   .     S
C114   H115    1.082   .     S
C114   N116    1.368   .     A
C114   C177    1.418   .     S
C117   O119    1.398   .     S
C117   O118    1.223   .     D
O119   H120    1.014   .     S
C122   O123    1.224   .     D
C122   O124    1.400   .     S
O124   H125    1.014   .     S
C127   O128    1.221   .     D
C127   O129    1.397   .     S
O129   H130    1.011   .     S
O131   Cu137   1.965   .     S
O131   C133    1.293   .     A
O132   C133    1.290   .     A
O132   Cu138   1.963   .     S
C133   C172    1.448   .     S
O134   Cu137   1.959   .     S
O134   C136    1.295   .     A
O135   Cu138   1.947   .     S
O135   C136    1.295   .     A
C136   C161    1.467   .     S
Cu137  O141    1.947   .     S
Cu137  N176    2.015   .     S
Cu137  O139    1.963   .     S
Cu137  Cu138   2.681   .     S
Cu138  O142    1.959   .     S
Cu138  N181    2.015   .     S
Cu138  O140    1.965   .     S
O139   C143    1.295   .     A
O140   C143    1.291   .     A
O141   C144    1.294   .     A
O142   C144    1.299   .     A
C143   C167    1.455   .     S
C144   C149    1.470   .     S
C145   H148    1.084   .     S
C145   C160    1.387   .     A
C145   C741    1.399   1_554 S
H146   C160    1.084   .     S
H147   C157    1.083   .     S
C149   C159    1.420   .     A
C149   C160    1.398   .     A
C150   C151    1.387   .     A
C150   I191    2.130   .     S
C150   C161    1.414   .     A
C151   C152    1.385   .     A
C151   H163    1.083   .     S
C152   C153    1.411   .     A
C152   H747    1.079   .     S
C153   C154    1.423   .     A
C153   C740    1.425   .     S
C154   C161    1.425   .     A
C154   C158    1.426   .     A
C155   C159    1.427   .     A
C155   C738    1.425   1_554 S
C155   C741    1.416   1_554 S
C156   C157    1.393   .     A
C156   C740    1.416   .     S
C156   C730    1.399   .     S
C157   C158    1.398   .     A
C158   C192    1.492   .     S
C159   C187    1.488   .     S
H162   C737    1.079   1_554 S
C164   H165    1.084   .     S
C164   C172    1.398   .     A
C164   C361    1.388   .     S
C166   C182    1.485   .     S
C166   C167    1.418   .     A
C166   C554    1.388   1_545 S
C167   C168    1.404   .     A
C168   H169    1.084   .     S
C168   C560    1.382   1_545 S
C170   C172    1.396   .     A
C170   H171    1.083   .     S
C170   C363    1.382   .     S
C173   N181    1.355   .     A
C173   H174    1.079   .     S
C173   C45     1.410   1_655 S
C175   N176    1.383   .     A
C175   I186    2.119   .     S
N176   C177    1.366   .     A
C177   H178    1.079   .     S
C179   H180    1.082   .     S
C179   N181    1.368   .     A
C179   C47     1.418   1_655 S
C182   O184    1.398   .     S
C182   O183    1.223   .     D
O184   H185    1.014   .     S
C187   O188    1.224   .     D
C187   O189    1.400   .     S
O189   H190    1.014   .     S
C192   O193    1.221   .     D
C192   O194    1.397   .     S
O194   H195    1.011   .     S
O196   Cu202   1.965   .     S
O196   C198    1.293   .     A
O197   C198    1.290   .     A
O197   Cu203   1.963   .     S
C198   C237    1.448   .     S
O199   Cu202   1.959   .     S
O199   C201    1.295   .     A
O200   Cu203   1.947   .     S
O200   C201    1.295   .     A
C201   C226    1.467   .     S
Cu202  O206    1.947   .     S
Cu202  N241    2.015   .     S
Cu202  O204    1.963   .     S
Cu202  Cu203   2.681   .     S
Cu203  O207    1.959   .     S
Cu203  N246    2.015   .     S
Cu203  O205    1.965   .     S
O204   C208    1.295   .     A
O205   C208    1.291   .     A
O206   C209    1.294   .     A
O207   C209    1.299   .     A
C208   C232    1.455   .     S
C209   C214    1.470   .     S
C210   H213    1.084   .     S
C210   C225    1.387   .     A
C210   C806    1.399   1_554 S
H211   C225    1.084   .     S
H212   C222    1.083   .     S
C214   C224    1.420   .     A
C214   C225    1.398   .     A
C215   C216    1.387   .     A
C215   I256    2.130   .     S
C215   C226    1.414   .     A
C216   C217    1.385   .     A
C216   H228    1.083   .     S
C217   C218    1.411   .     A
C217   H812    1.079   .     S
C218   C219    1.423   .     A
C218   C805    1.425   .     S
C219   C226    1.425   .     A
C219   C223    1.426   .     A
C220   C224    1.427   .     A
C220   C803    1.425   1_554 S
C220   C806    1.416   1_554 S
C221   C222    1.393   .     A
C221   C805    1.416   .     S
C221   C795    1.399   .     S
C222   C223    1.398   .     A
C223   C257    1.492   .     S
C224   C252    1.488   .     S
H227   C802    1.079   1_554 S
C229   H230    1.084   .     S
C229   C237    1.398   .     A
C229   C426    1.388   .     S
C231   C247    1.485   .     S
C231   C232    1.418   .     A
C232   C233    1.404   .     A
C233   H234    1.084   .     S
C235   C237    1.396   .     A
C235   H236    1.083   .     S
C235   C428    1.382   .     S
C238   N246    1.355   .     A
C238   H239    1.079   .     S
C238   C305    1.410   .     S
C240   N241    1.383   .     A
C240   I251    2.119   .     S
C240   C368    1.410   1_455 S
N241   C242    1.366   .     A
C242   H243    1.079   .     S
C242   C374    1.418   1_455 S
C244   H245    1.082   .     S
C244   N246    1.368   .     A
C244   C307    1.418   .     S
C247   O249    1.398   .     S
C247   O248    1.223   .     D
O249   H250    1.014   .     S
C252   O253    1.224   .     D
C252   O254    1.400   .     S
O254   H255    1.014   .     S
C257   O258    1.221   .     D
C257   O259    1.397   .     S
O259   H260    1.011   .     S
O261   Cu267   1.965   .     S
O261   C263    1.293   .     A
O262   C263    1.290   .     A
O262   Cu268   1.963   .     S
C263   C302    1.448   .     S
O264   Cu267   1.959   .     S
O264   C266    1.295   .     A
O265   Cu268   1.947   .     S
O265   C266    1.295   .     A
C266   C291    1.467   .     S
Cu267  O271    1.947   .     S
Cu267  N306    2.015   .     S
Cu267  O269    1.963   .     S
Cu267  Cu268   2.681   .     S
Cu268  O272    1.959   .     S
Cu268  N311    2.015   .     S
Cu268  O270    1.965   .     S
O269   C273    1.295   .     A
O270   C273    1.291   .     A
O271   C274    1.294   .     A
O272   C274    1.299   .     A
C273   C297    1.455   .     S
C274   C279    1.470   .     S
C275   H278    1.084   .     S
C275   C290    1.387   .     A
C275   C871    1.399   1_554 S
H276   C290    1.084   .     S
H277   C287    1.083   .     S
C279   C289    1.420   .     A
C279   C290    1.398   .     A
C280   C281    1.387   .     A
C280   I321    2.130   .     S
C280   C291    1.414   .     A
C281   C282    1.385   .     A
C281   H293    1.083   .     S
C282   C283    1.411   .     A
C282   H877    1.079   .     S
C283   C284    1.423   .     A
C283   C870    1.425   .     S
C284   C291    1.425   .     A
C284   C288    1.426   .     A
C285   C289    1.427   .     A
C285   C868    1.425   1_554 S
C285   C871    1.416   1_554 S
C286   C287    1.393   .     A
C286   C870    1.416   .     S
C286   C860    1.399   .     S
C287   C288    1.398   .     A
C288   C322    1.492   .     S
C289   C317    1.488   .     S
H292   C867    1.079   1_554 S
C294   H295    1.084   .     S
C294   C302    1.398   .     A
C294   C491    1.388   .     S
C296   C312    1.485   .     S
C296   C297    1.418   .     A
C297   C298    1.404   .     A
C298   H299    1.084   .     S
C300   C302    1.396   .     A
C300   H301    1.083   .     S
C300   C493    1.382   .     S
C303   N311    1.355   .     A
C303   H304    1.079   .     S
C303   C370    1.410   .     S
C305   N306    1.383   .     A
C305   I316    2.119   .     S
N306   C307    1.366   .     A
C307   H308    1.079   .     S
C309   H310    1.082   .     S
C309   N311    1.368   .     A
C309   C372    1.418   .     S
C312   O314    1.398   .     S
C312   O313    1.223   .     D
O314   H315    1.014   .     S
C317   O318    1.224   .     D
C317   O319    1.400   .     S
O319   H320    1.014   .     S
C322   O323    1.221   .     D
C322   O324    1.397   .     S
O324   H325    1.011   .     S
O326   Cu332   1.965   .     S
O326   C328    1.293   .     A
O327   C328    1.290   .     A
O327   Cu333   1.963   .     S
C328   C367    1.448   .     S
O329   Cu332   1.959   .     S
O329   C331    1.295   .     A
O330   Cu333   1.947   .     S
O330   C331    1.295   .     A
C331   C356    1.467   .     S
Cu332  O336    1.947   .     S
Cu332  N371    2.015   .     S
Cu332  O334    1.963   .     S
Cu332  Cu333   2.681   .     S
Cu333  O337    1.959   .     S
Cu333  N376    2.015   .     S
Cu333  O335    1.965   .     S
O334   C338    1.295   .     A
O335   C338    1.291   .     A
O336   C339    1.294   .     A
O337   C339    1.299   .     A
C338   C362    1.455   .     S
C339   C344    1.470   .     S
C340   H343    1.084   .     S
C340   C355    1.387   .     A
C340   C936    1.399   1_554 S
H341   C355    1.084   .     S
H342   C352    1.083   .     S
C344   C354    1.420   .     A
C344   C355    1.398   .     A
C345   C346    1.387   .     A
C345   I386    2.130   .     S
C345   C356    1.414   .     A
C346   C347    1.385   .     A
C346   H358    1.083   .     S
C347   C348    1.411   .     A
C347   H942    1.079   .     S
C348   C349    1.423   .     A
C348   C935    1.425   .     S
C349   C356    1.425   .     A
C349   C353    1.426   .     A
C350   C354    1.427   .     A
C350   C933    1.425   1_554 S
C350   C936    1.416   1_554 S
C351   C352    1.393   .     A
C351   C935    1.416   .     S
C351   C925    1.399   .     S
C352   C353    1.398   .     A
C353   C387    1.492   .     S
C354   C382    1.488   .     S
H357   C932    1.079   1_554 S
C359   H360    1.084   .     S
C359   C367    1.398   .     A
C359   C556    1.388   .     S
C361   C377    1.485   .     S
C361   C362    1.418   .     A
C362   C363    1.404   .     A
C363   H364    1.084   .     S
C365   C367    1.396   .     A
C365   H366    1.083   .     S
C365   C558    1.382   .     S
C368   N376    1.355   .     A
C368   H369    1.079   .     S
C368   C240    1.410   1_655 S
C370   N371    1.383   .     A
C370   I381    2.119   .     S
N371   C372    1.366   .     A
C372   H373    1.079   .     S
C374   H375    1.082   .     S
C374   N376    1.368   .     A
C374   C242    1.418   1_655 S
C377   O379    1.398   .     S
C377   O378    1.223   .     D
O379   H380    1.014   .     S
C382   O383    1.224   .     D
C382   O384    1.400   .     S
O384   H385    1.014   .     S
C387   O388    1.221   .     D
C387   O389    1.397   .     S
O389   H390    1.011   .     S
O391   Cu397   1.965   .     S
O391   C393    1.293   .     A
O392   C393    1.290   .     A
O392   Cu398   1.963   .     S
C393   C432    1.448   .     S
O394   Cu397   1.959   .     S
O394   C396    1.295   .     A
O395   Cu398   1.947   .     S
O395   C396    1.295   .     A
C396   C421    1.467   .     S
Cu397  O401    1.947   .     S
Cu397  N436    2.015   .     S
Cu397  O399    1.963   .     S
Cu397  Cu398   2.681   .     S
Cu398  O402    1.959   .     S
Cu398  N441    2.015   .     S
Cu398  O400    1.965   .     S
O399   C403    1.295   .     A
O400   C403    1.291   .     A
O401   C404    1.294   .     A
O402   C404    1.299   .     A
C403   C427    1.455   .     S
C404   C409    1.470   .     S
C405   H408    1.084   .     S
C405   C420    1.387   .     A
C405   C1001   1.399   1_554 S
H406   C420    1.084   .     S
H407   C417    1.083   .     S
C409   C419    1.420   .     A
C409   C420    1.398   .     A
C410   C411    1.387   .     A
C410   I451    2.130   .     S
C410   C421    1.414   .     A
C411   C412    1.385   .     A
C411   H423    1.083   .     S
C412   C413    1.411   .     A
C412   H1007   1.079   .     S
C413   C414    1.423   .     A
C413   C1000   1.425   .     S
C414   C421    1.425   .     A
C414   C418    1.426   .     A
C415   C419    1.427   .     A
C415   C998    1.425   1_554 S
C415   C1001   1.416   1_554 S
C416   C417    1.393   .     A
C416   C1000   1.416   .     S
C416   C990    1.399   .     S
C417   C418    1.398   .     A
C418   C452    1.492   .     S
C419   C447    1.488   .     S
H422   C997    1.079   1_554 S
C424   H425    1.084   .     S
C424   C432    1.398   .     A
C424   C36     1.388   1_565 S
C426   C442    1.485   .     S
C426   C427    1.418   .     A
C427   C428    1.404   .     A
C428   H429    1.084   .     S
C430   C432    1.396   .     A
C430   H431    1.083   .     S
C430   C38     1.382   1_565 S
C433   N441    1.355   .     A
C433   H434    1.079   .     S
C433   C500    1.410   .     S
C435   N436    1.383   .     A
C435   I446    2.119   .     S
C435   C563    1.410   1_455 S
N436   C437    1.366   .     A
C437   H438    1.079   .     S
C437   C569    1.418   1_455 S
C439   H440    1.082   .     S
C439   N441    1.368   .     A
C439   C502    1.418   .     S
C442   O444    1.398   .     S
C442   O443    1.223   .     D
O444   H445    1.014   .     S
C447   O448    1.224   .     D
C447   O449    1.400   .     S
O449   H450    1.014   .     S
C452   O453    1.221   .     D
C452   O454    1.397   .     S
O454   H455    1.011   .     S
O456   Cu462   1.965   .     S
O456   C458    1.293   .     A
O457   C458    1.290   .     A
O457   Cu463   1.963   .     S
C458   C497    1.448   .     S
O459   Cu462   1.959   .     S
O459   C461    1.295   .     A
O460   Cu463   1.947   .     S
O460   C461    1.295   .     A
C461   C486    1.467   .     S
Cu462  O466    1.947   .     S
Cu462  N501    2.015   .     S
Cu462  O464    1.963   .     S
Cu462  Cu463   2.681   .     S
Cu463  O467    1.959   .     S
Cu463  N506    2.015   .     S
Cu463  O465    1.965   .     S
O464   C468    1.295   .     A
O465   C468    1.291   .     A
O466   C469    1.294   .     A
O467   C469    1.299   .     A
C468   C492    1.455   .     S
C469   C474    1.470   .     S
C470   H473    1.084   .     S
C470   C485    1.387   .     A
C470   C1066   1.399   1_554 S
H471   C485    1.084   .     S
H472   C482    1.083   .     S
C474   C484    1.420   .     A
C474   C485    1.398   .     A
C475   C476    1.387   .     A
C475   I516    2.130   .     S
C475   C486    1.414   .     A
C476   C477    1.385   .     A
C476   H488    1.083   .     S
C477   C478    1.411   .     A
C477   H1072   1.079   .     S
C478   C479    1.423   .     A
C478   C1065   1.425   .     S
C479   C486    1.425   .     A
C479   C483    1.426   .     A
C480   C484    1.427   .     A
C480   C1063   1.425   1_554 S
C480   C1066   1.416   1_554 S
C481   C482    1.393   .     A
C481   C1065   1.416   .     S
C481   C1055   1.399   .     S
C482   C483    1.398   .     A
C483   C517    1.492   .     S
C484   C512    1.488   .     S
H487   C1062   1.079   1_554 S
C489   H490    1.084   .     S
C489   C497    1.398   .     A
C489   C101    1.388   1_565 S
C491   C507    1.485   .     S
C491   C492    1.418   .     A
C492   C493    1.404   .     A
C493   H494    1.084   .     S
C495   C497    1.396   .     A
C495   H496    1.083   .     S
C495   C103    1.382   1_565 S
C498   N506    1.355   .     A
C498   H499    1.079   .     S
C498   C565    1.410   .     S
C500   N501    1.383   .     A
C500   I511    2.119   .     S
N501   C502    1.366   .     A
C502   H503    1.079   .     S
C504   H505    1.082   .     S
C504   N506    1.368   .     A
C504   C567    1.418   .     S
C507   O509    1.398   .     S
C507   O508    1.223   .     D
O509   H510    1.014   .     S
C512   O513    1.224   .     D
C512   O514    1.400   .     S
O514   H515    1.014   .     S
C517   O518    1.221   .     D
C517   O519    1.397   .     S
O519   H520    1.011   .     S
O521   Cu527   1.965   .     S
O521   C523    1.293   .     A
O522   C523    1.290   .     A
O522   Cu528   1.963   .     S
C523   C562    1.448   .     S
O524   Cu527   1.959   .     S
O524   C526    1.295   .     A
O525   Cu528   1.947   .     S
O525   C526    1.295   .     A
C526   C551    1.467   .     S
Cu527  O531    1.947   .     S
Cu527  N566    2.015   .     S
Cu527  O529    1.963   .     S
Cu527  Cu528   2.681   .     S
Cu528  O532    1.959   .     S
Cu528  N571    2.015   .     S
Cu528  O530    1.965   .     S
O529   C533    1.295   .     A
O530   C533    1.291   .     A
O531   C534    1.294   .     A
O532   C534    1.299   .     A
C533   C557    1.455   .     S
C534   C539    1.470   .     S
C535   H538    1.084   .     S
C535   C550    1.387   .     A
C535   C1131   1.399   1_554 S
H536   C550    1.084   .     S
H537   C547    1.083   .     S
C539   C549    1.420   .     A
C539   C550    1.398   .     A
C540   C541    1.387   .     A
C540   I581    2.130   .     S
C540   C551    1.414   .     A
C541   C542    1.385   .     A
C541   H553    1.083   .     S
C542   C543    1.411   .     A
C542   H1137   1.079   .     S
C543   C544    1.423   .     A
C543   C1130   1.425   .     S
C544   C551    1.425   .     A
C544   C548    1.426   .     A
C545   C549    1.427   .     A
C545   C1128   1.425   1_554 S
C545   C1131   1.416   1_554 S
C546   C547    1.393   .     A
C546   C1130   1.416   .     S
C546   C1120   1.399   .     S
C547   C548    1.398   .     A
C548   C582    1.492   .     S
C549   C577    1.488   .     S
H552   C1127   1.079   1_554 S
C554   H555    1.084   .     S
C554   C562    1.398   .     A
C554   C166    1.388   1_565 S
C556   C572    1.485   .     S
C556   C557    1.418   .     A
C557   C558    1.404   .     A
C558   H559    1.084   .     S
C560   C562    1.396   .     A
C560   H561    1.083   .     S
C560   C168    1.382   1_565 S
C563   N571    1.355   .     A
C563   H564    1.079   .     S
C563   C435    1.410   1_655 S
C565   N566    1.383   .     A
C565   I576    2.119   .     S
N566   C567    1.366   .     A
C567   H568    1.079   .     S
C569   H570    1.082   .     S
C569   N571    1.368   .     A
C569   C437    1.418   1_655 S
C572   O574    1.398   .     S
C572   O573    1.223   .     D
O574   H575    1.014   .     S
C577   O578    1.224   .     D
C577   O579    1.400   .     S
O579   H580    1.014   .     S
C582   O583    1.221   .     D
C582   O584    1.397   .     S
O584   H585    1.011   .     S
O586   Cu592   1.965   .     S
O586   C588    1.293   .     A
O587   C588    1.290   .     A
O587   Cu593   1.963   .     S
C588   C627    1.448   .     S
O589   Cu592   1.959   .     S
O589   C591    1.295   .     A
O590   Cu593   1.947   .     S
O590   C591    1.295   .     A
C591   C616    1.467   .     S
Cu592  O596    1.947   .     S
Cu592  N631    2.015   .     S
Cu592  O594    1.963   .     S
Cu592  Cu593   2.681   .     S
Cu593  O597    1.959   .     S
Cu593  N636    2.015   .     S
Cu593  O595    1.965   .     S
O594   C598    1.295   .     A
O595   C598    1.291   .     A
O596   C599    1.294   .     A
O597   C599    1.299   .     A
C598   C622    1.455   .     S
C599   C604    1.470   .     S
C600   H603    1.084   .     S
C600   C615    1.387   .     A
H601   C615    1.084   .     S
H602   C612    1.083   .     S
C604   C614    1.420   .     A
C604   C615    1.398   .     A
C605   C606    1.387   .     A
C605   I646    2.130   .     S
C605   C616    1.414   .     A
C606   C607    1.385   .     A
C606   H618    1.083   .     S
C607   C608    1.411   .     A
C607   H32     1.079   1_556 S
C608   C609    1.423   .     A
C608   C25     1.425   1_556 S
C609   C616    1.425   .     A
C609   C613    1.426   .     A
C610   C614    1.427   .     A
C611   C612    1.393   .     A
C611   C25     1.416   1_556 S
C611   C15     1.399   1_556 S
C612   C613    1.398   .     A
C613   C647    1.492   .     S
C614   C642    1.488   .     S
C619   H620    1.084   .     S
C619   C627    1.398   .     A
C619   C816    1.388   .     S
C621   C637    1.485   .     S
C621   C622    1.418   .     A
C621   C1009   1.388   1_545 S
C622   C623    1.404   .     A
C623   H624    1.084   .     S
C623   C1015   1.382   1_545 S
C625   C627    1.396   .     A
C625   H626    1.083   .     S
C625   C818    1.382   .     S
C628   N636    1.355   .     A
C628   H629    1.079   .     S
C628   C695    1.410   .     S
C630   N631    1.383   .     A
C630   I641    2.119   .     S
C630   C758    1.410   1_455 S
N631   C632    1.366   .     A
C632   H633    1.079   .     S
C632   C764    1.418   1_455 S
C634   H635    1.082   .     S
C634   N636    1.368   .     A
C634   C697    1.418   .     S
C637   O639    1.398   .     S
C637   O638    1.223   .     D
O639   H640    1.014   .     S
C642   O643    1.224   .     D
C642   O644    1.400   .     S
O644   H645    1.014   .     S
C647   O648    1.221   .     D
C647   O649    1.397   .     S
O649   H650    1.011   .     S
O651   Cu657   1.965   .     S
O651   C653    1.293   .     A
O652   C653    1.290   .     A
O652   Cu658   1.963   .     S
C653   C692    1.448   .     S
O654   Cu657   1.959   .     S
O654   C656    1.295   .     A
O655   Cu658   1.947   .     S
O655   C656    1.295   .     A
C656   C681    1.467   .     S
Cu657  O661    1.947   .     S
Cu657  N696    2.015   .     S
Cu657  O659    1.963   .     S
Cu657  Cu658   2.681   .     S
Cu658  O662    1.959   .     S
Cu658  N701    2.015   .     S
Cu658  O660    1.965   .     S
O659   C663    1.295   .     A
O660   C663    1.291   .     A
O661   C664    1.294   .     A
O662   C664    1.299   .     A
C663   C687    1.455   .     S
C664   C669    1.470   .     S
C665   H668    1.084   .     S
C665   C680    1.387   .     A
H666   C680    1.084   .     S
H667   C677    1.083   .     S
C669   C679    1.420   .     A
C669   C680    1.398   .     A
C670   C671    1.387   .     A
C670   I711    2.130   .     S
C670   C681    1.414   .     A
C671   C672    1.385   .     A
C671   H683    1.083   .     S
C672   C673    1.411   .     A
C672   H97     1.079   1_556 S
C673   C674    1.423   .     A
C673   C90     1.425   1_556 S
C674   C681    1.425   .     A
C674   C678    1.426   .     A
C675   C679    1.427   .     A
C676   C677    1.393   .     A
C676   C90     1.416   1_556 S
C676   C80     1.399   1_556 S
C677   C678    1.398   .     A
C678   C712    1.492   .     S
C679   C707    1.488   .     S
C684   H685    1.084   .     S
C684   C692    1.398   .     A
C684   C881    1.388   .     S
C686   C702    1.485   .     S
C686   C687    1.418   .     A
C686   C1074   1.388   1_545 S
C687   C688    1.404   .     A
C688   H689    1.084   .     S
C688   C1080   1.382   1_545 S
C690   C692    1.396   .     A
C690   H691    1.083   .     S
C690   C883    1.382   .     S
C693   N701    1.355   .     A
C693   H694    1.079   .     S
C693   C760    1.410   .     S
C695   N696    1.383   .     A
C695   I706    2.119   .     S
N696   C697    1.366   .     A
C697   H698    1.079   .     S
C699   H700    1.082   .     S
C699   N701    1.368   .     A
C699   C762    1.418   .     S
C702   O704    1.398   .     S
C702   O703    1.223   .     D
O704   H705    1.014   .     S
C707   O708    1.224   .     D
C707   O709    1.400   .     S
O709   H710    1.014   .     S
C712   O713    1.221   .     D
C712   O714    1.397   .     S
O714   H715    1.011   .     S
O716   Cu722   1.965   .     S
O716   C718    1.293   .     A
O717   C718    1.290   .     A
O717   Cu723   1.963   .     S
C718   C757    1.448   .     S
O719   Cu722   1.959   .     S
O719   C721    1.295   .     A
O720   Cu723   1.947   .     S
O720   C721    1.295   .     A
C721   C746    1.467   .     S
Cu722  O726    1.947   .     S
Cu722  N761    2.015   .     S
Cu722  O724    1.963   .     S
Cu722  Cu723   2.681   .     S
Cu723  O727    1.959   .     S
Cu723  N766    2.015   .     S
Cu723  O725    1.965   .     S
O724   C728    1.295   .     A
O725   C728    1.291   .     A
O726   C729    1.294   .     A
O727   C729    1.299   .     A
C728   C752    1.455   .     S
C729   C734    1.470   .     S
C730   H733    1.084   .     S
C730   C745    1.387   .     A
H731   C745    1.084   .     S
H732   C742    1.083   .     S
C734   C744    1.420   .     A
C734   C745    1.398   .     A
C735   C736    1.387   .     A
C735   I776    2.130   .     S
C735   C746    1.414   .     A
C736   C737    1.385   .     A
C736   H748    1.083   .     S
C737   C738    1.411   .     A
C737   H162    1.079   1_556 S
C738   C739    1.423   .     A
C738   C155    1.425   1_556 S
C739   C746    1.425   .     A
C739   C743    1.426   .     A
C740   C744    1.427   .     A
C741   C742    1.393   .     A
C741   C155    1.416   1_556 S
C741   C145    1.399   1_556 S
C742   C743    1.398   .     A
C743   C777    1.492   .     S
C744   C772    1.488   .     S
C749   H750    1.084   .     S
C749   C757    1.398   .     A
C749   C946    1.388   .     S
C751   C767    1.485   .     S
C751   C752    1.418   .     A
C751   C1139   1.388   1_545 S
C752   C753    1.404   .     A
C753   H754    1.084   .     S
C753   C1145   1.382   1_545 S
C755   C757    1.396   .     A
C755   H756    1.083   .     S
C755   C948    1.382   .     S
C758   N766    1.355   .     A
C758   H759    1.079   .     S
C758   C630    1.410   1_655 S
C760   N761    1.383   .     A
C760   I771    2.119   .     S
N761   C762    1.366   .     A
C762   H763    1.079   .     S
C764   H765    1.082   .     S
C764   N766    1.368   .     A
C764   C632    1.418   1_655 S
C767   O769    1.398   .     S
C767   O768    1.223   .     D
O769   H770    1.014   .     S
C772   O773    1.224   .     D
C772   O774    1.400   .     S
O774   H775    1.014   .     S
C777   O778    1.221   .     D
C777   O779    1.397   .     S
O779   H780    1.011   .     S
O781   Cu787   1.965   .     S
O781   C783    1.293   .     A
O782   C783    1.290   .     A
O782   Cu788   1.963   .     S
C783   C822    1.448   .     S
O784   Cu787   1.959   .     S
O784   C786    1.295   .     A
O785   Cu788   1.947   .     S
O785   C786    1.295   .     A
C786   C811    1.467   .     S
Cu787  O791    1.947   .     S
Cu787  N826    2.015   .     S
Cu787  O789    1.963   .     S
Cu787  Cu788   2.681   .     S
Cu788  O792    1.959   .     S
Cu788  N831    2.015   .     S
Cu788  O790    1.965   .     S
O789   C793    1.295   .     A
O790   C793    1.291   .     A
O791   C794    1.294   .     A
O792   C794    1.299   .     A
C793   C817    1.455   .     S
C794   C799    1.470   .     S
C795   H798    1.084   .     S
C795   C810    1.387   .     A
H796   C810    1.084   .     S
H797   C807    1.083   .     S
C799   C809    1.420   .     A
C799   C810    1.398   .     A
C800   C801    1.387   .     A
C800   I841    2.130   .     S
C800   C811    1.414   .     A
C801   C802    1.385   .     A
C801   H813    1.083   .     S
C802   C803    1.411   .     A
C802   H227    1.079   1_556 S
C803   C804    1.423   .     A
C803   C220    1.425   1_556 S
C804   C811    1.425   .     A
C804   C808    1.426   .     A
C805   C809    1.427   .     A
C806   C807    1.393   .     A
C806   C220    1.416   1_556 S
C806   C210    1.399   1_556 S
C807   C808    1.398   .     A
C808   C842    1.492   .     S
C809   C837    1.488   .     S
C814   H815    1.084   .     S
C814   C822    1.398   .     A
C814   C1011   1.388   .     S
C816   C832    1.485   .     S
C816   C817    1.418   .     A
C817   C818    1.404   .     A
C818   H819    1.084   .     S
C820   C822    1.396   .     A
C820   H821    1.083   .     S
C820   C1013   1.382   .     S
C823   N831    1.355   .     A
C823   H824    1.079   .     S
C823   C890    1.410   .     S
C825   N826    1.383   .     A
C825   I836    2.119   .     S
C825   C953    1.410   1_455 S
N826   C827    1.366   .     A
C827   H828    1.079   .     S
C827   C959    1.418   1_455 S
C829   H830    1.082   .     S
C829   N831    1.368   .     A
C829   C892    1.418   .     S
C832   O834    1.398   .     S
C832   O833    1.223   .     D
O834   H835    1.014   .     S
C837   O838    1.224   .     D
C837   O839    1.400   .     S
O839   H840    1.014   .     S
C842   O843    1.221   .     D
C842   O844    1.397   .     S
O844   H845    1.011   .     S
O846   Cu852   1.965   .     S
O846   C848    1.293   .     A
O847   C848    1.290   .     A
O847   Cu853   1.963   .     S
C848   C887    1.448   .     S
O849   Cu852   1.959   .     S
O849   C851    1.295   .     A
O850   Cu853   1.947   .     S
O850   C851    1.295   .     A
C851   C876    1.467   .     S
Cu852  O856    1.947   .     S
Cu852  N891    2.015   .     S
Cu852  O854    1.963   .     S
Cu852  Cu853   2.681   .     S
Cu853  O857    1.959   .     S
Cu853  N896    2.015   .     S
Cu853  O855    1.965   .     S
O854   C858    1.295   .     A
O855   C858    1.291   .     A
O856   C859    1.294   .     A
O857   C859    1.299   .     A
C858   C882    1.455   .     S
C859   C864    1.470   .     S
C860   H863    1.084   .     S
C860   C875    1.387   .     A
H861   C875    1.084   .     S
H862   C872    1.083   .     S
C864   C874    1.420   .     A
C864   C875    1.398   .     A
C865   C866    1.387   .     A
C865   I906    2.130   .     S
C865   C876    1.414   .     A
C866   C867    1.385   .     A
C866   H878    1.083   .     S
C867   C868    1.411   .     A
C867   H292    1.079   1_556 S
C868   C869    1.423   .     A
C868   C285    1.425   1_556 S
C869   C876    1.425   .     A
C869   C873    1.426   .     A
C870   C874    1.427   .     A
C871   C872    1.393   .     A
C871   C285    1.416   1_556 S
C871   C275    1.399   1_556 S
C872   C873    1.398   .     A
C873   C907    1.492   .     S
C874   C902    1.488   .     S
C879   H880    1.084   .     S
C879   C887    1.398   .     A
C879   C1076   1.388   .     S
C881   C897    1.485   .     S
C881   C882    1.418   .     A
C882   C883    1.404   .     A
C883   H884    1.084   .     S
C885   C887    1.396   .     A
C885   H886    1.083   .     S
C885   C1078   1.382   .     S
C888   N896    1.355   .     A
C888   H889    1.079   .     S
C888   C955    1.410   .     S
C890   N891    1.383   .     A
C890   I901    2.119   .     S
N891   C892    1.366   .     A
C892   H893    1.079   .     S
C894   H895    1.082   .     S
C894   N896    1.368   .     A
C894   C957    1.418   .     S
C897   O899    1.398   .     S
C897   O898    1.223   .     D
O899   H900    1.014   .     S
C902   O903    1.224   .     D
C902   O904    1.400   .     S
O904   H905    1.014   .     S
C907   O908    1.221   .     D
C907   O909    1.397   .     S
O909   H910    1.011   .     S
O911   Cu917   1.965   .     S
O911   C913    1.293   .     A
O912   C913    1.290   .     A
O912   Cu918   1.963   .     S
C913   C952    1.448   .     S
O914   Cu917   1.959   .     S
O914   C916    1.295   .     A
O915   Cu918   1.947   .     S
O915   C916    1.295   .     A
C916   C941    1.467   .     S
Cu917  O921    1.947   .     S
Cu917  N956    2.015   .     S
Cu917  O919    1.963   .     S
Cu917  Cu918   2.681   .     S
Cu918  O922    1.959   .     S
Cu918  N961    2.015   .     S
Cu918  O920    1.965   .     S
O919   C923    1.295   .     A
O920   C923    1.291   .     A
O921   C924    1.294   .     A
O922   C924    1.299   .     A
C923   C947    1.455   .     S
C924   C929    1.470   .     S
C925   H928    1.084   .     S
C925   C940    1.387   .     A
H926   C940    1.084   .     S
H927   C937    1.083   .     S
C929   C939    1.420   .     A
C929   C940    1.398   .     A
C930   C931    1.387   .     A
C930   I971    2.130   .     S
C930   C941    1.414   .     A
C931   C932    1.385   .     A
C931   H943    1.083   .     S
C932   C933    1.411   .     A
C932   H357    1.079   1_556 S
C933   C934    1.423   .     A
C933   C350    1.425   1_556 S
C934   C941    1.425   .     A
C934   C938    1.426   .     A
C935   C939    1.427   .     A
C936   C937    1.393   .     A
C936   C350    1.416   1_556 S
C936   C340    1.399   1_556 S
C937   C938    1.398   .     A
C938   C972    1.492   .     S
C939   C967    1.488   .     S
C944   H945    1.084   .     S
C944   C952    1.398   .     A
C944   C1141   1.388   .     S
C946   C962    1.485   .     S
C946   C947    1.418   .     A
C947   C948    1.404   .     A
C948   H949    1.084   .     S
C950   C952    1.396   .     A
C950   H951    1.083   .     S
C950   C1143   1.382   .     S
C953   N961    1.355   .     A
C953   H954    1.079   .     S
C953   C825    1.410   1_655 S
C955   N956    1.383   .     A
C955   I966    2.119   .     S
N956   C957    1.366   .     A
C957   H958    1.079   .     S
C959   H960    1.082   .     S
C959   N961    1.368   .     A
C959   C827    1.418   1_655 S
C962   O964    1.398   .     S
C962   O963    1.223   .     D
O964   H965    1.014   .     S
C967   O968    1.224   .     D
C967   O969    1.400   .     S
O969   H970    1.014   .     S
C972   O973    1.221   .     D
C972   O974    1.397   .     S
O974   H975    1.011   .     S
O976   Cu982   1.965   .     S
O976   C978    1.293   .     A
O977   C978    1.290   .     A
O977   Cu983   1.963   .     S
C978   C1017   1.448   .     S
O979   Cu982   1.959   .     S
O979   C981    1.295   .     A
O980   Cu983   1.947   .     S
O980   C981    1.295   .     A
C981   C1006   1.467   .     S
Cu982  O986    1.947   .     S
Cu982  N1021   2.015   .     S
Cu982  O984    1.963   .     S
Cu982  Cu983   2.681   .     S
Cu983  O987    1.959   .     S
Cu983  N1026   2.015   .     S
Cu983  O985    1.965   .     S
O984   C988    1.295   .     A
O985   C988    1.291   .     A
O986   C989    1.294   .     A
O987   C989    1.299   .     A
C988   C1012   1.455   .     S
C989   C994    1.470   .     S
C990   H993    1.084   .     S
C990   C1005   1.387   .     A
H991   C1005   1.084   .     S
H992   C1002   1.083   .     S
C994   C1004   1.420   .     A
C994   C1005   1.398   .     A
C995   C996    1.387   .     A
C995   I1036   2.130   .     S
C995   C1006   1.414   .     A
C996   C997    1.385   .     A
C996   H1008   1.083   .     S
C997   C998    1.411   .     A
C997   H422    1.079   1_556 S
C998   C999    1.423   .     A
C998   C415    1.425   1_556 S
C999   C1006   1.425   .     A
C999   C1003   1.426   .     A
C1000  C1004   1.427   .     A
C1001  C1002   1.393   .     A
C1001  C415    1.416   1_556 S
C1001  C405    1.399   1_556 S
C1002  C1003   1.398   .     A
C1003  C1037   1.492   .     S
C1004  C1032   1.488   .     S
C1009  H1010   1.084   .     S
C1009  C1017   1.398   .     A
C1009  C621    1.388   1_565 S
C1011  C1027   1.485   .     S
C1011  C1012   1.418   .     A
C1012  C1013   1.404   .     A
C1013  H1014   1.084   .     S
C1015  C1017   1.396   .     A
C1015  H1016   1.083   .     S
C1015  C623    1.382   1_565 S
C1018  N1026   1.355   .     A
C1018  H1019   1.079   .     S
C1018  C1085   1.410   .     S
C1020  N1021   1.383   .     A
C1020  I1031   2.119   .     S
C1020  C1148   1.410   1_455 S
N1021  C1022   1.366   .     A
C1022  H1023   1.079   .     S
C1022  C1154   1.418   1_455 S
C1024  H1025   1.082   .     S
C1024  N1026   1.368   .     A
C1024  C1087   1.418   .     S
C1027  O1029   1.398   .     S
C1027  O1028   1.223   .     D
O1029  H1030   1.014   .     S
C1032  O1033   1.224   .     D
C1032  O1034   1.400   .     S
O1034  H1035   1.014   .     S
C1037  O1038   1.221   .     D
C1037  O1039   1.397   .     S
O1039  H1040   1.011   .     S
O1041  Cu1047  1.965   .     S
O1041  C1043   1.293   .     A
O1042  C1043   1.290   .     A
O1042  Cu1048  1.963   .     S
C1043  C1082   1.448   .     S
O1044  Cu1047  1.959   .     S
O1044  C1046   1.295   .     A
O1045  Cu1048  1.947   .     S
O1045  C1046   1.295   .     A
C1046  C1071   1.467   .     S
Cu1047 O1051   1.947   .     S
Cu1047 N1086   2.015   .     S
Cu1047 O1049   1.963   .     S
Cu1047 Cu1048  2.681   .     S
Cu1048 O1052   1.959   .     S
Cu1048 N1091   2.015   .     S
Cu1048 O1050   1.965   .     S
O1049  C1053   1.295   .     A
O1050  C1053   1.291   .     A
O1051  C1054   1.294   .     A
O1052  C1054   1.299   .     A
C1053  C1077   1.455   .     S
C1054  C1059   1.470   .     S
C1055  H1058   1.084   .     S
C1055  C1070   1.387   .     A
H1056  C1070   1.084   .     S
H1057  C1067   1.083   .     S
C1059  C1069   1.420   .     A
C1059  C1070   1.398   .     A
C1060  C1061   1.387   .     A
C1060  I1101   2.130   .     S
C1060  C1071   1.414   .     A
C1061  C1062   1.385   .     A
C1061  H1073   1.083   .     S
C1062  C1063   1.411   .     A
C1062  H487    1.079   1_556 S
C1063  C1064   1.423   .     A
C1063  C480    1.425   1_556 S
C1064  C1071   1.425   .     A
C1064  C1068   1.426   .     A
C1065  C1069   1.427   .     A
C1066  C1067   1.393   .     A
C1066  C480    1.416   1_556 S
C1066  C470    1.399   1_556 S
C1067  C1068   1.398   .     A
C1068  C1102   1.492   .     S
C1069  C1097   1.488   .     S
C1074  H1075   1.084   .     S
C1074  C1082   1.398   .     A
C1074  C686    1.388   1_565 S
C1076  C1092   1.485   .     S
C1076  C1077   1.418   .     A
C1077  C1078   1.404   .     A
C1078  H1079   1.084   .     S
C1080  C1082   1.396   .     A
C1080  H1081   1.083   .     S
C1080  C688    1.382   1_565 S
C1083  N1091   1.355   .     A
C1083  H1084   1.079   .     S
C1083  C1150   1.410   .     S
C1085  N1086   1.383   .     A
C1085  I1096   2.119   .     S
N1086  C1087   1.366   .     A
C1087  H1088   1.079   .     S
C1089  H1090   1.082   .     S
C1089  N1091   1.368   .     A
C1089  C1152   1.418   .     S
C1092  O1094   1.398   .     S
C1092  O1093   1.223   .     D
O1094  H1095   1.014   .     S
C1097  O1098   1.224   .     D
C1097  O1099   1.400   .     S
O1099  H1100   1.014   .     S
C1102  O1103   1.221   .     D
C1102  O1104   1.397   .     S
O1104  H1105   1.011   .     S
O1106  Cu1112  1.965   .     S
O1106  C1108   1.293   .     A
O1107  C1108   1.290   .     A
O1107  Cu1113  1.963   .     S
C1108  C1147   1.448   .     S
O1109  Cu1112  1.959   .     S
O1109  C1111   1.295   .     A
O1110  Cu1113  1.947   .     S
O1110  C1111   1.295   .     A
C1111  C1136   1.467   .     S
Cu1112 O1116   1.947   .     S
Cu1112 N1151   2.015   .     S
Cu1112 O1114   1.963   .     S
Cu1112 Cu1113  2.681   .     S
Cu1113 O1117   1.959   .     S
Cu1113 N1156   2.015   .     S
Cu1113 O1115   1.965   .     S
O1114  C1118   1.295   .     A
O1115  C1118   1.291   .     A
O1116  C1119   1.294   .     A
O1117  C1119   1.299   .     A
C1118  C1142   1.455   .     S
C1119  C1124   1.470   .     S
C1120  H1123   1.084   .     S
C1120  C1135   1.387   .     A
H1121  C1135   1.084   .     S
H1122  C1132   1.083   .     S
C1124  C1134   1.420   .     A
C1124  C1135   1.398   .     A
C1125  C1126   1.387   .     A
C1125  I1166   2.130   .     S
C1125  C1136   1.414   .     A
C1126  C1127   1.385   .     A
C1126  H1138   1.083   .     S
C1127  C1128   1.411   .     A
C1127  H552    1.079   1_556 S
C1128  C1129   1.423   .     A
C1128  C545    1.425   1_556 S
C1129  C1136   1.425   .     A
C1129  C1133   1.426   .     A
C1130  C1134   1.427   .     A
C1131  C1132   1.393   .     A
C1131  C545    1.416   1_556 S
C1131  C535    1.399   1_556 S
C1132  C1133   1.398   .     A
C1133  C1167   1.492   .     S
C1134  C1162   1.488   .     S
C1139  H1140   1.084   .     S
C1139  C1147   1.398   .     A
C1139  C751    1.388   1_565 S
C1141  C1157   1.485   .     S
C1141  C1142   1.418   .     A
C1142  C1143   1.404   .     A
C1143  H1144   1.084   .     S
C1145  C1147   1.396   .     A
C1145  H1146   1.083   .     S
C1145  C753    1.382   1_565 S
C1148  N1156   1.355   .     A
C1148  H1149   1.079   .     S
C1148  C1020   1.410   1_655 S
C1150  N1151   1.383   .     A
C1150  I1161   2.119   .     S
N1151  C1152   1.366   .     A
C1152  H1153   1.079   .     S
C1154  H1155   1.082   .     S
C1154  N1156   1.368   .     A
C1154  C1022   1.418   1_655 S
C1157  O1159   1.398   .     S
C1157  O1158   1.223   .     D
O1159  H1160   1.014   .     S
C1162  O1163   1.224   .     D
C1162  O1164   1.400   .     S
O1164  H1165   1.014   .     S
C1167  O1168   1.221   .     D
C1167  O1169   1.397   .     S
O1169  H1170   1.011   .     S
