data_str_m2_o1_o10_pcu_sym.54
_audit_creation_date              2020-01-03
_audit_creation_method            'Materials Studio'
_symmetry_space_group_name_H-M    'P1'
_symmetry_Int_Tables_number       1
_symmetry_cell_setting            triclinic
loop_
_symmetry_equiv_pos_as_xyz
  x,y,z
_cell_length_a                    26.2549
_cell_length_b                    32.4265
_cell_length_c                    28.7057
_cell_angle_alpha                 89.4576
_cell_angle_beta                  96.7659
_cell_angle_gamma                 91.1189
loop_
_atom_site_label
_atom_site_type_symbol
_atom_site_fract_x
_atom_site_fract_y
_atom_site_fract_z
_atom_site_U_iso_or_equiv
_atom_site_adp_type
_atom_site_occupancy
C1     C     0.16663   0.08742   0.16678   0.00000  Uiso   1.00
C2     C     0.18110   0.02116   0.20855   0.00000  Uiso   1.00
C3     C     0.16673   0.29055   0.16650   0.00000  Uiso   1.00
C4     C     0.16660   0.04278   0.16683   0.00000  Uiso   1.00
C5     C     0.13333   0.14201   0.02190   0.00000  Uiso   1.00
C6     C     0.20000   0.19132   0.31143   0.00000  Uiso   1.00
C7     C     0.13307   0.14185   0.30585   0.00000  Uiso   1.00
C8     C     0.20027   0.19149   0.02749   0.00000  Uiso   1.00
C9     C     0.32677   0.12389   0.11864   0.00000  Uiso   1.00
C10    C     0.00657   0.20944   0.21470   0.00000  Uiso   1.00
C11    C     0.09571   0.11405   0.27935   0.00000  Uiso   1.00
C12    C     0.16671   0.24591   0.16655   0.00000  Uiso   1.00
C13    C     0.23762   0.21928   0.05398   0.00000  Uiso   1.00
C14    C     0.06825   0.16529   0.15513   0.00000  Uiso   1.00
C15    C     0.26508   0.16804   0.17820   0.00000  Uiso   1.00
C16    C     0.01379   0.15783   0.15098   0.00000  Uiso   1.00
C17    C     0.31954   0.17550   0.18235   0.00000  Uiso   1.00
C18    C     0.15229   0.02151   0.12491   0.00000  Uiso   1.00
C19    C     0.18105   0.31182   0.20842   0.00000  Uiso   1.00
C20    C     0.15224   0.31217   0.12478   0.00000  Uiso   1.00
Cu21   Cu    0.16667   0.16667   0.21355   0.00000  Uiso   1.00
Cu22   Cu    0.16667   0.16666   0.11978   0.00000  Uiso   1.00
H23    H     0.14065   0.03778   0.09237   0.00000  Uiso   1.00
H24    H     0.25340   0.27623   0.07997   0.00000  Uiso   1.00
H25    H     0.19268   0.29555   0.24096   0.00000  Uiso   1.00
H26    H     0.14035   0.29617   0.09225   0.00000  Uiso   1.00
H27    H     0.19298   0.03717   0.24108   0.00000  Uiso   1.00
H28    H     0.10683   0.12224   0.03836   0.00000  Uiso   1.00
H29    H     0.22651   0.21109   0.29497   0.00000  Uiso   1.00
H30    H     0.28248   0.07237   0.10864   0.00000  Uiso   1.00
H31    H     0.05085   0.26096   0.22470   0.00000  Uiso   1.00
H32    H     0.07993   0.05711   0.25337   0.00000  Uiso   1.00
N33    N     0.16668   0.16668   0.28403   0.00000  Uiso   1.00
N34    N     0.16665   0.16666   0.04931   0.00000  Uiso   1.00
O35    O     0.16666   0.10655   0.20625   0.00000  Uiso   1.00
O36    O     0.29341   0.09369   0.13363   0.00000  Uiso   1.00
O37    O     0.32615   0.21161   0.25384   0.00000  Uiso   1.00
O38    O     0.03993   0.23964   0.19970   0.00000  Uiso   1.00
O39    O     0.05172   0.12527   0.26852   0.00000  Uiso   1.00
O40    O     0.10919   0.07360   0.27092   0.00000  Uiso   1.00
O41    O     0.28162   0.20806   0.06481   0.00000  Uiso   1.00
O42    O     0.22414   0.25973   0.06241   0.00000  Uiso   1.00
O43    O     0.16667   0.22678   0.12709   0.00000  Uiso   1.00
O44    O     0.16666   0.10654   0.12706   0.00000  Uiso   1.00
O45    O     0.16667   0.22679   0.20628   0.00000  Uiso   1.00
O46    O     0.09161   0.16667   0.19712   0.00000  Uiso   1.00
O47    O     0.24172   0.16666   0.13621   0.00000  Uiso   1.00
O48    O     0.09161   0.16666   0.11793   0.00000  Uiso   1.00
O49    O     0.24172   0.16667   0.21540   0.00000  Uiso   1.00
O50    O     0.00719   0.12172   0.07950   0.00000  Uiso   1.00
C51    C     0.49996   0.08742   0.16678   0.00000  Uiso   1.00
C52    C     0.51443   0.02116   0.20855   0.00000  Uiso   1.00
C53    C     0.50006   0.29055   0.16650   0.00000  Uiso   1.00
C54    C     0.49994   0.04278   0.16683   0.00000  Uiso   1.00
C55    C     0.46666   0.14201   0.02190   0.00000  Uiso   1.00
C56    C     0.53334   0.19132   0.31143   0.00000  Uiso   1.00
C57    C     0.46640   0.14185   0.30585   0.00000  Uiso   1.00
C58    C     0.53360   0.19149   0.02749   0.00000  Uiso   1.00
C59    C     0.66010   0.12389   0.11864   0.00000  Uiso   1.00
C60    C     0.33990   0.20944   0.21470   0.00000  Uiso   1.00
C61    C     0.42904   0.11405   0.27935   0.00000  Uiso   1.00
C62    C     0.50004   0.24591   0.16655   0.00000  Uiso   1.00
C63    C     0.57096   0.21928   0.05398   0.00000  Uiso   1.00
C64    C     0.40158   0.16529   0.15513   0.00000  Uiso   1.00
C65    C     0.59842   0.16804   0.17820   0.00000  Uiso   1.00
C66    C     0.34713   0.15783   0.15098   0.00000  Uiso   1.00
C67    C     0.65287   0.17550   0.18235   0.00000  Uiso   1.00
C68    C     0.48562   0.02151   0.12491   0.00000  Uiso   1.00
C69    C     0.51438   0.31182   0.20842   0.00000  Uiso   1.00
C70    C     0.48557   0.31217   0.12478   0.00000  Uiso   1.00
Cu71   Cu    0.50000   0.16667   0.21355   0.00000  Uiso   1.00
Cu72   Cu    0.50000   0.16666   0.11978   0.00000  Uiso   1.00
H73    H     0.47399   0.03778   0.09237   0.00000  Uiso   1.00
H74    H     0.58674   0.27623   0.07997   0.00000  Uiso   1.00
H75    H     0.52601   0.29555   0.24096   0.00000  Uiso   1.00
H76    H     0.47369   0.29617   0.09225   0.00000  Uiso   1.00
H77    H     0.52631   0.03717   0.24108   0.00000  Uiso   1.00
H78    H     0.44016   0.12224   0.03836   0.00000  Uiso   1.00
H79    H     0.55984   0.21109   0.29497   0.00000  Uiso   1.00
H80    H     0.61582   0.07237   0.10864   0.00000  Uiso   1.00
H81    H     0.38418   0.26096   0.22470   0.00000  Uiso   1.00
H82    H     0.41326   0.05711   0.25337   0.00000  Uiso   1.00
N83    N     0.50001   0.16668   0.28403   0.00000  Uiso   1.00
N84    N     0.49999   0.16666   0.04931   0.00000  Uiso   1.00
O85    O     0.50000   0.10655   0.20625   0.00000  Uiso   1.00
O86    O     0.62674   0.09369   0.13363   0.00000  Uiso   1.00
O87    O     0.65948   0.21161   0.25384   0.00000  Uiso   1.00
O88    O     0.37326   0.23964   0.19970   0.00000  Uiso   1.00
O89    O     0.38505   0.12527   0.26852   0.00000  Uiso   1.00
O90    O     0.44253   0.07360   0.27092   0.00000  Uiso   1.00
O91    O     0.61495   0.20806   0.06481   0.00000  Uiso   1.00
O92    O     0.55747   0.25973   0.06241   0.00000  Uiso   1.00
O93    O     0.50000   0.22678   0.12709   0.00000  Uiso   1.00
O94    O     0.50000   0.10654   0.12706   0.00000  Uiso   1.00
O95    O     0.50000   0.22679   0.20628   0.00000  Uiso   1.00
O96    O     0.42495   0.16667   0.19712   0.00000  Uiso   1.00
O97    O     0.57505   0.16666   0.13621   0.00000  Uiso   1.00
O98    O     0.42494   0.16666   0.11793   0.00000  Uiso   1.00
O99    O     0.57506   0.16667   0.21540   0.00000  Uiso   1.00
O100   O     0.34052   0.12172   0.07950   0.00000  Uiso   1.00
C101   C     0.83329   0.08742   0.16678   0.00000  Uiso   1.00
C102   C     0.84776   0.02116   0.20855   0.00000  Uiso   1.00
C103   C     0.83340   0.29055   0.16650   0.00000  Uiso   1.00
C104   C     0.83327   0.04278   0.16683   0.00000  Uiso   1.00
C105   C     0.80000   0.14201   0.02190   0.00000  Uiso   1.00
C106   C     0.86667   0.19132   0.31143   0.00000  Uiso   1.00
C107   C     0.79973   0.14185   0.30585   0.00000  Uiso   1.00
C108   C     0.86693   0.19149   0.02749   0.00000  Uiso   1.00
C109   C     0.99343   0.12389   0.11864   0.00000  Uiso   1.00
C110   C     0.67323   0.20944   0.21470   0.00000  Uiso   1.00
C111   C     0.76238   0.11405   0.27935   0.00000  Uiso   1.00
C112   C     0.83337   0.24591   0.16655   0.00000  Uiso   1.00
C113   C     0.90429   0.21928   0.05398   0.00000  Uiso   1.00
C114   C     0.73492   0.16529   0.15513   0.00000  Uiso   1.00
C115   C     0.93175   0.16804   0.17820   0.00000  Uiso   1.00
C116   C     0.68046   0.15783   0.15098   0.00000  Uiso   1.00
C117   C     0.98621   0.17550   0.18235   0.00000  Uiso   1.00
C118   C     0.81895   0.02151   0.12491   0.00000  Uiso   1.00
C119   C     0.84771   0.31182   0.20842   0.00000  Uiso   1.00
C120   C     0.81890   0.31217   0.12478   0.00000  Uiso   1.00
Cu121  Cu    0.83333   0.16667   0.21355   0.00000  Uiso   1.00
Cu122  Cu    0.83333   0.16666   0.11978   0.00000  Uiso   1.00
H123   H     0.80732   0.03778   0.09237   0.00000  Uiso   1.00
H124   H     0.92007   0.27623   0.07997   0.00000  Uiso   1.00
H125   H     0.85935   0.29555   0.24096   0.00000  Uiso   1.00
H126   H     0.80702   0.29617   0.09225   0.00000  Uiso   1.00
H127   H     0.85965   0.03717   0.24108   0.00000  Uiso   1.00
H128   H     0.77349   0.12224   0.03836   0.00000  Uiso   1.00
H129   H     0.89317   0.21109   0.29497   0.00000  Uiso   1.00
H130   H     0.94915   0.07237   0.10864   0.00000  Uiso   1.00
H131   H     0.71752   0.26096   0.22470   0.00000  Uiso   1.00
H132   H     0.74660   0.05711   0.25337   0.00000  Uiso   1.00
N133   N     0.83335   0.16668   0.28403   0.00000  Uiso   1.00
N134   N     0.83332   0.16666   0.04931   0.00000  Uiso   1.00
O135   O     0.83333   0.10655   0.20625   0.00000  Uiso   1.00
O136   O     0.96008   0.09369   0.13363   0.00000  Uiso   1.00
O137   O     0.99281   0.21161   0.25384   0.00000  Uiso   1.00
O138   O     0.70659   0.23964   0.19970   0.00000  Uiso   1.00
O139   O     0.71838   0.12527   0.26852   0.00000  Uiso   1.00
O140   O     0.77586   0.07360   0.27092   0.00000  Uiso   1.00
O141   O     0.94828   0.20806   0.06481   0.00000  Uiso   1.00
O142   O     0.89081   0.25973   0.06241   0.00000  Uiso   1.00
O143   O     0.83334   0.22678   0.12709   0.00000  Uiso   1.00
O144   O     0.83333   0.10654   0.12706   0.00000  Uiso   1.00
O145   O     0.83334   0.22679   0.20628   0.00000  Uiso   1.00
O146   O     0.75828   0.16667   0.19712   0.00000  Uiso   1.00
O147   O     0.90839   0.16666   0.13621   0.00000  Uiso   1.00
O148   O     0.75828   0.16666   0.11793   0.00000  Uiso   1.00
O149   O     0.90839   0.16667   0.21540   0.00000  Uiso   1.00
O150   O     0.67385   0.12172   0.07950   0.00000  Uiso   1.00
C151   C     0.16663   0.42075   0.16678   0.00000  Uiso   1.00
C152   C     0.18110   0.35450   0.20855   0.00000  Uiso   1.00
C153   C     0.16673   0.62388   0.16650   0.00000  Uiso   1.00
C154   C     0.16660   0.37612   0.16683   0.00000  Uiso   1.00
C155   C     0.13333   0.47535   0.02190   0.00000  Uiso   1.00
C156   C     0.20000   0.52465   0.31143   0.00000  Uiso   1.00
C157   C     0.13307   0.47518   0.30585   0.00000  Uiso   1.00
C158   C     0.20027   0.52482   0.02749   0.00000  Uiso   1.00
C159   C     0.32677   0.45722   0.11864   0.00000  Uiso   1.00
C160   C     0.00657   0.54278   0.21470   0.00000  Uiso   1.00
C161   C     0.09571   0.44739   0.27935   0.00000  Uiso   1.00
C162   C     0.16671   0.57925   0.16655   0.00000  Uiso   1.00
C163   C     0.23762   0.55261   0.05398   0.00000  Uiso   1.00
C164   C     0.06825   0.49862   0.15513   0.00000  Uiso   1.00
C165   C     0.26508   0.50138   0.17820   0.00000  Uiso   1.00
C166   C     0.01379   0.49116   0.15098   0.00000  Uiso   1.00
C167   C     0.31954   0.50884   0.18235   0.00000  Uiso   1.00
C168   C     0.15229   0.35484   0.12491   0.00000  Uiso   1.00
C169   C     0.18105   0.64516   0.20842   0.00000  Uiso   1.00
C170   C     0.15224   0.64550   0.12478   0.00000  Uiso   1.00
Cu171  Cu    0.16667   0.50001   0.21355   0.00000  Uiso   1.00
Cu172  Cu    0.16667   0.49999   0.11978   0.00000  Uiso   1.00
H173   H     0.14065   0.37112   0.09237   0.00000  Uiso   1.00
H174   H     0.25340   0.60956   0.07997   0.00000  Uiso   1.00
H175   H     0.19268   0.62888   0.24096   0.00000  Uiso   1.00
H176   H     0.14035   0.62950   0.09225   0.00000  Uiso   1.00
H177   H     0.19298   0.37050   0.24108   0.00000  Uiso   1.00
H178   H     0.10683   0.45557   0.03836   0.00000  Uiso   1.00
H179   H     0.22651   0.54443   0.29497   0.00000  Uiso   1.00
H180   H     0.28248   0.40571   0.10864   0.00000  Uiso   1.00
H181   H     0.05085   0.59429   0.22470   0.00000  Uiso   1.00
H182   H     0.07993   0.39044   0.25337   0.00000  Uiso   1.00
N183   N     0.16668   0.50001   0.28403   0.00000  Uiso   1.00
N184   N     0.16665   0.49999   0.04931   0.00000  Uiso   1.00
O185   O     0.16666   0.43989   0.20625   0.00000  Uiso   1.00
O186   O     0.29341   0.42702   0.13363   0.00000  Uiso   1.00
O187   O     0.32615   0.54495   0.25384   0.00000  Uiso   1.00
O188   O     0.03993   0.57298   0.19970   0.00000  Uiso   1.00
O189   O     0.05172   0.45860   0.26852   0.00000  Uiso   1.00
O190   O     0.10919   0.40693   0.27092   0.00000  Uiso   1.00
O191   O     0.28162   0.54140   0.06481   0.00000  Uiso   1.00
O192   O     0.22414   0.59307   0.06241   0.00000  Uiso   1.00
O193   O     0.16667   0.56011   0.12709   0.00000  Uiso   1.00
O194   O     0.16666   0.43988   0.12706   0.00000  Uiso   1.00
O195   O     0.16667   0.56012   0.20628   0.00000  Uiso   1.00
O196   O     0.09161   0.50000   0.19712   0.00000  Uiso   1.00
O197   O     0.24172   0.50000   0.13621   0.00000  Uiso   1.00
O198   O     0.09161   0.49999   0.11793   0.00000  Uiso   1.00
O199   O     0.24172   0.50001   0.21540   0.00000  Uiso   1.00
O200   O     0.00719   0.45505   0.07950   0.00000  Uiso   1.00
C201   C     0.49996   0.42075   0.16678   0.00000  Uiso   1.00
C202   C     0.51443   0.35450   0.20855   0.00000  Uiso   1.00
C203   C     0.50006   0.62388   0.16650   0.00000  Uiso   1.00
C204   C     0.49994   0.37612   0.16683   0.00000  Uiso   1.00
C205   C     0.46666   0.47535   0.02190   0.00000  Uiso   1.00
C206   C     0.53334   0.52465   0.31143   0.00000  Uiso   1.00
C207   C     0.46640   0.47518   0.30585   0.00000  Uiso   1.00
C208   C     0.53360   0.52482   0.02749   0.00000  Uiso   1.00
C209   C     0.66010   0.45722   0.11864   0.00000  Uiso   1.00
C210   C     0.33990   0.54278   0.21470   0.00000  Uiso   1.00
C211   C     0.42904   0.44739   0.27935   0.00000  Uiso   1.00
C212   C     0.50004   0.57925   0.16655   0.00000  Uiso   1.00
C213   C     0.57096   0.55261   0.05398   0.00000  Uiso   1.00
C214   C     0.40158   0.49862   0.15513   0.00000  Uiso   1.00
C215   C     0.59842   0.50138   0.17820   0.00000  Uiso   1.00
C216   C     0.34713   0.49116   0.15098   0.00000  Uiso   1.00
C217   C     0.65287   0.50884   0.18235   0.00000  Uiso   1.00
C218   C     0.48562   0.35484   0.12491   0.00000  Uiso   1.00
C219   C     0.51438   0.64516   0.20842   0.00000  Uiso   1.00
C220   C     0.48557   0.64550   0.12478   0.00000  Uiso   1.00
Cu221  Cu    0.50000   0.50001   0.21355   0.00000  Uiso   1.00
Cu222  Cu    0.50000   0.49999   0.11978   0.00000  Uiso   1.00
H223   H     0.47399   0.37112   0.09237   0.00000  Uiso   1.00
H224   H     0.58674   0.60956   0.07997   0.00000  Uiso   1.00
H225   H     0.52601   0.62888   0.24096   0.00000  Uiso   1.00
H226   H     0.47369   0.62950   0.09225   0.00000  Uiso   1.00
H227   H     0.52631   0.37050   0.24108   0.00000  Uiso   1.00
H228   H     0.44016   0.45557   0.03836   0.00000  Uiso   1.00
H229   H     0.55984   0.54443   0.29497   0.00000  Uiso   1.00
H230   H     0.61582   0.40571   0.10864   0.00000  Uiso   1.00
H231   H     0.38418   0.59429   0.22470   0.00000  Uiso   1.00
H232   H     0.41326   0.39044   0.25337   0.00000  Uiso   1.00
N233   N     0.50001   0.50001   0.28403   0.00000  Uiso   1.00
N234   N     0.49999   0.49999   0.04931   0.00000  Uiso   1.00
O235   O     0.50000   0.43989   0.20625   0.00000  Uiso   1.00
O236   O     0.62674   0.42702   0.13363   0.00000  Uiso   1.00
O237   O     0.65948   0.54495   0.25384   0.00000  Uiso   1.00
O238   O     0.37326   0.57298   0.19970   0.00000  Uiso   1.00
O239   O     0.38505   0.45860   0.26852   0.00000  Uiso   1.00
O240   O     0.44253   0.40693   0.27092   0.00000  Uiso   1.00
O241   O     0.61495   0.54140   0.06481   0.00000  Uiso   1.00
O242   O     0.55747   0.59307   0.06241   0.00000  Uiso   1.00
O243   O     0.50000   0.56011   0.12709   0.00000  Uiso   1.00
O244   O     0.50000   0.43988   0.12706   0.00000  Uiso   1.00
O245   O     0.50000   0.56012   0.20628   0.00000  Uiso   1.00
O246   O     0.42495   0.50000   0.19712   0.00000  Uiso   1.00
O247   O     0.57505   0.50000   0.13621   0.00000  Uiso   1.00
O248   O     0.42494   0.49999   0.11793   0.00000  Uiso   1.00
O249   O     0.57506   0.50001   0.21540   0.00000  Uiso   1.00
O250   O     0.34052   0.45505   0.07950   0.00000  Uiso   1.00
C251   C     0.83329   0.42075   0.16678   0.00000  Uiso   1.00
C252   C     0.84776   0.35450   0.20855   0.00000  Uiso   1.00
C253   C     0.83340   0.62388   0.16650   0.00000  Uiso   1.00
C254   C     0.83327   0.37612   0.16683   0.00000  Uiso   1.00
C255   C     0.80000   0.47535   0.02190   0.00000  Uiso   1.00
C256   C     0.86667   0.52465   0.31143   0.00000  Uiso   1.00
C257   C     0.79973   0.47518   0.30585   0.00000  Uiso   1.00
C258   C     0.86693   0.52482   0.02749   0.00000  Uiso   1.00
C259   C     0.99343   0.45722   0.11864   0.00000  Uiso   1.00
C260   C     0.67323   0.54278   0.21470   0.00000  Uiso   1.00
C261   C     0.76238   0.44739   0.27935   0.00000  Uiso   1.00
C262   C     0.83337   0.57925   0.16655   0.00000  Uiso   1.00
C263   C     0.90429   0.55261   0.05398   0.00000  Uiso   1.00
C264   C     0.73492   0.49862   0.15513   0.00000  Uiso   1.00
C265   C     0.93175   0.50138   0.17820   0.00000  Uiso   1.00
C266   C     0.68046   0.49116   0.15098   0.00000  Uiso   1.00
C267   C     0.98621   0.50884   0.18235   0.00000  Uiso   1.00
C268   C     0.81895   0.35484   0.12491   0.00000  Uiso   1.00
C269   C     0.84771   0.64516   0.20842   0.00000  Uiso   1.00
C270   C     0.81890   0.64550   0.12478   0.00000  Uiso   1.00
Cu271  Cu    0.83333   0.50001   0.21355   0.00000  Uiso   1.00
Cu272  Cu    0.83333   0.49999   0.11978   0.00000  Uiso   1.00
H273   H     0.80732   0.37112   0.09237   0.00000  Uiso   1.00
H274   H     0.92007   0.60956   0.07997   0.00000  Uiso   1.00
H275   H     0.85935   0.62888   0.24096   0.00000  Uiso   1.00
H276   H     0.80702   0.62950   0.09225   0.00000  Uiso   1.00
H277   H     0.85965   0.37050   0.24108   0.00000  Uiso   1.00
H278   H     0.77349   0.45557   0.03836   0.00000  Uiso   1.00
H279   H     0.89317   0.54443   0.29497   0.00000  Uiso   1.00
H280   H     0.94915   0.40571   0.10864   0.00000  Uiso   1.00
H281   H     0.71752   0.59429   0.22470   0.00000  Uiso   1.00
H282   H     0.74660   0.39044   0.25337   0.00000  Uiso   1.00
N283   N     0.83335   0.50001   0.28403   0.00000  Uiso   1.00
N284   N     0.83332   0.49999   0.04931   0.00000  Uiso   1.00
O285   O     0.83333   0.43989   0.20625   0.00000  Uiso   1.00
O286   O     0.96008   0.42702   0.13363   0.00000  Uiso   1.00
O287   O     0.99281   0.54495   0.25384   0.00000  Uiso   1.00
O288   O     0.70659   0.57298   0.19970   0.00000  Uiso   1.00
O289   O     0.71838   0.45860   0.26852   0.00000  Uiso   1.00
O290   O     0.77586   0.40693   0.27092   0.00000  Uiso   1.00
O291   O     0.94828   0.54140   0.06481   0.00000  Uiso   1.00
O292   O     0.89081   0.59307   0.06241   0.00000  Uiso   1.00
O293   O     0.83334   0.56011   0.12709   0.00000  Uiso   1.00
O294   O     0.83333   0.43988   0.12706   0.00000  Uiso   1.00
O295   O     0.83334   0.56012   0.20628   0.00000  Uiso   1.00
O296   O     0.75828   0.50000   0.19712   0.00000  Uiso   1.00
O297   O     0.90839   0.50000   0.13621   0.00000  Uiso   1.00
O298   O     0.75828   0.49999   0.11793   0.00000  Uiso   1.00
O299   O     0.90839   0.50001   0.21540   0.00000  Uiso   1.00
O300   O     0.67385   0.45505   0.07950   0.00000  Uiso   1.00
C301   C     0.16663   0.75409   0.16678   0.00000  Uiso   1.00
C302   C     0.18110   0.68783   0.20855   0.00000  Uiso   1.00
C303   C     0.16673   0.95722   0.16650   0.00000  Uiso   1.00
C304   C     0.16660   0.70945   0.16683   0.00000  Uiso   1.00
C305   C     0.13333   0.80868   0.02190   0.00000  Uiso   1.00
C306   C     0.20000   0.85799   0.31143   0.00000  Uiso   1.00
C307   C     0.13307   0.80851   0.30585   0.00000  Uiso   1.00
C308   C     0.20027   0.85815   0.02749   0.00000  Uiso   1.00
C309   C     0.32677   0.79056   0.11864   0.00000  Uiso   1.00
C310   C     0.00657   0.87611   0.21470   0.00000  Uiso   1.00
C311   C     0.09571   0.78072   0.27935   0.00000  Uiso   1.00
C312   C     0.16671   0.91258   0.16655   0.00000  Uiso   1.00
C313   C     0.23762   0.88595   0.05398   0.00000  Uiso   1.00
C314   C     0.06825   0.83196   0.15513   0.00000  Uiso   1.00
C315   C     0.26508   0.83471   0.17820   0.00000  Uiso   1.00
C316   C     0.01379   0.82450   0.15098   0.00000  Uiso   1.00
C317   C     0.31954   0.84217   0.18235   0.00000  Uiso   1.00
C318   C     0.15229   0.68818   0.12491   0.00000  Uiso   1.00
C319   C     0.18105   0.97849   0.20842   0.00000  Uiso   1.00
C320   C     0.15224   0.97884   0.12478   0.00000  Uiso   1.00
Cu321  Cu    0.16667   0.83334   0.21355   0.00000  Uiso   1.00
Cu322  Cu    0.16667   0.83333   0.11978   0.00000  Uiso   1.00
H323   H     0.14065   0.70445   0.09237   0.00000  Uiso   1.00
H324   H     0.25340   0.94289   0.07997   0.00000  Uiso   1.00
H325   H     0.19268   0.96222   0.24096   0.00000  Uiso   1.00
H326   H     0.14035   0.96283   0.09225   0.00000  Uiso   1.00
H327   H     0.19298   0.70383   0.24108   0.00000  Uiso   1.00
H328   H     0.10683   0.78891   0.03836   0.00000  Uiso   1.00
H329   H     0.22651   0.87776   0.29497   0.00000  Uiso   1.00
H330   H     0.28248   0.73904   0.10864   0.00000  Uiso   1.00
H331   H     0.05085   0.92763   0.22470   0.00000  Uiso   1.00
H332   H     0.07993   0.72377   0.25337   0.00000  Uiso   1.00
N333   N     0.16668   0.83334   0.28403   0.00000  Uiso   1.00
N334   N     0.16665   0.83332   0.04931   0.00000  Uiso   1.00
O335   O     0.16666   0.77322   0.20625   0.00000  Uiso   1.00
O336   O     0.29341   0.76036   0.13363   0.00000  Uiso   1.00
O337   O     0.32615   0.87828   0.25384   0.00000  Uiso   1.00
O338   O     0.03993   0.90631   0.19970   0.00000  Uiso   1.00
O339   O     0.05172   0.79194   0.26852   0.00000  Uiso   1.00
O340   O     0.10919   0.74027   0.27092   0.00000  Uiso   1.00
O341   O     0.28162   0.87473   0.06481   0.00000  Uiso   1.00
O342   O     0.22414   0.92640   0.06241   0.00000  Uiso   1.00
O343   O     0.16667   0.89345   0.12709   0.00000  Uiso   1.00
O344   O     0.16666   0.77321   0.12706   0.00000  Uiso   1.00
O345   O     0.16667   0.89346   0.20628   0.00000  Uiso   1.00
O346   O     0.09161   0.83334   0.19712   0.00000  Uiso   1.00
O347   O     0.24172   0.83333   0.13621   0.00000  Uiso   1.00
O348   O     0.09161   0.83333   0.11793   0.00000  Uiso   1.00
O349   O     0.24172   0.83334   0.21540   0.00000  Uiso   1.00
O350   O     0.00719   0.78839   0.07950   0.00000  Uiso   1.00
C351   C     0.49996   0.75409   0.16678   0.00000  Uiso   1.00
C352   C     0.51443   0.68783   0.20855   0.00000  Uiso   1.00
C353   C     0.50006   0.95722   0.16650   0.00000  Uiso   1.00
C354   C     0.49994   0.70945   0.16683   0.00000  Uiso   1.00
C355   C     0.46666   0.80868   0.02190   0.00000  Uiso   1.00
C356   C     0.53334   0.85799   0.31143   0.00000  Uiso   1.00
C357   C     0.46640   0.80851   0.30585   0.00000  Uiso   1.00
C358   C     0.53360   0.85815   0.02749   0.00000  Uiso   1.00
C359   C     0.66010   0.79056   0.11864   0.00000  Uiso   1.00
C360   C     0.33990   0.87611   0.21470   0.00000  Uiso   1.00
C361   C     0.42904   0.78072   0.27935   0.00000  Uiso   1.00
C362   C     0.50004   0.91258   0.16655   0.00000  Uiso   1.00
C363   C     0.57096   0.88595   0.05398   0.00000  Uiso   1.00
C364   C     0.40158   0.83196   0.15513   0.00000  Uiso   1.00
C365   C     0.59842   0.83471   0.17820   0.00000  Uiso   1.00
C366   C     0.34713   0.82450   0.15098   0.00000  Uiso   1.00
C367   C     0.65287   0.84217   0.18235   0.00000  Uiso   1.00
C368   C     0.48562   0.68818   0.12491   0.00000  Uiso   1.00
C369   C     0.51438   0.97849   0.20842   0.00000  Uiso   1.00
C370   C     0.48557   0.97884   0.12478   0.00000  Uiso   1.00
Cu371  Cu    0.50000   0.83334   0.21355   0.00000  Uiso   1.00
Cu372  Cu    0.50000   0.83333   0.11978   0.00000  Uiso   1.00
H373   H     0.47399   0.70445   0.09237   0.00000  Uiso   1.00
H374   H     0.58674   0.94289   0.07997   0.00000  Uiso   1.00
H375   H     0.52601   0.96222   0.24096   0.00000  Uiso   1.00
H376   H     0.47369   0.96283   0.09225   0.00000  Uiso   1.00
H377   H     0.52631   0.70383   0.24108   0.00000  Uiso   1.00
H378   H     0.44016   0.78891   0.03836   0.00000  Uiso   1.00
H379   H     0.55984   0.87776   0.29497   0.00000  Uiso   1.00
H380   H     0.61582   0.73904   0.10864   0.00000  Uiso   1.00
H381   H     0.38418   0.92763   0.22470   0.00000  Uiso   1.00
H382   H     0.41326   0.72377   0.25337   0.00000  Uiso   1.00
N383   N     0.50001   0.83334   0.28403   0.00000  Uiso   1.00
N384   N     0.49999   0.83332   0.04931   0.00000  Uiso   1.00
O385   O     0.50000   0.77322   0.20625   0.00000  Uiso   1.00
O386   O     0.62674   0.76036   0.13363   0.00000  Uiso   1.00
O387   O     0.65948   0.87828   0.25384   0.00000  Uiso   1.00
O388   O     0.37326   0.90631   0.19970   0.00000  Uiso   1.00
O389   O     0.38505   0.79194   0.26852   0.00000  Uiso   1.00
O390   O     0.44253   0.74027   0.27092   0.00000  Uiso   1.00
O391   O     0.61495   0.87473   0.06481   0.00000  Uiso   1.00
O392   O     0.55747   0.92640   0.06241   0.00000  Uiso   1.00
O393   O     0.50000   0.89345   0.12709   0.00000  Uiso   1.00
O394   O     0.50000   0.77321   0.12706   0.00000  Uiso   1.00
O395   O     0.50000   0.89346   0.20628   0.00000  Uiso   1.00
O396   O     0.42495   0.83334   0.19712   0.00000  Uiso   1.00
O397   O     0.57505   0.83333   0.13621   0.00000  Uiso   1.00
O398   O     0.42494   0.83333   0.11793   0.00000  Uiso   1.00
O399   O     0.57506   0.83334   0.21540   0.00000  Uiso   1.00
O400   O     0.34052   0.78839   0.07950   0.00000  Uiso   1.00
C401   C     0.83329   0.75409   0.16678   0.00000  Uiso   1.00
C402   C     0.84776   0.68783   0.20855   0.00000  Uiso   1.00
C403   C     0.83340   0.95722   0.16650   0.00000  Uiso   1.00
C404   C     0.83327   0.70945   0.16683   0.00000  Uiso   1.00
C405   C     0.80000   0.80868   0.02190   0.00000  Uiso   1.00
C406   C     0.86667   0.85799   0.31143   0.00000  Uiso   1.00
C407   C     0.79973   0.80851   0.30585   0.00000  Uiso   1.00
C408   C     0.86693   0.85815   0.02749   0.00000  Uiso   1.00
C409   C     0.99343   0.79056   0.11864   0.00000  Uiso   1.00
C410   C     0.67323   0.87611   0.21470   0.00000  Uiso   1.00
C411   C     0.76238   0.78072   0.27935   0.00000  Uiso   1.00
C412   C     0.83337   0.91258   0.16655   0.00000  Uiso   1.00
C413   C     0.90429   0.88595   0.05398   0.00000  Uiso   1.00
C414   C     0.73492   0.83196   0.15513   0.00000  Uiso   1.00
C415   C     0.93175   0.83471   0.17820   0.00000  Uiso   1.00
C416   C     0.68046   0.82450   0.15098   0.00000  Uiso   1.00
C417   C     0.98621   0.84217   0.18235   0.00000  Uiso   1.00
C418   C     0.81895   0.68818   0.12491   0.00000  Uiso   1.00
C419   C     0.84771   0.97849   0.20842   0.00000  Uiso   1.00
C420   C     0.81890   0.97884   0.12478   0.00000  Uiso   1.00
Cu421  Cu    0.83333   0.83334   0.21355   0.00000  Uiso   1.00
Cu422  Cu    0.83333   0.83333   0.11978   0.00000  Uiso   1.00
H423   H     0.80732   0.70445   0.09237   0.00000  Uiso   1.00
H424   H     0.92007   0.94289   0.07997   0.00000  Uiso   1.00
H425   H     0.85935   0.96222   0.24096   0.00000  Uiso   1.00
H426   H     0.80702   0.96283   0.09225   0.00000  Uiso   1.00
H427   H     0.85965   0.70383   0.24108   0.00000  Uiso   1.00
H428   H     0.77349   0.78891   0.03836   0.00000  Uiso   1.00
H429   H     0.89317   0.87776   0.29497   0.00000  Uiso   1.00
H430   H     0.94915   0.73904   0.10864   0.00000  Uiso   1.00
H431   H     0.71752   0.92763   0.22470   0.00000  Uiso   1.00
H432   H     0.74660   0.72377   0.25337   0.00000  Uiso   1.00
N433   N     0.83335   0.83334   0.28403   0.00000  Uiso   1.00
N434   N     0.83332   0.83332   0.04931   0.00000  Uiso   1.00
O435   O     0.83333   0.77322   0.20625   0.00000  Uiso   1.00
O436   O     0.96008   0.76036   0.13363   0.00000  Uiso   1.00
O437   O     0.99281   0.87828   0.25384   0.00000  Uiso   1.00
O438   O     0.70659   0.90631   0.19970   0.00000  Uiso   1.00
O439   O     0.71838   0.79194   0.26852   0.00000  Uiso   1.00
O440   O     0.77586   0.74027   0.27092   0.00000  Uiso   1.00
O441   O     0.94828   0.87473   0.06481   0.00000  Uiso   1.00
O442   O     0.89081   0.92640   0.06241   0.00000  Uiso   1.00
O443   O     0.83334   0.89345   0.12709   0.00000  Uiso   1.00
O444   O     0.83333   0.77321   0.12706   0.00000  Uiso   1.00
O445   O     0.83334   0.89346   0.20628   0.00000  Uiso   1.00
O446   O     0.75828   0.83334   0.19712   0.00000  Uiso   1.00
O447   O     0.90839   0.83333   0.13621   0.00000  Uiso   1.00
O448   O     0.75828   0.83333   0.11793   0.00000  Uiso   1.00
O449   O     0.90839   0.83334   0.21540   0.00000  Uiso   1.00
O450   O     0.67385   0.78839   0.07950   0.00000  Uiso   1.00
C451   C     0.16663   0.08742   0.50011   0.00000  Uiso   1.00
C452   C     0.18110   0.02116   0.54188   0.00000  Uiso   1.00
C453   C     0.16673   0.29055   0.49984   0.00000  Uiso   1.00
C454   C     0.16660   0.04278   0.50016   0.00000  Uiso   1.00
C455   C     0.13333   0.14201   0.35524   0.00000  Uiso   1.00
C456   C     0.20000   0.19132   0.64476   0.00000  Uiso   1.00
C457   C     0.13307   0.14185   0.63918   0.00000  Uiso   1.00
C458   C     0.20027   0.19149   0.36082   0.00000  Uiso   1.00
C459   C     0.32677   0.12389   0.45197   0.00000  Uiso   1.00
C460   C     0.00657   0.20944   0.54803   0.00000  Uiso   1.00
C461   C     0.09571   0.11405   0.61269   0.00000  Uiso   1.00
C462   C     0.16671   0.24591   0.49988   0.00000  Uiso   1.00
C463   C     0.23762   0.21928   0.38731   0.00000  Uiso   1.00
C464   C     0.06825   0.16529   0.48847   0.00000  Uiso   1.00
C465   C     0.26508   0.16804   0.51153   0.00000  Uiso   1.00
C466   C     0.01379   0.15783   0.48431   0.00000  Uiso   1.00
C467   C     0.31954   0.17550   0.51569   0.00000  Uiso   1.00
C468   C     0.15229   0.02151   0.45825   0.00000  Uiso   1.00
C469   C     0.18105   0.31182   0.54175   0.00000  Uiso   1.00
C470   C     0.15224   0.31217   0.45812   0.00000  Uiso   1.00
Cu471  Cu    0.16667   0.16667   0.54689   0.00000  Uiso   1.00
Cu472  Cu    0.16667   0.16666   0.45311   0.00000  Uiso   1.00
H473   H     0.14065   0.03778   0.42571   0.00000  Uiso   1.00
H474   H     0.25340   0.27623   0.41330   0.00000  Uiso   1.00
H475   H     0.19268   0.29555   0.57429   0.00000  Uiso   1.00
H476   H     0.14035   0.29617   0.42558   0.00000  Uiso   1.00
H477   H     0.19298   0.03717   0.57442   0.00000  Uiso   1.00
H478   H     0.10683   0.12224   0.37170   0.00000  Uiso   1.00
H479   H     0.22651   0.21109   0.62830   0.00000  Uiso   1.00
H480   H     0.28248   0.07237   0.44197   0.00000  Uiso   1.00
H481   H     0.05085   0.26096   0.55803   0.00000  Uiso   1.00
H482   H     0.07993   0.05711   0.58670   0.00000  Uiso   1.00
N483   N     0.16668   0.16668   0.61736   0.00000  Uiso   1.00
N484   N     0.16665   0.16666   0.38264   0.00000  Uiso   1.00
O485   O     0.16666   0.10655   0.53958   0.00000  Uiso   1.00
O486   O     0.29341   0.09369   0.46696   0.00000  Uiso   1.00
O487   O     0.32615   0.21161   0.58717   0.00000  Uiso   1.00
O488   O     0.03993   0.23964   0.53304   0.00000  Uiso   1.00
O489   O     0.05172   0.12527   0.60185   0.00000  Uiso   1.00
O490   O     0.10919   0.07360   0.60425   0.00000  Uiso   1.00
O491   O     0.28162   0.20806   0.39814   0.00000  Uiso   1.00
O492   O     0.22414   0.25973   0.39575   0.00000  Uiso   1.00
O493   O     0.16667   0.22678   0.46042   0.00000  Uiso   1.00
O494   O     0.16666   0.10654   0.46039   0.00000  Uiso   1.00
O495   O     0.16667   0.22679   0.53961   0.00000  Uiso   1.00
O496   O     0.09161   0.16667   0.53046   0.00000  Uiso   1.00
O497   O     0.24172   0.16666   0.46954   0.00000  Uiso   1.00
O498   O     0.09161   0.16666   0.45127   0.00000  Uiso   1.00
O499   O     0.24172   0.16667   0.54873   0.00000  Uiso   1.00
O500   O     0.00719   0.12172   0.41283   0.00000  Uiso   1.00
C501   C     0.49996   0.08742   0.50011   0.00000  Uiso   1.00
C502   C     0.51443   0.02116   0.54188   0.00000  Uiso   1.00
C503   C     0.50006   0.29055   0.49984   0.00000  Uiso   1.00
C504   C     0.49994   0.04278   0.50016   0.00000  Uiso   1.00
C505   C     0.46666   0.14201   0.35524   0.00000  Uiso   1.00
C506   C     0.53334   0.19132   0.64476   0.00000  Uiso   1.00
C507   C     0.46640   0.14185   0.63918   0.00000  Uiso   1.00
C508   C     0.53360   0.19149   0.36082   0.00000  Uiso   1.00
C509   C     0.66010   0.12389   0.45197   0.00000  Uiso   1.00
C510   C     0.33990   0.20944   0.54803   0.00000  Uiso   1.00
C511   C     0.42904   0.11405   0.61269   0.00000  Uiso   1.00
C512   C     0.50004   0.24591   0.49988   0.00000  Uiso   1.00
C513   C     0.57096   0.21928   0.38731   0.00000  Uiso   1.00
C514   C     0.40158   0.16529   0.48847   0.00000  Uiso   1.00
C515   C     0.59842   0.16804   0.51153   0.00000  Uiso   1.00
C516   C     0.34713   0.15783   0.48431   0.00000  Uiso   1.00
C517   C     0.65287   0.17550   0.51569   0.00000  Uiso   1.00
C518   C     0.48562   0.02151   0.45825   0.00000  Uiso   1.00
C519   C     0.51438   0.31182   0.54175   0.00000  Uiso   1.00
C520   C     0.48557   0.31217   0.45812   0.00000  Uiso   1.00
Cu521  Cu    0.50000   0.16667   0.54689   0.00000  Uiso   1.00
Cu522  Cu    0.50000   0.16666   0.45311   0.00000  Uiso   1.00
H523   H     0.47399   0.03778   0.42571   0.00000  Uiso   1.00
H524   H     0.58674   0.27623   0.41330   0.00000  Uiso   1.00
H525   H     0.52601   0.29555   0.57429   0.00000  Uiso   1.00
H526   H     0.47369   0.29617   0.42558   0.00000  Uiso   1.00
H527   H     0.52631   0.03717   0.57442   0.00000  Uiso   1.00
H528   H     0.44016   0.12224   0.37170   0.00000  Uiso   1.00
H529   H     0.55984   0.21109   0.62830   0.00000  Uiso   1.00
H530   H     0.61582   0.07237   0.44197   0.00000  Uiso   1.00
H531   H     0.38418   0.26096   0.55803   0.00000  Uiso   1.00
H532   H     0.41326   0.05711   0.58670   0.00000  Uiso   1.00
N533   N     0.50001   0.16668   0.61736   0.00000  Uiso   1.00
N534   N     0.49999   0.16666   0.38264   0.00000  Uiso   1.00
O535   O     0.50000   0.10655   0.53958   0.00000  Uiso   1.00
O536   O     0.62674   0.09369   0.46696   0.00000  Uiso   1.00
O537   O     0.65948   0.21161   0.58717   0.00000  Uiso   1.00
O538   O     0.37326   0.23964   0.53304   0.00000  Uiso   1.00
O539   O     0.38505   0.12527   0.60185   0.00000  Uiso   1.00
O540   O     0.44253   0.07360   0.60425   0.00000  Uiso   1.00
O541   O     0.61495   0.20806   0.39814   0.00000  Uiso   1.00
O542   O     0.55747   0.25973   0.39575   0.00000  Uiso   1.00
O543   O     0.50000   0.22678   0.46042   0.00000  Uiso   1.00
O544   O     0.50000   0.10654   0.46039   0.00000  Uiso   1.00
O545   O     0.50000   0.22679   0.53961   0.00000  Uiso   1.00
O546   O     0.42495   0.16667   0.53046   0.00000  Uiso   1.00
O547   O     0.57505   0.16666   0.46954   0.00000  Uiso   1.00
O548   O     0.42494   0.16666   0.45127   0.00000  Uiso   1.00
O549   O     0.57506   0.16667   0.54873   0.00000  Uiso   1.00
O550   O     0.34052   0.12172   0.41283   0.00000  Uiso   1.00
C551   C     0.83329   0.08742   0.50011   0.00000  Uiso   1.00
C552   C     0.84776   0.02116   0.54188   0.00000  Uiso   1.00
C553   C     0.83340   0.29055   0.49984   0.00000  Uiso   1.00
C554   C     0.83327   0.04278   0.50016   0.00000  Uiso   1.00
C555   C     0.80000   0.14201   0.35524   0.00000  Uiso   1.00
C556   C     0.86667   0.19132   0.64476   0.00000  Uiso   1.00
C557   C     0.79973   0.14185   0.63918   0.00000  Uiso   1.00
C558   C     0.86693   0.19149   0.36082   0.00000  Uiso   1.00
C559   C     0.99343   0.12389   0.45197   0.00000  Uiso   1.00
C560   C     0.67323   0.20944   0.54803   0.00000  Uiso   1.00
C561   C     0.76238   0.11405   0.61269   0.00000  Uiso   1.00
C562   C     0.83337   0.24591   0.49988   0.00000  Uiso   1.00
C563   C     0.90429   0.21928   0.38731   0.00000  Uiso   1.00
C564   C     0.73492   0.16529   0.48847   0.00000  Uiso   1.00
C565   C     0.93175   0.16804   0.51153   0.00000  Uiso   1.00
C566   C     0.68046   0.15783   0.48431   0.00000  Uiso   1.00
C567   C     0.98621   0.17550   0.51569   0.00000  Uiso   1.00
C568   C     0.81895   0.02151   0.45825   0.00000  Uiso   1.00
C569   C     0.84771   0.31182   0.54175   0.00000  Uiso   1.00
C570   C     0.81890   0.31217   0.45812   0.00000  Uiso   1.00
Cu571  Cu    0.83333   0.16667   0.54689   0.00000  Uiso   1.00
Cu572  Cu    0.83333   0.16666   0.45311   0.00000  Uiso   1.00
H573   H     0.80732   0.03778   0.42571   0.00000  Uiso   1.00
H574   H     0.92007   0.27623   0.41330   0.00000  Uiso   1.00
H575   H     0.85935   0.29555   0.57429   0.00000  Uiso   1.00
H576   H     0.80702   0.29617   0.42558   0.00000  Uiso   1.00
H577   H     0.85965   0.03717   0.57442   0.00000  Uiso   1.00
H578   H     0.77349   0.12224   0.37170   0.00000  Uiso   1.00
H579   H     0.89317   0.21109   0.62830   0.00000  Uiso   1.00
H580   H     0.94915   0.07237   0.44197   0.00000  Uiso   1.00
H581   H     0.71752   0.26096   0.55803   0.00000  Uiso   1.00
H582   H     0.74660   0.05711   0.58670   0.00000  Uiso   1.00
N583   N     0.83335   0.16668   0.61736   0.00000  Uiso   1.00
N584   N     0.83332   0.16666   0.38264   0.00000  Uiso   1.00
O585   O     0.83333   0.10655   0.53958   0.00000  Uiso   1.00
O586   O     0.96008   0.09369   0.46696   0.00000  Uiso   1.00
O587   O     0.99281   0.21161   0.58717   0.00000  Uiso   1.00
O588   O     0.70659   0.23964   0.53304   0.00000  Uiso   1.00
O589   O     0.71838   0.12527   0.60185   0.00000  Uiso   1.00
O590   O     0.77586   0.07360   0.60425   0.00000  Uiso   1.00
O591   O     0.94828   0.20806   0.39814   0.00000  Uiso   1.00
O592   O     0.89081   0.25973   0.39575   0.00000  Uiso   1.00
O593   O     0.83334   0.22678   0.46042   0.00000  Uiso   1.00
O594   O     0.83333   0.10654   0.46039   0.00000  Uiso   1.00
O595   O     0.83334   0.22679   0.53961   0.00000  Uiso   1.00
O596   O     0.75828   0.16667   0.53046   0.00000  Uiso   1.00
O597   O     0.90839   0.16666   0.46954   0.00000  Uiso   1.00
O598   O     0.75828   0.16666   0.45127   0.00000  Uiso   1.00
O599   O     0.90839   0.16667   0.54873   0.00000  Uiso   1.00
O600   O     0.67385   0.12172   0.41283   0.00000  Uiso   1.00
C601   C     0.16663   0.42075   0.50011   0.00000  Uiso   1.00
C602   C     0.18110   0.35450   0.54188   0.00000  Uiso   1.00
C603   C     0.16673   0.62388   0.49984   0.00000  Uiso   1.00
C604   C     0.16660   0.37612   0.50016   0.00000  Uiso   1.00
C605   C     0.13333   0.47535   0.35524   0.00000  Uiso   1.00
C606   C     0.20000   0.52465   0.64476   0.00000  Uiso   1.00
C607   C     0.13307   0.47518   0.63918   0.00000  Uiso   1.00
C608   C     0.20027   0.52482   0.36082   0.00000  Uiso   1.00
C609   C     0.32677   0.45722   0.45197   0.00000  Uiso   1.00
C610   C     0.00657   0.54278   0.54803   0.00000  Uiso   1.00
C611   C     0.09571   0.44739   0.61269   0.00000  Uiso   1.00
C612   C     0.16671   0.57925   0.49988   0.00000  Uiso   1.00
C613   C     0.23762   0.55261   0.38731   0.00000  Uiso   1.00
C614   C     0.06825   0.49862   0.48847   0.00000  Uiso   1.00
C615   C     0.26508   0.50138   0.51153   0.00000  Uiso   1.00
C616   C     0.01379   0.49116   0.48431   0.00000  Uiso   1.00
C617   C     0.31954   0.50884   0.51569   0.00000  Uiso   1.00
C618   C     0.15229   0.35484   0.45825   0.00000  Uiso   1.00
C619   C     0.18105   0.64516   0.54175   0.00000  Uiso   1.00
C620   C     0.15224   0.64550   0.45812   0.00000  Uiso   1.00
Cu621  Cu    0.16667   0.50001   0.54689   0.00000  Uiso   1.00
Cu622  Cu    0.16667   0.49999   0.45311   0.00000  Uiso   1.00
H623   H     0.14065   0.37112   0.42571   0.00000  Uiso   1.00
H624   H     0.25340   0.60956   0.41330   0.00000  Uiso   1.00
H625   H     0.19268   0.62888   0.57429   0.00000  Uiso   1.00
H626   H     0.14035   0.62950   0.42558   0.00000  Uiso   1.00
H627   H     0.19298   0.37050   0.57442   0.00000  Uiso   1.00
H628   H     0.10683   0.45557   0.37170   0.00000  Uiso   1.00
H629   H     0.22651   0.54443   0.62830   0.00000  Uiso   1.00
H630   H     0.28248   0.40571   0.44197   0.00000  Uiso   1.00
H631   H     0.05085   0.59429   0.55803   0.00000  Uiso   1.00
H632   H     0.07993   0.39044   0.58670   0.00000  Uiso   1.00
N633   N     0.16668   0.50001   0.61736   0.00000  Uiso   1.00
N634   N     0.16665   0.49999   0.38264   0.00000  Uiso   1.00
O635   O     0.16666   0.43989   0.53958   0.00000  Uiso   1.00
O636   O     0.29341   0.42702   0.46696   0.00000  Uiso   1.00
O637   O     0.32615   0.54495   0.58717   0.00000  Uiso   1.00
O638   O     0.03993   0.57298   0.53304   0.00000  Uiso   1.00
O639   O     0.05172   0.45860   0.60185   0.00000  Uiso   1.00
O640   O     0.10919   0.40693   0.60425   0.00000  Uiso   1.00
O641   O     0.28162   0.54140   0.39814   0.00000  Uiso   1.00
O642   O     0.22414   0.59307   0.39575   0.00000  Uiso   1.00
O643   O     0.16667   0.56011   0.46042   0.00000  Uiso   1.00
O644   O     0.16666   0.43988   0.46039   0.00000  Uiso   1.00
O645   O     0.16667   0.56012   0.53961   0.00000  Uiso   1.00
O646   O     0.09161   0.50000   0.53046   0.00000  Uiso   1.00
O647   O     0.24172   0.50000   0.46954   0.00000  Uiso   1.00
O648   O     0.09161   0.49999   0.45127   0.00000  Uiso   1.00
O649   O     0.24172   0.50001   0.54873   0.00000  Uiso   1.00
O650   O     0.00719   0.45505   0.41283   0.00000  Uiso   1.00
C651   C     0.49996   0.42075   0.50011   0.00000  Uiso   1.00
C652   C     0.51443   0.35450   0.54188   0.00000  Uiso   1.00
C653   C     0.50006   0.62388   0.49984   0.00000  Uiso   1.00
C654   C     0.49994   0.37612   0.50016   0.00000  Uiso   1.00
C655   C     0.46666   0.47535   0.35524   0.00000  Uiso   1.00
C656   C     0.53334   0.52465   0.64476   0.00000  Uiso   1.00
C657   C     0.46640   0.47518   0.63918   0.00000  Uiso   1.00
C658   C     0.53360   0.52482   0.36082   0.00000  Uiso   1.00
C659   C     0.66010   0.45722   0.45197   0.00000  Uiso   1.00
C660   C     0.33990   0.54278   0.54803   0.00000  Uiso   1.00
C661   C     0.42904   0.44739   0.61269   0.00000  Uiso   1.00
C662   C     0.50004   0.57925   0.49988   0.00000  Uiso   1.00
C663   C     0.57096   0.55261   0.38731   0.00000  Uiso   1.00
C664   C     0.40158   0.49862   0.48847   0.00000  Uiso   1.00
C665   C     0.59842   0.50138   0.51153   0.00000  Uiso   1.00
C666   C     0.34713   0.49116   0.48431   0.00000  Uiso   1.00
C667   C     0.65287   0.50884   0.51569   0.00000  Uiso   1.00
C668   C     0.48562   0.35484   0.45825   0.00000  Uiso   1.00
C669   C     0.51438   0.64516   0.54175   0.00000  Uiso   1.00
C670   C     0.48557   0.64550   0.45812   0.00000  Uiso   1.00
Cu671  Cu    0.50000   0.50001   0.54689   0.00000  Uiso   1.00
Cu672  Cu    0.50000   0.49999   0.45311   0.00000  Uiso   1.00
H673   H     0.47399   0.37112   0.42571   0.00000  Uiso   1.00
H674   H     0.58674   0.60956   0.41330   0.00000  Uiso   1.00
H675   H     0.52601   0.62888   0.57429   0.00000  Uiso   1.00
H676   H     0.47369   0.62950   0.42558   0.00000  Uiso   1.00
H677   H     0.52631   0.37050   0.57442   0.00000  Uiso   1.00
H678   H     0.44016   0.45557   0.37170   0.00000  Uiso   1.00
H679   H     0.55984   0.54443   0.62830   0.00000  Uiso   1.00
H680   H     0.61582   0.40571   0.44197   0.00000  Uiso   1.00
H681   H     0.38418   0.59429   0.55803   0.00000  Uiso   1.00
H682   H     0.41326   0.39044   0.58670   0.00000  Uiso   1.00
N683   N     0.50001   0.50001   0.61736   0.00000  Uiso   1.00
N684   N     0.49999   0.49999   0.38264   0.00000  Uiso   1.00
O685   O     0.50000   0.43989   0.53958   0.00000  Uiso   1.00
O686   O     0.62674   0.42702   0.46696   0.00000  Uiso   1.00
O687   O     0.65948   0.54495   0.58717   0.00000  Uiso   1.00
O688   O     0.37326   0.57298   0.53304   0.00000  Uiso   1.00
O689   O     0.38505   0.45860   0.60185   0.00000  Uiso   1.00
O690   O     0.44253   0.40693   0.60425   0.00000  Uiso   1.00
O691   O     0.61495   0.54140   0.39814   0.00000  Uiso   1.00
O692   O     0.55747   0.59307   0.39575   0.00000  Uiso   1.00
O693   O     0.50000   0.56011   0.46042   0.00000  Uiso   1.00
O694   O     0.50000   0.43988   0.46039   0.00000  Uiso   1.00
O695   O     0.50000   0.56012   0.53961   0.00000  Uiso   1.00
O696   O     0.42495   0.50000   0.53046   0.00000  Uiso   1.00
O697   O     0.57505   0.50000   0.46954   0.00000  Uiso   1.00
O698   O     0.42494   0.49999   0.45127   0.00000  Uiso   1.00
O699   O     0.57506   0.50001   0.54873   0.00000  Uiso   1.00
O700   O     0.34052   0.45505   0.41283   0.00000  Uiso   1.00
C701   C     0.83329   0.42075   0.50011   0.00000  Uiso   1.00
C702   C     0.84776   0.35450   0.54188   0.00000  Uiso   1.00
C703   C     0.83340   0.62388   0.49984   0.00000  Uiso   1.00
C704   C     0.83327   0.37612   0.50016   0.00000  Uiso   1.00
C705   C     0.80000   0.47535   0.35524   0.00000  Uiso   1.00
C706   C     0.86667   0.52465   0.64476   0.00000  Uiso   1.00
C707   C     0.79973   0.47518   0.63918   0.00000  Uiso   1.00
C708   C     0.86693   0.52482   0.36082   0.00000  Uiso   1.00
C709   C     0.99343   0.45722   0.45197   0.00000  Uiso   1.00
C710   C     0.67323   0.54278   0.54803   0.00000  Uiso   1.00
C711   C     0.76238   0.44739   0.61269   0.00000  Uiso   1.00
C712   C     0.83337   0.57925   0.49988   0.00000  Uiso   1.00
C713   C     0.90429   0.55261   0.38731   0.00000  Uiso   1.00
C714   C     0.73492   0.49862   0.48847   0.00000  Uiso   1.00
C715   C     0.93175   0.50138   0.51153   0.00000  Uiso   1.00
C716   C     0.68046   0.49116   0.48431   0.00000  Uiso   1.00
C717   C     0.98621   0.50884   0.51569   0.00000  Uiso   1.00
C718   C     0.81895   0.35484   0.45825   0.00000  Uiso   1.00
C719   C     0.84771   0.64516   0.54175   0.00000  Uiso   1.00
C720   C     0.81890   0.64550   0.45812   0.00000  Uiso   1.00
Cu721  Cu    0.83333   0.50001   0.54689   0.00000  Uiso   1.00
Cu722  Cu    0.83333   0.49999   0.45311   0.00000  Uiso   1.00
H723   H     0.80732   0.37112   0.42571   0.00000  Uiso   1.00
H724   H     0.92007   0.60956   0.41330   0.00000  Uiso   1.00
H725   H     0.85935   0.62888   0.57429   0.00000  Uiso   1.00
H726   H     0.80702   0.62950   0.42558   0.00000  Uiso   1.00
H727   H     0.85965   0.37050   0.57442   0.00000  Uiso   1.00
H728   H     0.77349   0.45557   0.37170   0.00000  Uiso   1.00
H729   H     0.89317   0.54443   0.62830   0.00000  Uiso   1.00
H730   H     0.94915   0.40571   0.44197   0.00000  Uiso   1.00
H731   H     0.71752   0.59429   0.55803   0.00000  Uiso   1.00
H732   H     0.74660   0.39044   0.58670   0.00000  Uiso   1.00
N733   N     0.83335   0.50001   0.61736   0.00000  Uiso   1.00
N734   N     0.83332   0.49999   0.38264   0.00000  Uiso   1.00
O735   O     0.83333   0.43989   0.53958   0.00000  Uiso   1.00
O736   O     0.96008   0.42702   0.46696   0.00000  Uiso   1.00
O737   O     0.99281   0.54495   0.58717   0.00000  Uiso   1.00
O738   O     0.70659   0.57298   0.53304   0.00000  Uiso   1.00
O739   O     0.71838   0.45860   0.60185   0.00000  Uiso   1.00
O740   O     0.77586   0.40693   0.60425   0.00000  Uiso   1.00
O741   O     0.94828   0.54140   0.39814   0.00000  Uiso   1.00
O742   O     0.89081   0.59307   0.39575   0.00000  Uiso   1.00
O743   O     0.83334   0.56011   0.46042   0.00000  Uiso   1.00
O744   O     0.83333   0.43988   0.46039   0.00000  Uiso   1.00
O745   O     0.83334   0.56012   0.53961   0.00000  Uiso   1.00
O746   O     0.75828   0.50000   0.53046   0.00000  Uiso   1.00
O747   O     0.90839   0.50000   0.46954   0.00000  Uiso   1.00
O748   O     0.75828   0.49999   0.45127   0.00000  Uiso   1.00
O749   O     0.90839   0.50001   0.54873   0.00000  Uiso   1.00
O750   O     0.67385   0.45505   0.41283   0.00000  Uiso   1.00
C751   C     0.16663   0.75409   0.50011   0.00000  Uiso   1.00
C752   C     0.18110   0.68783   0.54188   0.00000  Uiso   1.00
C753   C     0.16673   0.95722   0.49984   0.00000  Uiso   1.00
C754   C     0.16660   0.70945   0.50016   0.00000  Uiso   1.00
C755   C     0.13333   0.80868   0.35524   0.00000  Uiso   1.00
C756   C     0.20000   0.85799   0.64476   0.00000  Uiso   1.00
C757   C     0.13307   0.80851   0.63918   0.00000  Uiso   1.00
C758   C     0.20027   0.85815   0.36082   0.00000  Uiso   1.00
C759   C     0.32677   0.79056   0.45197   0.00000  Uiso   1.00
C760   C     0.00657   0.87611   0.54803   0.00000  Uiso   1.00
C761   C     0.09571   0.78072   0.61269   0.00000  Uiso   1.00
C762   C     0.16671   0.91258   0.49988   0.00000  Uiso   1.00
C763   C     0.23762   0.88595   0.38731   0.00000  Uiso   1.00
C764   C     0.06825   0.83196   0.48847   0.00000  Uiso   1.00
C765   C     0.26508   0.83471   0.51153   0.00000  Uiso   1.00
C766   C     0.01379   0.82450   0.48431   0.00000  Uiso   1.00
C767   C     0.31954   0.84217   0.51569   0.00000  Uiso   1.00
C768   C     0.15229   0.68818   0.45825   0.00000  Uiso   1.00
C769   C     0.18105   0.97849   0.54175   0.00000  Uiso   1.00
C770   C     0.15224   0.97884   0.45812   0.00000  Uiso   1.00
Cu771  Cu    0.16667   0.83334   0.54689   0.00000  Uiso   1.00
Cu772  Cu    0.16667   0.83333   0.45311   0.00000  Uiso   1.00
H773   H     0.14065   0.70445   0.42571   0.00000  Uiso   1.00
H774   H     0.25340   0.94289   0.41330   0.00000  Uiso   1.00
H775   H     0.19268   0.96222   0.57429   0.00000  Uiso   1.00
H776   H     0.14035   0.96283   0.42558   0.00000  Uiso   1.00
H777   H     0.19298   0.70383   0.57442   0.00000  Uiso   1.00
H778   H     0.10683   0.78891   0.37170   0.00000  Uiso   1.00
H779   H     0.22651   0.87776   0.62830   0.00000  Uiso   1.00
H780   H     0.28248   0.73904   0.44197   0.00000  Uiso   1.00
H781   H     0.05085   0.92763   0.55803   0.00000  Uiso   1.00
H782   H     0.07993   0.72377   0.58670   0.00000  Uiso   1.00
N783   N     0.16668   0.83334   0.61736   0.00000  Uiso   1.00
N784   N     0.16665   0.83332   0.38264   0.00000  Uiso   1.00
O785   O     0.16666   0.77322   0.53958   0.00000  Uiso   1.00
O786   O     0.29341   0.76036   0.46696   0.00000  Uiso   1.00
O787   O     0.32615   0.87828   0.58717   0.00000  Uiso   1.00
O788   O     0.03993   0.90631   0.53304   0.00000  Uiso   1.00
O789   O     0.05172   0.79194   0.60185   0.00000  Uiso   1.00
O790   O     0.10919   0.74027   0.60425   0.00000  Uiso   1.00
O791   O     0.28162   0.87473   0.39814   0.00000  Uiso   1.00
O792   O     0.22414   0.92640   0.39575   0.00000  Uiso   1.00
O793   O     0.16667   0.89345   0.46042   0.00000  Uiso   1.00
O794   O     0.16666   0.77321   0.46039   0.00000  Uiso   1.00
O795   O     0.16667   0.89346   0.53961   0.00000  Uiso   1.00
O796   O     0.09161   0.83334   0.53046   0.00000  Uiso   1.00
O797   O     0.24172   0.83333   0.46954   0.00000  Uiso   1.00
O798   O     0.09161   0.83333   0.45127   0.00000  Uiso   1.00
O799   O     0.24172   0.83334   0.54873   0.00000  Uiso   1.00
O800   O     0.00719   0.78839   0.41283   0.00000  Uiso   1.00
C801   C     0.49996   0.75409   0.50011   0.00000  Uiso   1.00
C802   C     0.51443   0.68783   0.54188   0.00000  Uiso   1.00
C803   C     0.50006   0.95722   0.49984   0.00000  Uiso   1.00
C804   C     0.49994   0.70945   0.50016   0.00000  Uiso   1.00
C805   C     0.46666   0.80868   0.35524   0.00000  Uiso   1.00
C806   C     0.53334   0.85799   0.64476   0.00000  Uiso   1.00
C807   C     0.46640   0.80851   0.63918   0.00000  Uiso   1.00
C808   C     0.53360   0.85815   0.36082   0.00000  Uiso   1.00
C809   C     0.66010   0.79056   0.45197   0.00000  Uiso   1.00
C810   C     0.33990   0.87611   0.54803   0.00000  Uiso   1.00
C811   C     0.42904   0.78072   0.61269   0.00000  Uiso   1.00
C812   C     0.50004   0.91258   0.49988   0.00000  Uiso   1.00
C813   C     0.57096   0.88595   0.38731   0.00000  Uiso   1.00
C814   C     0.40158   0.83196   0.48847   0.00000  Uiso   1.00
C815   C     0.59842   0.83471   0.51153   0.00000  Uiso   1.00
C816   C     0.34713   0.82450   0.48431   0.00000  Uiso   1.00
C817   C     0.65287   0.84217   0.51569   0.00000  Uiso   1.00
C818   C     0.48562   0.68818   0.45825   0.00000  Uiso   1.00
C819   C     0.51438   0.97849   0.54175   0.00000  Uiso   1.00
C820   C     0.48557   0.97884   0.45812   0.00000  Uiso   1.00
Cu821  Cu    0.50000   0.83334   0.54689   0.00000  Uiso   1.00
Cu822  Cu    0.50000   0.83333   0.45311   0.00000  Uiso   1.00
H823   H     0.47399   0.70445   0.42571   0.00000  Uiso   1.00
H824   H     0.58674   0.94289   0.41330   0.00000  Uiso   1.00
H825   H     0.52601   0.96222   0.57429   0.00000  Uiso   1.00
H826   H     0.47369   0.96283   0.42558   0.00000  Uiso   1.00
H827   H     0.52631   0.70383   0.57442   0.00000  Uiso   1.00
H828   H     0.44016   0.78891   0.37170   0.00000  Uiso   1.00
H829   H     0.55984   0.87776   0.62830   0.00000  Uiso   1.00
H830   H     0.61582   0.73904   0.44197   0.00000  Uiso   1.00
H831   H     0.38418   0.92763   0.55803   0.00000  Uiso   1.00
H832   H     0.41326   0.72377   0.58670   0.00000  Uiso   1.00
N833   N     0.50001   0.83334   0.61736   0.00000  Uiso   1.00
N834   N     0.49999   0.83332   0.38264   0.00000  Uiso   1.00
O835   O     0.50000   0.77322   0.53958   0.00000  Uiso   1.00
O836   O     0.62674   0.76036   0.46696   0.00000  Uiso   1.00
O837   O     0.65948   0.87828   0.58717   0.00000  Uiso   1.00
O838   O     0.37326   0.90631   0.53304   0.00000  Uiso   1.00
O839   O     0.38505   0.79194   0.60185   0.00000  Uiso   1.00
O840   O     0.44253   0.74027   0.60425   0.00000  Uiso   1.00
O841   O     0.61495   0.87473   0.39814   0.00000  Uiso   1.00
O842   O     0.55747   0.92640   0.39575   0.00000  Uiso   1.00
O843   O     0.50000   0.89345   0.46042   0.00000  Uiso   1.00
O844   O     0.50000   0.77321   0.46039   0.00000  Uiso   1.00
O845   O     0.50000   0.89346   0.53961   0.00000  Uiso   1.00
O846   O     0.42495   0.83334   0.53046   0.00000  Uiso   1.00
O847   O     0.57505   0.83333   0.46954   0.00000  Uiso   1.00
O848   O     0.42494   0.83333   0.45127   0.00000  Uiso   1.00
O849   O     0.57506   0.83334   0.54873   0.00000  Uiso   1.00
O850   O     0.34052   0.78839   0.41283   0.00000  Uiso   1.00
C851   C     0.83329   0.75409   0.50011   0.00000  Uiso   1.00
C852   C     0.84776   0.68783   0.54188   0.00000  Uiso   1.00
C853   C     0.83340   0.95722   0.49984   0.00000  Uiso   1.00
C854   C     0.83327   0.70945   0.50016   0.00000  Uiso   1.00
C855   C     0.80000   0.80868   0.35524   0.00000  Uiso   1.00
C856   C     0.86667   0.85799   0.64476   0.00000  Uiso   1.00
C857   C     0.79973   0.80851   0.63918   0.00000  Uiso   1.00
C858   C     0.86693   0.85815   0.36082   0.00000  Uiso   1.00
C859   C     0.99343   0.79056   0.45197   0.00000  Uiso   1.00
C860   C     0.67323   0.87611   0.54803   0.00000  Uiso   1.00
C861   C     0.76238   0.78072   0.61269   0.00000  Uiso   1.00
C862   C     0.83337   0.91258   0.49988   0.00000  Uiso   1.00
C863   C     0.90429   0.88595   0.38731   0.00000  Uiso   1.00
C864   C     0.73492   0.83196   0.48847   0.00000  Uiso   1.00
C865   C     0.93175   0.83471   0.51153   0.00000  Uiso   1.00
C866   C     0.68046   0.82450   0.48431   0.00000  Uiso   1.00
C867   C     0.98621   0.84217   0.51569   0.00000  Uiso   1.00
C868   C     0.81895   0.68818   0.45825   0.00000  Uiso   1.00
C869   C     0.84771   0.97849   0.54175   0.00000  Uiso   1.00
C870   C     0.81890   0.97884   0.45812   0.00000  Uiso   1.00
Cu871  Cu    0.83333   0.83334   0.54689   0.00000  Uiso   1.00
Cu872  Cu    0.83333   0.83333   0.45311   0.00000  Uiso   1.00
H873   H     0.80732   0.70445   0.42571   0.00000  Uiso   1.00
H874   H     0.92007   0.94289   0.41330   0.00000  Uiso   1.00
H875   H     0.85935   0.96222   0.57429   0.00000  Uiso   1.00
H876   H     0.80702   0.96283   0.42558   0.00000  Uiso   1.00
H877   H     0.85965   0.70383   0.57442   0.00000  Uiso   1.00
H878   H     0.77349   0.78891   0.37170   0.00000  Uiso   1.00
H879   H     0.89317   0.87776   0.62830   0.00000  Uiso   1.00
H880   H     0.94915   0.73904   0.44197   0.00000  Uiso   1.00
H881   H     0.71752   0.92763   0.55803   0.00000  Uiso   1.00
H882   H     0.74660   0.72377   0.58670   0.00000  Uiso   1.00
N883   N     0.83335   0.83334   0.61736   0.00000  Uiso   1.00
N884   N     0.83332   0.83332   0.38264   0.00000  Uiso   1.00
O885   O     0.83333   0.77322   0.53958   0.00000  Uiso   1.00
O886   O     0.96008   0.76036   0.46696   0.00000  Uiso   1.00
O887   O     0.99281   0.87828   0.58717   0.00000  Uiso   1.00
O888   O     0.70659   0.90631   0.53304   0.00000  Uiso   1.00
O889   O     0.71838   0.79194   0.60185   0.00000  Uiso   1.00
O890   O     0.77586   0.74027   0.60425   0.00000  Uiso   1.00
O891   O     0.94828   0.87473   0.39814   0.00000  Uiso   1.00
O892   O     0.89081   0.92640   0.39575   0.00000  Uiso   1.00
O893   O     0.83334   0.89345   0.46042   0.00000  Uiso   1.00
O894   O     0.83333   0.77321   0.46039   0.00000  Uiso   1.00
O895   O     0.83334   0.89346   0.53961   0.00000  Uiso   1.00
O896   O     0.75828   0.83334   0.53046   0.00000  Uiso   1.00
O897   O     0.90839   0.83333   0.46954   0.00000  Uiso   1.00
O898   O     0.75828   0.83333   0.45127   0.00000  Uiso   1.00
O899   O     0.90839   0.83334   0.54873   0.00000  Uiso   1.00
O900   O     0.67385   0.78839   0.41283   0.00000  Uiso   1.00
C901   C     0.16663   0.08742   0.83345   0.00000  Uiso   1.00
C902   C     0.18110   0.02116   0.87522   0.00000  Uiso   1.00
C903   C     0.16673   0.29055   0.83317   0.00000  Uiso   1.00
C904   C     0.16660   0.04278   0.83350   0.00000  Uiso   1.00
C905   C     0.13333   0.14201   0.68857   0.00000  Uiso   1.00
C906   C     0.20000   0.19132   0.97810   0.00000  Uiso   1.00
C907   C     0.13307   0.14185   0.97251   0.00000  Uiso   1.00
C908   C     0.20027   0.19149   0.69415   0.00000  Uiso   1.00
C909   C     0.32677   0.12389   0.78530   0.00000  Uiso   1.00
C910   C     0.00657   0.20944   0.88136   0.00000  Uiso   1.00
C911   C     0.09571   0.11405   0.94602   0.00000  Uiso   1.00
C912   C     0.16671   0.24591   0.83322   0.00000  Uiso   1.00
C913   C     0.23762   0.21928   0.72065   0.00000  Uiso   1.00
C914   C     0.06825   0.16529   0.82180   0.00000  Uiso   1.00
C915   C     0.26508   0.16804   0.84487   0.00000  Uiso   1.00
C916   C     0.01379   0.15783   0.81765   0.00000  Uiso   1.00
C917   C     0.31954   0.17550   0.84902   0.00000  Uiso   1.00
C918   C     0.15229   0.02151   0.79158   0.00000  Uiso   1.00
C919   C     0.18105   0.31182   0.87509   0.00000  Uiso   1.00
C920   C     0.15224   0.31217   0.79145   0.00000  Uiso   1.00
Cu921  Cu    0.16667   0.16667   0.88022   0.00000  Uiso   1.00
Cu922  Cu    0.16667   0.16666   0.78645   0.00000  Uiso   1.00
H923   H     0.14065   0.03778   0.75904   0.00000  Uiso   1.00
H924   H     0.25340   0.27623   0.74663   0.00000  Uiso   1.00
H925   H     0.19268   0.29555   0.90763   0.00000  Uiso   1.00
H926   H     0.14035   0.29617   0.75892   0.00000  Uiso   1.00
H927   H     0.19298   0.03717   0.90775   0.00000  Uiso   1.00
H928   H     0.10683   0.12224   0.70503   0.00000  Uiso   1.00
H929   H     0.22651   0.21109   0.96164   0.00000  Uiso   1.00
H930   H     0.28248   0.07237   0.77530   0.00000  Uiso   1.00
H931   H     0.05085   0.26096   0.89136   0.00000  Uiso   1.00
H932   H     0.07993   0.05711   0.92004   0.00000  Uiso   1.00
N933   N     0.16668   0.16668   0.95069   0.00000  Uiso   1.00
N934   N     0.16665   0.16666   0.71597   0.00000  Uiso   1.00
O935   O     0.16666   0.10655   0.87291   0.00000  Uiso   1.00
O936   O     0.29341   0.09369   0.80030   0.00000  Uiso   1.00
O937   O     0.32615   0.21161   0.92050   0.00000  Uiso   1.00
O938   O     0.03993   0.23964   0.86637   0.00000  Uiso   1.00
O939   O     0.05172   0.12527   0.93519   0.00000  Uiso   1.00
O940   O     0.10919   0.07360   0.93759   0.00000  Uiso   1.00
O941   O     0.28162   0.20806   0.73148   0.00000  Uiso   1.00
O942   O     0.22414   0.25973   0.72908   0.00000  Uiso   1.00
O943   O     0.16667   0.22678   0.79375   0.00000  Uiso   1.00
O944   O     0.16666   0.10654   0.79372   0.00000  Uiso   1.00
O945   O     0.16667   0.22679   0.87294   0.00000  Uiso   1.00
O946   O     0.09161   0.16667   0.86379   0.00000  Uiso   1.00
O947   O     0.24172   0.16666   0.80288   0.00000  Uiso   1.00
O948   O     0.09161   0.16666   0.78460   0.00000  Uiso   1.00
O949   O     0.24172   0.16667   0.88207   0.00000  Uiso   1.00
O950   O     0.00719   0.12172   0.74616   0.00000  Uiso   1.00
C951   C     0.49996   0.08742   0.83345   0.00000  Uiso   1.00
C952   C     0.51443   0.02116   0.87522   0.00000  Uiso   1.00
C953   C     0.50006   0.29055   0.83317   0.00000  Uiso   1.00
C954   C     0.49994   0.04278   0.83350   0.00000  Uiso   1.00
C955   C     0.46666   0.14201   0.68857   0.00000  Uiso   1.00
C956   C     0.53334   0.19132   0.97810   0.00000  Uiso   1.00
C957   C     0.46640   0.14185   0.97251   0.00000  Uiso   1.00
C958   C     0.53360   0.19149   0.69415   0.00000  Uiso   1.00
C959   C     0.66010   0.12389   0.78530   0.00000  Uiso   1.00
C960   C     0.33990   0.20944   0.88136   0.00000  Uiso   1.00
C961   C     0.42904   0.11405   0.94602   0.00000  Uiso   1.00
C962   C     0.50004   0.24591   0.83322   0.00000  Uiso   1.00
C963   C     0.57096   0.21928   0.72065   0.00000  Uiso   1.00
C964   C     0.40158   0.16529   0.82180   0.00000  Uiso   1.00
C965   C     0.59842   0.16804   0.84487   0.00000  Uiso   1.00
C966   C     0.34713   0.15783   0.81765   0.00000  Uiso   1.00
C967   C     0.65287   0.17550   0.84902   0.00000  Uiso   1.00
C968   C     0.48562   0.02151   0.79158   0.00000  Uiso   1.00
C969   C     0.51438   0.31182   0.87509   0.00000  Uiso   1.00
C970   C     0.48557   0.31217   0.79145   0.00000  Uiso   1.00
Cu971  Cu    0.50000   0.16667   0.88022   0.00000  Uiso   1.00
Cu972  Cu    0.50000   0.16666   0.78645   0.00000  Uiso   1.00
H973   H     0.47399   0.03778   0.75904   0.00000  Uiso   1.00
H974   H     0.58674   0.27623   0.74663   0.00000  Uiso   1.00
H975   H     0.52601   0.29555   0.90763   0.00000  Uiso   1.00
H976   H     0.47369   0.29617   0.75892   0.00000  Uiso   1.00
H977   H     0.52631   0.03717   0.90775   0.00000  Uiso   1.00
H978   H     0.44016   0.12224   0.70503   0.00000  Uiso   1.00
H979   H     0.55984   0.21109   0.96164   0.00000  Uiso   1.00
H980   H     0.61582   0.07237   0.77530   0.00000  Uiso   1.00
H981   H     0.38418   0.26096   0.89136   0.00000  Uiso   1.00
H982   H     0.41326   0.05711   0.92004   0.00000  Uiso   1.00
N983   N     0.50001   0.16668   0.95069   0.00000  Uiso   1.00
N984   N     0.49999   0.16666   0.71597   0.00000  Uiso   1.00
O985   O     0.50000   0.10655   0.87291   0.00000  Uiso   1.00
O986   O     0.62674   0.09369   0.80030   0.00000  Uiso   1.00
O987   O     0.65948   0.21161   0.92050   0.00000  Uiso   1.00
O988   O     0.37326   0.23964   0.86637   0.00000  Uiso   1.00
O989   O     0.38505   0.12527   0.93519   0.00000  Uiso   1.00
O990   O     0.44253   0.07360   0.93759   0.00000  Uiso   1.00
O991   O     0.61495   0.20806   0.73148   0.00000  Uiso   1.00
O992   O     0.55747   0.25973   0.72908   0.00000  Uiso   1.00
O993   O     0.50000   0.22678   0.79375   0.00000  Uiso   1.00
O994   O     0.50000   0.10654   0.79372   0.00000  Uiso   1.00
O995   O     0.50000   0.22679   0.87294   0.00000  Uiso   1.00
O996   O     0.42495   0.16667   0.86379   0.00000  Uiso   1.00
O997   O     0.57505   0.16666   0.80288   0.00000  Uiso   1.00
O998   O     0.42494   0.16666   0.78460   0.00000  Uiso   1.00
O999   O     0.57506   0.16667   0.88207   0.00000  Uiso   1.00
O1000  O     0.34052   0.12172   0.74616   0.00000  Uiso   1.00
C1001  C     0.83329   0.08742   0.83345   0.00000  Uiso   1.00
C1002  C     0.84776   0.02116   0.87522   0.00000  Uiso   1.00
C1003  C     0.83340   0.29055   0.83317   0.00000  Uiso   1.00
C1004  C     0.83327   0.04278   0.83350   0.00000  Uiso   1.00
C1005  C     0.80000   0.14201   0.68857   0.00000  Uiso   1.00
C1006  C     0.86667   0.19132   0.97810   0.00000  Uiso   1.00
C1007  C     0.79973   0.14185   0.97251   0.00000  Uiso   1.00
C1008  C     0.86693   0.19149   0.69415   0.00000  Uiso   1.00
C1009  C     0.99343   0.12389   0.78530   0.00000  Uiso   1.00
C1010  C     0.67323   0.20944   0.88136   0.00000  Uiso   1.00
C1011  C     0.76238   0.11405   0.94602   0.00000  Uiso   1.00
C1012  C     0.83337   0.24591   0.83322   0.00000  Uiso   1.00
C1013  C     0.90429   0.21928   0.72065   0.00000  Uiso   1.00
C1014  C     0.73492   0.16529   0.82180   0.00000  Uiso   1.00
C1015  C     0.93175   0.16804   0.84487   0.00000  Uiso   1.00
C1016  C     0.68046   0.15783   0.81765   0.00000  Uiso   1.00
C1017  C     0.98621   0.17550   0.84902   0.00000  Uiso   1.00
C1018  C     0.81895   0.02151   0.79158   0.00000  Uiso   1.00
C1019  C     0.84771   0.31182   0.87509   0.00000  Uiso   1.00
C1020  C     0.81890   0.31217   0.79145   0.00000  Uiso   1.00
Cu1021 Cu    0.83333   0.16667   0.88022   0.00000  Uiso   1.00
Cu1022 Cu    0.83333   0.16666   0.78645   0.00000  Uiso   1.00
H1023  H     0.80732   0.03778   0.75904   0.00000  Uiso   1.00
H1024  H     0.92007   0.27623   0.74663   0.00000  Uiso   1.00
H1025  H     0.85935   0.29555   0.90763   0.00000  Uiso   1.00
H1026  H     0.80702   0.29617   0.75892   0.00000  Uiso   1.00
H1027  H     0.85965   0.03717   0.90775   0.00000  Uiso   1.00
H1028  H     0.77349   0.12224   0.70503   0.00000  Uiso   1.00
H1029  H     0.89317   0.21109   0.96164   0.00000  Uiso   1.00
H1030  H     0.94915   0.07237   0.77530   0.00000  Uiso   1.00
H1031  H     0.71752   0.26096   0.89136   0.00000  Uiso   1.00
H1032  H     0.74660   0.05711   0.92004   0.00000  Uiso   1.00
N1033  N     0.83335   0.16668   0.95069   0.00000  Uiso   1.00
N1034  N     0.83332   0.16666   0.71597   0.00000  Uiso   1.00
O1035  O     0.83333   0.10655   0.87291   0.00000  Uiso   1.00
O1036  O     0.96008   0.09369   0.80030   0.00000  Uiso   1.00
O1037  O     0.99281   0.21161   0.92050   0.00000  Uiso   1.00
O1038  O     0.70659   0.23964   0.86637   0.00000  Uiso   1.00
O1039  O     0.71838   0.12527   0.93519   0.00000  Uiso   1.00
O1040  O     0.77586   0.07360   0.93759   0.00000  Uiso   1.00
O1041  O     0.94828   0.20806   0.73148   0.00000  Uiso   1.00
O1042  O     0.89081   0.25973   0.72908   0.00000  Uiso   1.00
O1043  O     0.83334   0.22678   0.79375   0.00000  Uiso   1.00
O1044  O     0.83333   0.10654   0.79372   0.00000  Uiso   1.00
O1045  O     0.83334   0.22679   0.87294   0.00000  Uiso   1.00
O1046  O     0.75828   0.16667   0.86379   0.00000  Uiso   1.00
O1047  O     0.90839   0.16666   0.80288   0.00000  Uiso   1.00
O1048  O     0.75828   0.16666   0.78460   0.00000  Uiso   1.00
O1049  O     0.90839   0.16667   0.88207   0.00000  Uiso   1.00
O1050  O     0.67385   0.12172   0.74616   0.00000  Uiso   1.00
C1051  C     0.16663   0.42075   0.83345   0.00000  Uiso   1.00
C1052  C     0.18110   0.35450   0.87522   0.00000  Uiso   1.00
C1053  C     0.16673   0.62388   0.83317   0.00000  Uiso   1.00
C1054  C     0.16660   0.37612   0.83350   0.00000  Uiso   1.00
C1055  C     0.13333   0.47535   0.68857   0.00000  Uiso   1.00
C1056  C     0.20000   0.52465   0.97810   0.00000  Uiso   1.00
C1057  C     0.13307   0.47518   0.97251   0.00000  Uiso   1.00
C1058  C     0.20027   0.52482   0.69415   0.00000  Uiso   1.00
C1059  C     0.32677   0.45722   0.78530   0.00000  Uiso   1.00
C1060  C     0.00657   0.54278   0.88136   0.00000  Uiso   1.00
C1061  C     0.09571   0.44739   0.94602   0.00000  Uiso   1.00
C1062  C     0.16671   0.57925   0.83322   0.00000  Uiso   1.00
C1063  C     0.23762   0.55261   0.72065   0.00000  Uiso   1.00
C1064  C     0.06825   0.49862   0.82180   0.00000  Uiso   1.00
C1065  C     0.26508   0.50138   0.84487   0.00000  Uiso   1.00
C1066  C     0.01379   0.49116   0.81765   0.00000  Uiso   1.00
C1067  C     0.31954   0.50884   0.84902   0.00000  Uiso   1.00
C1068  C     0.15229   0.35484   0.79158   0.00000  Uiso   1.00
C1069  C     0.18105   0.64516   0.87509   0.00000  Uiso   1.00
C1070  C     0.15224   0.64550   0.79145   0.00000  Uiso   1.00
Cu1071 Cu    0.16667   0.50001   0.88022   0.00000  Uiso   1.00
Cu1072 Cu    0.16667   0.49999   0.78645   0.00000  Uiso   1.00
H1073  H     0.14065   0.37112   0.75904   0.00000  Uiso   1.00
H1074  H     0.25340   0.60956   0.74663   0.00000  Uiso   1.00
H1075  H     0.19268   0.62888   0.90763   0.00000  Uiso   1.00
H1076  H     0.14035   0.62950   0.75892   0.00000  Uiso   1.00
H1077  H     0.19298   0.37050   0.90775   0.00000  Uiso   1.00
H1078  H     0.10683   0.45557   0.70503   0.00000  Uiso   1.00
H1079  H     0.22651   0.54443   0.96164   0.00000  Uiso   1.00
H1080  H     0.28248   0.40571   0.77530   0.00000  Uiso   1.00
H1081  H     0.05085   0.59429   0.89136   0.00000  Uiso   1.00
H1082  H     0.07993   0.39044   0.92004   0.00000  Uiso   1.00
N1083  N     0.16668   0.50001   0.95069   0.00000  Uiso   1.00
N1084  N     0.16665   0.49999   0.71597   0.00000  Uiso   1.00
O1085  O     0.16666   0.43989   0.87291   0.00000  Uiso   1.00
O1086  O     0.29341   0.42702   0.80030   0.00000  Uiso   1.00
O1087  O     0.32615   0.54495   0.92050   0.00000  Uiso   1.00
O1088  O     0.03993   0.57298   0.86637   0.00000  Uiso   1.00
O1089  O     0.05172   0.45860   0.93519   0.00000  Uiso   1.00
O1090  O     0.10919   0.40693   0.93759   0.00000  Uiso   1.00
O1091  O     0.28162   0.54140   0.73148   0.00000  Uiso   1.00
O1092  O     0.22414   0.59307   0.72908   0.00000  Uiso   1.00
O1093  O     0.16667   0.56011   0.79375   0.00000  Uiso   1.00
O1094  O     0.16666   0.43988   0.79372   0.00000  Uiso   1.00
O1095  O     0.16667   0.56012   0.87294   0.00000  Uiso   1.00
O1096  O     0.09161   0.50000   0.86379   0.00000  Uiso   1.00
O1097  O     0.24172   0.50000   0.80288   0.00000  Uiso   1.00
O1098  O     0.09161   0.49999   0.78460   0.00000  Uiso   1.00
O1099  O     0.24172   0.50001   0.88207   0.00000  Uiso   1.00
O1100  O     0.00719   0.45505   0.74616   0.00000  Uiso   1.00
C1101  C     0.49996   0.42075   0.83345   0.00000  Uiso   1.00
C1102  C     0.51443   0.35450   0.87522   0.00000  Uiso   1.00
C1103  C     0.50006   0.62388   0.83317   0.00000  Uiso   1.00
C1104  C     0.49994   0.37612   0.83350   0.00000  Uiso   1.00
C1105  C     0.46666   0.47535   0.68857   0.00000  Uiso   1.00
C1106  C     0.53334   0.52465   0.97810   0.00000  Uiso   1.00
C1107  C     0.46640   0.47518   0.97251   0.00000  Uiso   1.00
C1108  C     0.53360   0.52482   0.69415   0.00000  Uiso   1.00
C1109  C     0.66010   0.45722   0.78530   0.00000  Uiso   1.00
C1110  C     0.33990   0.54278   0.88136   0.00000  Uiso   1.00
C1111  C     0.42904   0.44739   0.94602   0.00000  Uiso   1.00
C1112  C     0.50004   0.57925   0.83322   0.00000  Uiso   1.00
C1113  C     0.57096   0.55261   0.72065   0.00000  Uiso   1.00
C1114  C     0.40158   0.49862   0.82180   0.00000  Uiso   1.00
C1115  C     0.59842   0.50138   0.84487   0.00000  Uiso   1.00
C1116  C     0.34713   0.49116   0.81765   0.00000  Uiso   1.00
C1117  C     0.65287   0.50884   0.84902   0.00000  Uiso   1.00
C1118  C     0.48562   0.35484   0.79158   0.00000  Uiso   1.00
C1119  C     0.51438   0.64516   0.87509   0.00000  Uiso   1.00
C1120  C     0.48557   0.64550   0.79145   0.00000  Uiso   1.00
Cu1121 Cu    0.50000   0.50001   0.88022   0.00000  Uiso   1.00
Cu1122 Cu    0.50000   0.49999   0.78645   0.00000  Uiso   1.00
H1123  H     0.47399   0.37112   0.75904   0.00000  Uiso   1.00
H1124  H     0.58674   0.60956   0.74663   0.00000  Uiso   1.00
H1125  H     0.52601   0.62888   0.90763   0.00000  Uiso   1.00
H1126  H     0.47369   0.62950   0.75892   0.00000  Uiso   1.00
H1127  H     0.52631   0.37050   0.90775   0.00000  Uiso   1.00
H1128  H     0.44016   0.45557   0.70503   0.00000  Uiso   1.00
H1129  H     0.55984   0.54443   0.96164   0.00000  Uiso   1.00
H1130  H     0.61582   0.40571   0.77530   0.00000  Uiso   1.00
H1131  H     0.38418   0.59429   0.89136   0.00000  Uiso   1.00
H1132  H     0.41326   0.39044   0.92004   0.00000  Uiso   1.00
N1133  N     0.50001   0.50001   0.95069   0.00000  Uiso   1.00
N1134  N     0.49999   0.49999   0.71597   0.00000  Uiso   1.00
O1135  O     0.50000   0.43989   0.87291   0.00000  Uiso   1.00
O1136  O     0.62674   0.42702   0.80030   0.00000  Uiso   1.00
O1137  O     0.65948   0.54495   0.92050   0.00000  Uiso   1.00
O1138  O     0.37326   0.57298   0.86637   0.00000  Uiso   1.00
O1139  O     0.38505   0.45860   0.93519   0.00000  Uiso   1.00
O1140  O     0.44253   0.40693   0.93759   0.00000  Uiso   1.00
O1141  O     0.61495   0.54140   0.73148   0.00000  Uiso   1.00
O1142  O     0.55747   0.59307   0.72908   0.00000  Uiso   1.00
O1143  O     0.50000   0.56011   0.79375   0.00000  Uiso   1.00
O1144  O     0.50000   0.43988   0.79372   0.00000  Uiso   1.00
O1145  O     0.50000   0.56012   0.87294   0.00000  Uiso   1.00
O1146  O     0.42495   0.50000   0.86379   0.00000  Uiso   1.00
O1147  O     0.57505   0.50000   0.80288   0.00000  Uiso   1.00
O1148  O     0.42494   0.49999   0.78460   0.00000  Uiso   1.00
O1149  O     0.57506   0.50001   0.88207   0.00000  Uiso   1.00
O1150  O     0.34052   0.45505   0.74616   0.00000  Uiso   1.00
C1151  C     0.83329   0.42075   0.83345   0.00000  Uiso   1.00
C1152  C     0.84776   0.35450   0.87522   0.00000  Uiso   1.00
C1153  C     0.83340   0.62388   0.83317   0.00000  Uiso   1.00
C1154  C     0.83327   0.37612   0.83350   0.00000  Uiso   1.00
C1155  C     0.80000   0.47535   0.68857   0.00000  Uiso   1.00
C1156  C     0.86667   0.52465   0.97810   0.00000  Uiso   1.00
C1157  C     0.79973   0.47518   0.97251   0.00000  Uiso   1.00
C1158  C     0.86693   0.52482   0.69415   0.00000  Uiso   1.00
C1159  C     0.99343   0.45722   0.78530   0.00000  Uiso   1.00
C1160  C     0.67323   0.54278   0.88136   0.00000  Uiso   1.00
C1161  C     0.76238   0.44739   0.94602   0.00000  Uiso   1.00
C1162  C     0.83337   0.57925   0.83322   0.00000  Uiso   1.00
C1163  C     0.90429   0.55261   0.72065   0.00000  Uiso   1.00
C1164  C     0.73492   0.49862   0.82180   0.00000  Uiso   1.00
C1165  C     0.93175   0.50138   0.84487   0.00000  Uiso   1.00
C1166  C     0.68046   0.49116   0.81765   0.00000  Uiso   1.00
C1167  C     0.98621   0.50884   0.84902   0.00000  Uiso   1.00
C1168  C     0.81895   0.35484   0.79158   0.00000  Uiso   1.00
C1169  C     0.84771   0.64516   0.87509   0.00000  Uiso   1.00
C1170  C     0.81890   0.64550   0.79145   0.00000  Uiso   1.00
Cu1171 Cu    0.83333   0.50001   0.88022   0.00000  Uiso   1.00
Cu1172 Cu    0.83333   0.49999   0.78645   0.00000  Uiso   1.00
H1173  H     0.80732   0.37112   0.75904   0.00000  Uiso   1.00
H1174  H     0.92007   0.60956   0.74663   0.00000  Uiso   1.00
H1175  H     0.85935   0.62888   0.90763   0.00000  Uiso   1.00
H1176  H     0.80702   0.62950   0.75892   0.00000  Uiso   1.00
H1177  H     0.85965   0.37050   0.90775   0.00000  Uiso   1.00
H1178  H     0.77349   0.45557   0.70503   0.00000  Uiso   1.00
H1179  H     0.89317   0.54443   0.96164   0.00000  Uiso   1.00
H1180  H     0.94915   0.40571   0.77530   0.00000  Uiso   1.00
H1181  H     0.71752   0.59429   0.89136   0.00000  Uiso   1.00
H1182  H     0.74660   0.39044   0.92004   0.00000  Uiso   1.00
N1183  N     0.83335   0.50001   0.95069   0.00000  Uiso   1.00
N1184  N     0.83332   0.49999   0.71597   0.00000  Uiso   1.00
O1185  O     0.83333   0.43989   0.87291   0.00000  Uiso   1.00
O1186  O     0.96008   0.42702   0.80030   0.00000  Uiso   1.00
O1187  O     0.99281   0.54495   0.92050   0.00000  Uiso   1.00
O1188  O     0.70659   0.57298   0.86637   0.00000  Uiso   1.00
O1189  O     0.71838   0.45860   0.93519   0.00000  Uiso   1.00
O1190  O     0.77586   0.40693   0.93759   0.00000  Uiso   1.00
O1191  O     0.94828   0.54140   0.73148   0.00000  Uiso   1.00
O1192  O     0.89081   0.59307   0.72908   0.00000  Uiso   1.00
O1193  O     0.83334   0.56011   0.79375   0.00000  Uiso   1.00
O1194  O     0.83333   0.43988   0.79372   0.00000  Uiso   1.00
O1195  O     0.83334   0.56012   0.87294   0.00000  Uiso   1.00
O1196  O     0.75828   0.50000   0.86379   0.00000  Uiso   1.00
O1197  O     0.90839   0.50000   0.80288   0.00000  Uiso   1.00
O1198  O     0.75828   0.49999   0.78460   0.00000  Uiso   1.00
O1199  O     0.90839   0.50001   0.88207   0.00000  Uiso   1.00
O1200  O     0.67385   0.45505   0.74616   0.00000  Uiso   1.00
C1201  C     0.16663   0.75409   0.83345   0.00000  Uiso   1.00
C1202  C     0.18110   0.68783   0.87522   0.00000  Uiso   1.00
C1203  C     0.16673   0.95722   0.83317   0.00000  Uiso   1.00
C1204  C     0.16660   0.70945   0.83350   0.00000  Uiso   1.00
C1205  C     0.13333   0.80868   0.68857   0.00000  Uiso   1.00
C1206  C     0.20000   0.85799   0.97810   0.00000  Uiso   1.00
C1207  C     0.13307   0.80851   0.97251   0.00000  Uiso   1.00
C1208  C     0.20027   0.85815   0.69415   0.00000  Uiso   1.00
C1209  C     0.32677   0.79056   0.78530   0.00000  Uiso   1.00
C1210  C     0.00657   0.87611   0.88136   0.00000  Uiso   1.00
C1211  C     0.09571   0.78072   0.94602   0.00000  Uiso   1.00
C1212  C     0.16671   0.91258   0.83322   0.00000  Uiso   1.00
C1213  C     0.23762   0.88595   0.72065   0.00000  Uiso   1.00
C1214  C     0.06825   0.83196   0.82180   0.00000  Uiso   1.00
C1215  C     0.26508   0.83471   0.84487   0.00000  Uiso   1.00
C1216  C     0.01379   0.82450   0.81765   0.00000  Uiso   1.00
C1217  C     0.31954   0.84217   0.84902   0.00000  Uiso   1.00
C1218  C     0.15229   0.68818   0.79158   0.00000  Uiso   1.00
C1219  C     0.18105   0.97849   0.87509   0.00000  Uiso   1.00
C1220  C     0.15224   0.97884   0.79145   0.00000  Uiso   1.00
Cu1221 Cu    0.16667   0.83334   0.88022   0.00000  Uiso   1.00
Cu1222 Cu    0.16667   0.83333   0.78645   0.00000  Uiso   1.00
H1223  H     0.14065   0.70445   0.75904   0.00000  Uiso   1.00
H1224  H     0.25340   0.94289   0.74663   0.00000  Uiso   1.00
H1225  H     0.19268   0.96222   0.90763   0.00000  Uiso   1.00
H1226  H     0.14035   0.96283   0.75892   0.00000  Uiso   1.00
H1227  H     0.19298   0.70383   0.90775   0.00000  Uiso   1.00
H1228  H     0.10683   0.78891   0.70503   0.00000  Uiso   1.00
H1229  H     0.22651   0.87776   0.96164   0.00000  Uiso   1.00
H1230  H     0.28248   0.73904   0.77530   0.00000  Uiso   1.00
H1231  H     0.05085   0.92763   0.89136   0.00000  Uiso   1.00
H1232  H     0.07993   0.72377   0.92004   0.00000  Uiso   1.00
N1233  N     0.16668   0.83334   0.95069   0.00000  Uiso   1.00
N1234  N     0.16665   0.83332   0.71597   0.00000  Uiso   1.00
O1235  O     0.16666   0.77322   0.87291   0.00000  Uiso   1.00
O1236  O     0.29341   0.76036   0.80030   0.00000  Uiso   1.00
O1237  O     0.32615   0.87828   0.92050   0.00000  Uiso   1.00
O1238  O     0.03993   0.90631   0.86637   0.00000  Uiso   1.00
O1239  O     0.05172   0.79194   0.93519   0.00000  Uiso   1.00
O1240  O     0.10919   0.74027   0.93759   0.00000  Uiso   1.00
O1241  O     0.28162   0.87473   0.73148   0.00000  Uiso   1.00
O1242  O     0.22414   0.92640   0.72908   0.00000  Uiso   1.00
O1243  O     0.16667   0.89345   0.79375   0.00000  Uiso   1.00
O1244  O     0.16666   0.77321   0.79372   0.00000  Uiso   1.00
O1245  O     0.16667   0.89346   0.87294   0.00000  Uiso   1.00
O1246  O     0.09161   0.83334   0.86379   0.00000  Uiso   1.00
O1247  O     0.24172   0.83333   0.80288   0.00000  Uiso   1.00
O1248  O     0.09161   0.83333   0.78460   0.00000  Uiso   1.00
O1249  O     0.24172   0.83334   0.88207   0.00000  Uiso   1.00
O1250  O     0.00719   0.78839   0.74616   0.00000  Uiso   1.00
C1251  C     0.49996   0.75409   0.83345   0.00000  Uiso   1.00
C1252  C     0.51443   0.68783   0.87522   0.00000  Uiso   1.00
C1253  C     0.50006   0.95722   0.83317   0.00000  Uiso   1.00
C1254  C     0.49994   0.70945   0.83350   0.00000  Uiso   1.00
C1255  C     0.46666   0.80868   0.68857   0.00000  Uiso   1.00
C1256  C     0.53334   0.85799   0.97810   0.00000  Uiso   1.00
C1257  C     0.46640   0.80851   0.97251   0.00000  Uiso   1.00
C1258  C     0.53360   0.85815   0.69415   0.00000  Uiso   1.00
C1259  C     0.66010   0.79056   0.78530   0.00000  Uiso   1.00
C1260  C     0.33990   0.87611   0.88136   0.00000  Uiso   1.00
C1261  C     0.42904   0.78072   0.94602   0.00000  Uiso   1.00
C1262  C     0.50004   0.91258   0.83322   0.00000  Uiso   1.00
C1263  C     0.57096   0.88595   0.72065   0.00000  Uiso   1.00
C1264  C     0.40158   0.83196   0.82180   0.00000  Uiso   1.00
C1265  C     0.59842   0.83471   0.84487   0.00000  Uiso   1.00
C1266  C     0.34713   0.82450   0.81765   0.00000  Uiso   1.00
C1267  C     0.65287   0.84217   0.84902   0.00000  Uiso   1.00
C1268  C     0.48562   0.68818   0.79158   0.00000  Uiso   1.00
C1269  C     0.51438   0.97849   0.87509   0.00000  Uiso   1.00
C1270  C     0.48557   0.97884   0.79145   0.00000  Uiso   1.00
Cu1271 Cu    0.50000   0.83334   0.88022   0.00000  Uiso   1.00
Cu1272 Cu    0.50000   0.83333   0.78645   0.00000  Uiso   1.00
H1273  H     0.47399   0.70445   0.75904   0.00000  Uiso   1.00
H1274  H     0.58674   0.94289   0.74663   0.00000  Uiso   1.00
H1275  H     0.52601   0.96222   0.90763   0.00000  Uiso   1.00
H1276  H     0.47369   0.96283   0.75892   0.00000  Uiso   1.00
H1277  H     0.52631   0.70383   0.90775   0.00000  Uiso   1.00
H1278  H     0.44016   0.78891   0.70503   0.00000  Uiso   1.00
H1279  H     0.55984   0.87776   0.96164   0.00000  Uiso   1.00
H1280  H     0.61582   0.73904   0.77530   0.00000  Uiso   1.00
H1281  H     0.38418   0.92763   0.89136   0.00000  Uiso   1.00
H1282  H     0.41326   0.72377   0.92004   0.00000  Uiso   1.00
N1283  N     0.50001   0.83334   0.95069   0.00000  Uiso   1.00
N1284  N     0.49999   0.83332   0.71597   0.00000  Uiso   1.00
O1285  O     0.50000   0.77322   0.87291   0.00000  Uiso   1.00
O1286  O     0.62674   0.76036   0.80030   0.00000  Uiso   1.00
O1287  O     0.65948   0.87828   0.92050   0.00000  Uiso   1.00
O1288  O     0.37326   0.90631   0.86637   0.00000  Uiso   1.00
O1289  O     0.38505   0.79194   0.93519   0.00000  Uiso   1.00
O1290  O     0.44253   0.74027   0.93759   0.00000  Uiso   1.00
O1291  O     0.61495   0.87473   0.73148   0.00000  Uiso   1.00
O1292  O     0.55747   0.92640   0.72908   0.00000  Uiso   1.00
O1293  O     0.50000   0.89345   0.79375   0.00000  Uiso   1.00
O1294  O     0.50000   0.77321   0.79372   0.00000  Uiso   1.00
O1295  O     0.50000   0.89346   0.87294   0.00000  Uiso   1.00
O1296  O     0.42495   0.83334   0.86379   0.00000  Uiso   1.00
O1297  O     0.57505   0.83333   0.80288   0.00000  Uiso   1.00
O1298  O     0.42494   0.83333   0.78460   0.00000  Uiso   1.00
O1299  O     0.57506   0.83334   0.88207   0.00000  Uiso   1.00
O1300  O     0.34052   0.78839   0.74616   0.00000  Uiso   1.00
C1301  C     0.83329   0.75409   0.83345   0.00000  Uiso   1.00
C1302  C     0.84776   0.68783   0.87522   0.00000  Uiso   1.00
C1303  C     0.83340   0.95722   0.83317   0.00000  Uiso   1.00
C1304  C     0.83327   0.70945   0.83350   0.00000  Uiso   1.00
C1305  C     0.80000   0.80868   0.68857   0.00000  Uiso   1.00
C1306  C     0.86667   0.85799   0.97810   0.00000  Uiso   1.00
C1307  C     0.79973   0.80851   0.97251   0.00000  Uiso   1.00
C1308  C     0.86693   0.85815   0.69415   0.00000  Uiso   1.00
C1309  C     0.99343   0.79056   0.78530   0.00000  Uiso   1.00
C1310  C     0.67323   0.87611   0.88136   0.00000  Uiso   1.00
C1311  C     0.76238   0.78072   0.94602   0.00000  Uiso   1.00
C1312  C     0.83337   0.91258   0.83322   0.00000  Uiso   1.00
C1313  C     0.90429   0.88595   0.72065   0.00000  Uiso   1.00
C1314  C     0.73492   0.83196   0.82180   0.00000  Uiso   1.00
C1315  C     0.93175   0.83471   0.84487   0.00000  Uiso   1.00
C1316  C     0.68046   0.82450   0.81765   0.00000  Uiso   1.00
C1317  C     0.98621   0.84217   0.84902   0.00000  Uiso   1.00
C1318  C     0.81895   0.68818   0.79158   0.00000  Uiso   1.00
C1319  C     0.84771   0.97849   0.87509   0.00000  Uiso   1.00
C1320  C     0.81890   0.97884   0.79145   0.00000  Uiso   1.00
Cu1321 Cu    0.83333   0.83334   0.88022   0.00000  Uiso   1.00
Cu1322 Cu    0.83333   0.83333   0.78645   0.00000  Uiso   1.00
H1323  H     0.80732   0.70445   0.75904   0.00000  Uiso   1.00
H1324  H     0.92007   0.94289   0.74663   0.00000  Uiso   1.00
H1325  H     0.85935   0.96222   0.90763   0.00000  Uiso   1.00
H1326  H     0.80702   0.96283   0.75892   0.00000  Uiso   1.00
H1327  H     0.85965   0.70383   0.90775   0.00000  Uiso   1.00
H1328  H     0.77349   0.78891   0.70503   0.00000  Uiso   1.00
H1329  H     0.89317   0.87776   0.96164   0.00000  Uiso   1.00
H1330  H     0.94915   0.73904   0.77530   0.00000  Uiso   1.00
H1331  H     0.71752   0.92763   0.89136   0.00000  Uiso   1.00
H1332  H     0.74660   0.72377   0.92004   0.00000  Uiso   1.00
N1333  N     0.83335   0.83334   0.95069   0.00000  Uiso   1.00
N1334  N     0.83332   0.83332   0.71597   0.00000  Uiso   1.00
O1335  O     0.83333   0.77322   0.87291   0.00000  Uiso   1.00
O1336  O     0.96008   0.76036   0.80030   0.00000  Uiso   1.00
O1337  O     0.99281   0.87828   0.92050   0.00000  Uiso   1.00
O1338  O     0.70659   0.90631   0.86637   0.00000  Uiso   1.00
O1339  O     0.71838   0.79194   0.93519   0.00000  Uiso   1.00
O1340  O     0.77586   0.74027   0.93759   0.00000  Uiso   1.00
O1341  O     0.94828   0.87473   0.73148   0.00000  Uiso   1.00
O1342  O     0.89081   0.92640   0.72908   0.00000  Uiso   1.00
O1343  O     0.83334   0.89345   0.79375   0.00000  Uiso   1.00
O1344  O     0.83333   0.77321   0.79372   0.00000  Uiso   1.00
O1345  O     0.83334   0.89346   0.87294   0.00000  Uiso   1.00
O1346  O     0.75828   0.83334   0.86379   0.00000  Uiso   1.00
O1347  O     0.90839   0.83333   0.80288   0.00000  Uiso   1.00
O1348  O     0.75828   0.83333   0.78460   0.00000  Uiso   1.00
O1349  O     0.90839   0.83334   0.88207   0.00000  Uiso   1.00
O1350  O     0.67385   0.78839   0.74616   0.00000  Uiso   1.00
loop_
_geom_bond_atom_site_label_1
_geom_bond_atom_site_label_2
_geom_bond_distance
_geom_bond_site_symmetry_2
_ccdc_geom_bond_type
C1     O44     1.293   .     A
C1     C4      1.447   .     S
C1     O35     1.297   .     A
C2     C4      1.399   .     A
C2     H27     1.083   .     S
C2     C319    1.384   1_545 S
C3     C19     1.401   .     A
C3     C20     1.399   .     A
C3     C12     1.447   .     S
C4     C18     1.401   .     A
C5     H28     1.083   .     S
C5     N34     1.358   .     A
C5     C907    1.417   1_554 S
C6     N33     1.358   .     A
C6     H29     1.083   .     S
C6     C458    1.417   .     S
C7     C11     1.468   .     S
C7     N33     1.383   .     A
C7     C455    1.417   .     S
C8     C13     1.468   .     S
C8     N34     1.383   .     A
C8     C906    1.417   1_554 S
C9     O36     1.400   .     S
C9     C66     1.496   .     S
C9     O100    1.223   .     S
C10    O38     1.400   .     S
C10    C117    1.496   1_455 S
C10    O137    1.223   1_455 S
C11    O40     1.396   .     S
C11    O39     1.222   .     D
C12    O43     1.297   .     A
C12    O45     1.293   .     A
C13    O41     1.222   .     D
C13    O42     1.396   .     S
C14    O46     1.287   .     A
C14    C16     1.437   .     S
C14    O48     1.293   .     A
C15    O47     1.287   .     A
C15    O49     1.293   .     A
C15    C17     1.437   .     S
C16    C109    1.496   1_455 S
C16    C117    1.358   1_455 S
C17    C66     1.358   .     S
C17    C60     1.496   .     S
C18    H23     1.083   .     S
C18    C320    1.384   1_545 S
C19    H25     1.083   .     S
C19    C152    1.384   .     S
C20    H26     1.083   .     S
C20    C168    1.384   .     S
Cu21   O35     1.963   .     S
Cu21   Cu22    2.692   .     S
Cu21   O49     1.965   .     S
Cu21   O45     1.959   .     S
Cu21   N33     2.023   .     S
Cu21   O46     1.971   .     S
Cu22   O48     1.965   .     S
Cu22   O43     1.963   .     S
Cu22   O47     1.971   .     S
Cu22   N34     2.023   .     S
Cu22   O44     1.959   .     S
H24    O42     1.014   .     S
H30    O36     1.014   .     S
H31    O38     1.014   .     S
H32    O40     1.014   .     S
O37    C60     1.223   .     S
O50    C109    1.223   1_455 S
C51    O94     1.293   .     A
C51    C54     1.447   .     S
C51    O85     1.297   .     A
C52    C54     1.399   .     A
C52    H77     1.083   .     S
C52    C369    1.384   1_545 S
C53    C69     1.401   .     A
C53    C70     1.399   .     A
C53    C62     1.447   .     S
C54    C68     1.401   .     A
C55    H78     1.083   .     S
C55    N84     1.358   .     A
C55    C957    1.417   1_554 S
C56    N83     1.358   .     A
C56    H79     1.083   .     S
C56    C508    1.417   .     S
C57    C61     1.468   .     S
C57    N83     1.383   .     A
C57    C505    1.417   .     S
C58    C63     1.468   .     S
C58    N84     1.383   .     A
C58    C956    1.417   1_554 S
C59    O86     1.400   .     S
C59    C116    1.496   .     S
C59    O150    1.223   .     S
C60    O88     1.400   .     S
C61    O90     1.396   .     S
C61    O89     1.222   .     D
C62    O93     1.297   .     A
C62    O95     1.293   .     A
C63    O91     1.222   .     D
C63    O92     1.396   .     S
C64    O96     1.287   .     A
C64    C66     1.437   .     S
C64    O98     1.293   .     A
C65    O97     1.287   .     A
C65    O99     1.293   .     A
C65    C67     1.437   .     S
C67    C116    1.358   .     S
C67    C110    1.496   .     S
C68    H73     1.083   .     S
C68    C370    1.384   1_545 S
C69    H75     1.083   .     S
C69    C202    1.384   .     S
C70    H76     1.083   .     S
C70    C218    1.384   .     S
Cu71   O85     1.963   .     S
Cu71   Cu72    2.692   .     S
Cu71   O99     1.965   .     S
Cu71   O95     1.959   .     S
Cu71   N83     2.023   .     S
Cu71   O96     1.971   .     S
Cu72   O98     1.965   .     S
Cu72   O93     1.963   .     S
Cu72   O97     1.971   .     S
Cu72   N84     2.023   .     S
Cu72   O94     1.959   .     S
H74    O92     1.014   .     S
H80    O86     1.014   .     S
H81    O88     1.014   .     S
H82    O90     1.014   .     S
O87    C110    1.223   .     S
C101   O144    1.293   .     A
C101   C104    1.447   .     S
C101   O135    1.297   .     A
C102   C104    1.399   .     A
C102   H127    1.083   .     S
C102   C419    1.384   1_545 S
C103   C119    1.401   .     A
C103   C120    1.399   .     A
C103   C112    1.447   .     S
C104   C118    1.401   .     A
C105   H128    1.083   .     S
C105   N134    1.358   .     A
C105   C1007   1.417   1_554 S
C106   N133    1.358   .     A
C106   H129    1.083   .     S
C106   C558    1.417   .     S
C107   C111    1.468   .     S
C107   N133    1.383   .     A
C107   C555    1.417   .     S
C108   C113    1.468   .     S
C108   N134    1.383   .     A
C108   C1006   1.417   1_554 S
C109   O136    1.400   .     S
C109   C16     1.496   1_655 S
C109   O50     1.223   1_655 S
C110   O138    1.400   .     S
C111   O140    1.396   .     S
C111   O139    1.222   .     D
C112   O143    1.297   .     A
C112   O145    1.293   .     A
C113   O141    1.222   .     D
C113   O142    1.396   .     S
C114   O146    1.287   .     A
C114   C116    1.437   .     S
C114   O148    1.293   .     A
C115   O147    1.287   .     A
C115   O149    1.293   .     A
C115   C117    1.437   .     S
C117   C16     1.358   1_655 S
C117   C10     1.496   1_655 S
C118   H123    1.083   .     S
C118   C420    1.384   1_545 S
C119   H125    1.083   .     S
C119   C252    1.384   .     S
C120   H126    1.083   .     S
C120   C268    1.384   .     S
Cu121  O135    1.963   .     S
Cu121  Cu122   2.692   .     S
Cu121  O149    1.965   .     S
Cu121  O145    1.959   .     S
Cu121  N133    2.023   .     S
Cu121  O146    1.971   .     S
Cu122  O148    1.965   .     S
Cu122  O143    1.963   .     S
Cu122  O147    1.971   .     S
Cu122  N134    2.023   .     S
Cu122  O144    1.959   .     S
H124   O142    1.014   .     S
H130   O136    1.014   .     S
H131   O138    1.014   .     S
H132   O140    1.014   .     S
O137   C10     1.223   1_655 S
C151   O194    1.293   .     A
C151   C154    1.447   .     S
C151   O185    1.297   .     A
C152   C154    1.399   .     A
C152   H177    1.083   .     S
C153   C169    1.401   .     A
C153   C170    1.399   .     A
C153   C162    1.447   .     S
C154   C168    1.401   .     A
C155   H178    1.083   .     S
C155   N184    1.358   .     A
C155   C1057   1.417   1_554 S
C156   N183    1.358   .     A
C156   H179    1.083   .     S
C156   C608    1.417   .     S
C157   C161    1.468   .     S
C157   N183    1.383   .     A
C157   C605    1.417   .     S
C158   C163    1.468   .     S
C158   N184    1.383   .     A
C158   C1056   1.417   1_554 S
C159   O186    1.400   .     S
C159   C216    1.496   .     S
C159   O250    1.223   .     S
C160   O188    1.400   .     S
C160   C267    1.496   1_455 S
C160   O287    1.223   1_455 S
C161   O190    1.396   .     S
C161   O189    1.222   .     D
C162   O193    1.297   .     A
C162   O195    1.293   .     A
C163   O191    1.222   .     D
C163   O192    1.396   .     S
C164   O196    1.287   .     A
C164   C166    1.437   .     S
C164   O198    1.293   .     A
C165   O197    1.287   .     A
C165   O199    1.293   .     A
C165   C167    1.437   .     S
C166   C259    1.496   1_455 S
C166   C267    1.358   1_455 S
C167   C216    1.358   .     S
C167   C210    1.496   .     S
C168   H173    1.083   .     S
C169   H175    1.083   .     S
C169   C302    1.384   .     S
C170   H176    1.083   .     S
C170   C318    1.384   .     S
Cu171  O185    1.963   .     S
Cu171  Cu172   2.692   .     S
Cu171  O199    1.965   .     S
Cu171  O195    1.959   .     S
Cu171  N183    2.023   .     S
Cu171  O196    1.971   .     S
Cu172  O198    1.965   .     S
Cu172  O193    1.963   .     S
Cu172  O197    1.971   .     S
Cu172  N184    2.023   .     S
Cu172  O194    1.959   .     S
H174   O192    1.014   .     S
H180   O186    1.014   .     S
H181   O188    1.014   .     S
H182   O190    1.014   .     S
O187   C210    1.223   .     S
O200   C259    1.223   1_455 S
C201   O244    1.293   .     A
C201   C204    1.447   .     S
C201   O235    1.297   .     A
C202   C204    1.399   .     A
C202   H227    1.083   .     S
C203   C219    1.401   .     A
C203   C220    1.399   .     A
C203   C212    1.447   .     S
C204   C218    1.401   .     A
C205   H228    1.083   .     S
C205   N234    1.358   .     A
C205   C1107   1.417   1_554 S
C206   N233    1.358   .     A
C206   H229    1.083   .     S
C206   C658    1.417   .     S
C207   C211    1.468   .     S
C207   N233    1.383   .     A
C207   C655    1.417   .     S
C208   C213    1.468   .     S
C208   N234    1.383   .     A
C208   C1106   1.417   1_554 S
C209   O236    1.400   .     S
C209   C266    1.496   .     S
C209   O300    1.223   .     S
C210   O238    1.400   .     S
C211   O240    1.396   .     S
C211   O239    1.222   .     D
C212   O243    1.297   .     A
C212   O245    1.293   .     A
C213   O241    1.222   .     D
C213   O242    1.396   .     S
C214   O246    1.287   .     A
C214   C216    1.437   .     S
C214   O248    1.293   .     A
C215   O247    1.287   .     A
C215   O249    1.293   .     A
C215   C217    1.437   .     S
C217   C266    1.358   .     S
C217   C260    1.496   .     S
C218   H223    1.083   .     S
C219   H225    1.083   .     S
C219   C352    1.384   .     S
C220   H226    1.083   .     S
C220   C368    1.384   .     S
Cu221  O235    1.963   .     S
Cu221  Cu222   2.692   .     S
Cu221  O249    1.965   .     S
Cu221  O245    1.959   .     S
Cu221  N233    2.023   .     S
Cu221  O246    1.971   .     S
Cu222  O248    1.965   .     S
Cu222  O243    1.963   .     S
Cu222  O247    1.971   .     S
Cu222  N234    2.023   .     S
Cu222  O244    1.959   .     S
H224   O242    1.014   .     S
H230   O236    1.014   .     S
H231   O238    1.014   .     S
H232   O240    1.014   .     S
O237   C260    1.223   .     S
C251   O294    1.293   .     A
C251   C254    1.447   .     S
C251   O285    1.297   .     A
C252   C254    1.399   .     A
C252   H277    1.083   .     S
C253   C269    1.401   .     A
C253   C270    1.399   .     A
C253   C262    1.447   .     S
C254   C268    1.401   .     A
C255   H278    1.083   .     S
C255   N284    1.358   .     A
C255   C1157   1.417   1_554 S
C256   N283    1.358   .     A
C256   H279    1.083   .     S
C256   C708    1.417   .     S
C257   C261    1.468   .     S
C257   N283    1.383   .     A
C257   C705    1.417   .     S
C258   C263    1.468   .     S
C258   N284    1.383   .     A
C258   C1156   1.417   1_554 S
C259   O286    1.400   .     S
C259   C166    1.496   1_655 S
C259   O200    1.223   1_655 S
C260   O288    1.400   .     S
C261   O290    1.396   .     S
C261   O289    1.222   .     D
C262   O293    1.297   .     A
C262   O295    1.293   .     A
C263   O291    1.222   .     D
C263   O292    1.396   .     S
C264   O296    1.287   .     A
C264   C266    1.437   .     S
C264   O298    1.293   .     A
C265   O297    1.287   .     A
C265   O299    1.293   .     A
C265   C267    1.437   .     S
C267   C166    1.358   1_655 S
C267   C160    1.496   1_655 S
C268   H273    1.083   .     S
C269   H275    1.083   .     S
C269   C402    1.384   .     S
C270   H276    1.083   .     S
C270   C418    1.384   .     S
Cu271  O285    1.963   .     S
Cu271  Cu272   2.692   .     S
Cu271  O299    1.965   .     S
Cu271  O295    1.959   .     S
Cu271  N283    2.023   .     S
Cu271  O296    1.971   .     S
Cu272  O298    1.965   .     S
Cu272  O293    1.963   .     S
Cu272  O297    1.971   .     S
Cu272  N284    2.023   .     S
Cu272  O294    1.959   .     S
H274   O292    1.014   .     S
H280   O286    1.014   .     S
H281   O288    1.014   .     S
H282   O290    1.014   .     S
O287   C160    1.223   1_655 S
C301   O344    1.293   .     A
C301   C304    1.447   .     S
C301   O335    1.297   .     A
C302   C304    1.399   .     A
C302   H327    1.083   .     S
C303   C319    1.401   .     A
C303   C320    1.399   .     A
C303   C312    1.447   .     S
C304   C318    1.401   .     A
C305   H328    1.083   .     S
C305   N334    1.358   .     A
C305   C1207   1.417   1_554 S
C306   N333    1.358   .     A
C306   H329    1.083   .     S
C306   C758    1.417   .     S
C307   C311    1.468   .     S
C307   N333    1.383   .     A
C307   C755    1.417   .     S
C308   C313    1.468   .     S
C308   N334    1.383   .     A
C308   C1206   1.417   1_554 S
C309   O336    1.400   .     S
C309   C366    1.496   .     S
C309   O400    1.223   .     S
C310   O338    1.400   .     S
C310   C417    1.496   1_455 S
C310   O437    1.223   1_455 S
C311   O340    1.396   .     S
C311   O339    1.222   .     D
C312   O343    1.297   .     A
C312   O345    1.293   .     A
C313   O341    1.222   .     D
C313   O342    1.396   .     S
C314   O346    1.287   .     A
C314   C316    1.437   .     S
C314   O348    1.293   .     A
C315   O347    1.287   .     A
C315   O349    1.293   .     A
C315   C317    1.437   .     S
C316   C409    1.496   1_455 S
C316   C417    1.358   1_455 S
C317   C366    1.358   .     S
C317   C360    1.496   .     S
C318   H323    1.083   .     S
C319   H325    1.083   .     S
C319   C2      1.384   1_565 S
C320   H326    1.083   .     S
C320   C18     1.384   1_565 S
Cu321  O335    1.963   .     S
Cu321  Cu322   2.692   .     S
Cu321  O349    1.965   .     S
Cu321  O345    1.959   .     S
Cu321  N333    2.023   .     S
Cu321  O346    1.971   .     S
Cu322  O348    1.965   .     S
Cu322  O343    1.963   .     S
Cu322  O347    1.971   .     S
Cu322  N334    2.023   .     S
Cu322  O344    1.959   .     S
H324   O342    1.014   .     S
H330   O336    1.014   .     S
H331   O338    1.014   .     S
H332   O340    1.014   .     S
O337   C360    1.223   .     S
O350   C409    1.223   1_455 S
C351   O394    1.293   .     A
C351   C354    1.447   .     S
C351   O385    1.297   .     A
C352   C354    1.399   .     A
C352   H377    1.083   .     S
C353   C369    1.401   .     A
C353   C370    1.399   .     A
C353   C362    1.447   .     S
C354   C368    1.401   .     A
C355   H378    1.083   .     S
C355   N384    1.358   .     A
C355   C1257   1.417   1_554 S
C356   N383    1.358   .     A
C356   H379    1.083   .     S
C356   C808    1.417   .     S
C357   C361    1.468   .     S
C357   N383    1.383   .     A
C357   C805    1.417   .     S
C358   C363    1.468   .     S
C358   N384    1.383   .     A
C358   C1256   1.417   1_554 S
C359   O386    1.400   .     S
C359   C416    1.496   .     S
C359   O450    1.223   .     S
C360   O388    1.400   .     S
C361   O390    1.396   .     S
C361   O389    1.222   .     D
C362   O393    1.297   .     A
C362   O395    1.293   .     A
C363   O391    1.222   .     D
C363   O392    1.396   .     S
C364   O396    1.287   .     A
C364   C366    1.437   .     S
C364   O398    1.293   .     A
C365   O397    1.287   .     A
C365   O399    1.293   .     A
C365   C367    1.437   .     S
C367   C416    1.358   .     S
C367   C410    1.496   .     S
C368   H373    1.083   .     S
C369   H375    1.083   .     S
C369   C52     1.384   1_565 S
C370   H376    1.083   .     S
C370   C68     1.384   1_565 S
Cu371  O385    1.963   .     S
Cu371  Cu372   2.692   .     S
Cu371  O399    1.965   .     S
Cu371  O395    1.959   .     S
Cu371  N383    2.023   .     S
Cu371  O396    1.971   .     S
Cu372  O398    1.965   .     S
Cu372  O393    1.963   .     S
Cu372  O397    1.971   .     S
Cu372  N384    2.023   .     S
Cu372  O394    1.959   .     S
H374   O392    1.014   .     S
H380   O386    1.014   .     S
H381   O388    1.014   .     S
H382   O390    1.014   .     S
O387   C410    1.223   .     S
C401   O444    1.293   .     A
C401   C404    1.447   .     S
C401   O435    1.297   .     A
C402   C404    1.399   .     A
C402   H427    1.083   .     S
C403   C419    1.401   .     A
C403   C420    1.399   .     A
C403   C412    1.447   .     S
C404   C418    1.401   .     A
C405   H428    1.083   .     S
C405   N434    1.358   .     A
C405   C1307   1.417   1_554 S
C406   N433    1.358   .     A
C406   H429    1.083   .     S
C406   C858    1.417   .     S
C407   C411    1.468   .     S
C407   N433    1.383   .     A
C407   C855    1.417   .     S
C408   C413    1.468   .     S
C408   N434    1.383   .     A
C408   C1306   1.417   1_554 S
C409   O436    1.400   .     S
C409   C316    1.496   1_655 S
C409   O350    1.223   1_655 S
C410   O438    1.400   .     S
C411   O440    1.396   .     S
C411   O439    1.222   .     D
C412   O443    1.297   .     A
C412   O445    1.293   .     A
C413   O441    1.222   .     D
C413   O442    1.396   .     S
C414   O446    1.287   .     A
C414   C416    1.437   .     S
C414   O448    1.293   .     A
C415   O447    1.287   .     A
C415   O449    1.293   .     A
C415   C417    1.437   .     S
C417   C316    1.358   1_655 S
C417   C310    1.496   1_655 S
C418   H423    1.083   .     S
C419   H425    1.083   .     S
C419   C102    1.384   1_565 S
C420   H426    1.083   .     S
C420   C118    1.384   1_565 S
Cu421  O435    1.963   .     S
Cu421  Cu422   2.692   .     S
Cu421  O449    1.965   .     S
Cu421  O445    1.959   .     S
Cu421  N433    2.023   .     S
Cu421  O446    1.971   .     S
Cu422  O448    1.965   .     S
Cu422  O443    1.963   .     S
Cu422  O447    1.971   .     S
Cu422  N434    2.023   .     S
Cu422  O444    1.959   .     S
H424   O442    1.014   .     S
H430   O436    1.014   .     S
H431   O438    1.014   .     S
H432   O440    1.014   .     S
O437   C310    1.223   1_655 S
C451   O494    1.293   .     A
C451   C454    1.447   .     S
C451   O485    1.297   .     A
C452   C454    1.399   .     A
C452   H477    1.083   .     S
C452   C769    1.384   1_545 S
C453   C469    1.401   .     A
C453   C470    1.399   .     A
C453   C462    1.447   .     S
C454   C468    1.401   .     A
C455   H478    1.083   .     S
C455   N484    1.358   .     A
C456   N483    1.358   .     A
C456   H479    1.083   .     S
C456   C908    1.417   .     S
C457   C461    1.468   .     S
C457   N483    1.383   .     A
C457   C905    1.417   .     S
C458   C463    1.468   .     S
C458   N484    1.383   .     A
C459   O486    1.400   .     S
C459   C516    1.496   .     S
C459   O550    1.223   .     S
C460   O488    1.400   .     S
C460   C567    1.496   1_455 S
C460   O587    1.223   1_455 S
C461   O490    1.396   .     S
C461   O489    1.222   .     D
C462   O493    1.297   .     A
C462   O495    1.293   .     A
C463   O491    1.222   .     D
C463   O492    1.396   .     S
C464   O496    1.287   .     A
C464   C466    1.437   .     S
C464   O498    1.293   .     A
C465   O497    1.287   .     A
C465   O499    1.293   .     A
C465   C467    1.437   .     S
C466   C559    1.496   1_455 S
C466   C567    1.358   1_455 S
C467   C516    1.358   .     S
C467   C510    1.496   .     S
C468   H473    1.083   .     S
C468   C770    1.384   1_545 S
C469   H475    1.083   .     S
C469   C602    1.384   .     S
C470   H476    1.083   .     S
C470   C618    1.384   .     S
Cu471  O485    1.963   .     S
Cu471  Cu472   2.692   .     S
Cu471  O499    1.965   .     S
Cu471  O495    1.959   .     S
Cu471  N483    2.023   .     S
Cu471  O496    1.971   .     S
Cu472  O498    1.965   .     S
Cu472  O493    1.963   .     S
Cu472  O497    1.971   .     S
Cu472  N484    2.023   .     S
Cu472  O494    1.959   .     S
H474   O492    1.014   .     S
H480   O486    1.014   .     S
H481   O488    1.014   .     S
H482   O490    1.014   .     S
O487   C510    1.223   .     S
O500   C559    1.223   1_455 S
C501   O544    1.293   .     A
C501   C504    1.447   .     S
C501   O535    1.297   .     A
C502   C504    1.399   .     A
C502   H527    1.083   .     S
C502   C819    1.384   1_545 S
C503   C519    1.401   .     A
C503   C520    1.399   .     A
C503   C512    1.447   .     S
C504   C518    1.401   .     A
C505   H528    1.083   .     S
C505   N534    1.358   .     A
C506   N533    1.358   .     A
C506   H529    1.083   .     S
C506   C958    1.417   .     S
C507   C511    1.468   .     S
C507   N533    1.383   .     A
C507   C955    1.417   .     S
C508   C513    1.468   .     S
C508   N534    1.383   .     A
C509   O536    1.400   .     S
C509   C566    1.496   .     S
C509   O600    1.223   .     S
C510   O538    1.400   .     S
C511   O540    1.396   .     S
C511   O539    1.222   .     D
C512   O543    1.297   .     A
C512   O545    1.293   .     A
C513   O541    1.222   .     D
C513   O542    1.396   .     S
C514   O546    1.287   .     A
C514   C516    1.437   .     S
C514   O548    1.293   .     A
C515   O547    1.287   .     A
C515   O549    1.293   .     A
C515   C517    1.437   .     S
C517   C566    1.358   .     S
C517   C560    1.496   .     S
C518   H523    1.083   .     S
C518   C820    1.384   1_545 S
C519   H525    1.083   .     S
C519   C652    1.384   .     S
C520   H526    1.083   .     S
C520   C668    1.384   .     S
Cu521  O535    1.963   .     S
Cu521  Cu522   2.692   .     S
Cu521  O549    1.965   .     S
Cu521  O545    1.959   .     S
Cu521  N533    2.023   .     S
Cu521  O546    1.971   .     S
Cu522  O548    1.965   .     S
Cu522  O543    1.963   .     S
Cu522  O547    1.971   .     S
Cu522  N534    2.023   .     S
Cu522  O544    1.959   .     S
H524   O542    1.014   .     S
H530   O536    1.014   .     S
H531   O538    1.014   .     S
H532   O540    1.014   .     S
O537   C560    1.223   .     S
C551   O594    1.293   .     A
C551   C554    1.447   .     S
C551   O585    1.297   .     A
C552   C554    1.399   .     A
C552   H577    1.083   .     S
C552   C869    1.384   1_545 S
C553   C569    1.401   .     A
C553   C570    1.399   .     A
C553   C562    1.447   .     S
C554   C568    1.401   .     A
C555   H578    1.083   .     S
C555   N584    1.358   .     A
C556   N583    1.358   .     A
C556   H579    1.083   .     S
C556   C1008   1.417   .     S
C557   C561    1.468   .     S
C557   N583    1.383   .     A
C557   C1005   1.417   .     S
C558   C563    1.468   .     S
C558   N584    1.383   .     A
C559   O586    1.400   .     S
C559   C466    1.496   1_655 S
C559   O500    1.223   1_655 S
C560   O588    1.400   .     S
C561   O590    1.396   .     S
C561   O589    1.222   .     D
C562   O593    1.297   .     A
C562   O595    1.293   .     A
C563   O591    1.222   .     D
C563   O592    1.396   .     S
C564   O596    1.287   .     A
C564   C566    1.437   .     S
C564   O598    1.293   .     A
C565   O597    1.287   .     A
C565   O599    1.293   .     A
C565   C567    1.437   .     S
C567   C466    1.358   1_655 S
C567   C460    1.496   1_655 S
C568   H573    1.083   .     S
C568   C870    1.384   1_545 S
C569   H575    1.083   .     S
C569   C702    1.384   .     S
C570   H576    1.083   .     S
C570   C718    1.384   .     S
Cu571  O585    1.963   .     S
Cu571  Cu572   2.692   .     S
Cu571  O599    1.965   .     S
Cu571  O595    1.959   .     S
Cu571  N583    2.023   .     S
Cu571  O596    1.971   .     S
Cu572  O598    1.965   .     S
Cu572  O593    1.963   .     S
Cu572  O597    1.971   .     S
Cu572  N584    2.023   .     S
Cu572  O594    1.959   .     S
H574   O592    1.014   .     S
H580   O586    1.014   .     S
H581   O588    1.014   .     S
H582   O590    1.014   .     S
O587   C460    1.223   1_655 S
C601   O644    1.293   .     A
C601   C604    1.447   .     S
C601   O635    1.297   .     A
C602   C604    1.399   .     A
C602   H627    1.083   .     S
C603   C619    1.401   .     A
C603   C620    1.399   .     A
C603   C612    1.447   .     S
C604   C618    1.401   .     A
C605   H628    1.083   .     S
C605   N634    1.358   .     A
C606   N633    1.358   .     A
C606   H629    1.083   .     S
C606   C1058   1.417   .     S
C607   C611    1.468   .     S
C607   N633    1.383   .     A
C607   C1055   1.417   .     S
C608   C613    1.468   .     S
C608   N634    1.383   .     A
C609   O636    1.400   .     S
C609   C666    1.496   .     S
C609   O700    1.223   .     S
C610   O638    1.400   .     S
C610   C717    1.496   1_455 S
C610   O737    1.223   1_455 S
C611   O640    1.396   .     S
C611   O639    1.222   .     D
C612   O643    1.297   .     A
C612   O645    1.293   .     A
C613   O641    1.222   .     D
C613   O642    1.396   .     S
C614   O646    1.287   .     A
C614   C616    1.437   .     S
C614   O648    1.293   .     A
C615   O647    1.287   .     A
C615   O649    1.293   .     A
C615   C617    1.437   .     S
C616   C709    1.496   1_455 S
C616   C717    1.358   1_455 S
C617   C666    1.358   .     S
C617   C660    1.496   .     S
C618   H623    1.083   .     S
C619   H625    1.083   .     S
C619   C752    1.384   .     S
C620   H626    1.083   .     S
C620   C768    1.384   .     S
Cu621  O635    1.963   .     S
Cu621  Cu622   2.692   .     S
Cu621  O649    1.965   .     S
Cu621  O645    1.959   .     S
Cu621  N633    2.023   .     S
Cu621  O646    1.971   .     S
Cu622  O648    1.965   .     S
Cu622  O643    1.963   .     S
Cu622  O647    1.971   .     S
Cu622  N634    2.023   .     S
Cu622  O644    1.959   .     S
H624   O642    1.014   .     S
H630   O636    1.014   .     S
H631   O638    1.014   .     S
H632   O640    1.014   .     S
O637   C660    1.223   .     S
O650   C709    1.223   1_455 S
C651   O694    1.293   .     A
C651   C654    1.447   .     S
C651   O685    1.297   .     A
C652   C654    1.399   .     A
C652   H677    1.083   .     S
C653   C669    1.401   .     A
C653   C670    1.399   .     A
C653   C662    1.447   .     S
C654   C668    1.401   .     A
C655   H678    1.083   .     S
C655   N684    1.358   .     A
C656   N683    1.358   .     A
C656   H679    1.083   .     S
C656   C1108   1.417   .     S
C657   C661    1.468   .     S
C657   N683    1.383   .     A
C657   C1105   1.417   .     S
C658   C663    1.468   .     S
C658   N684    1.383   .     A
C659   O686    1.400   .     S
C659   C716    1.496   .     S
C659   O750    1.223   .     S
C660   O688    1.400   .     S
C661   O690    1.396   .     S
C661   O689    1.222   .     D
C662   O693    1.297   .     A
C662   O695    1.293   .     A
C663   O691    1.222   .     D
C663   O692    1.396   .     S
C664   O696    1.287   .     A
C664   C666    1.437   .     S
C664   O698    1.293   .     A
C665   O697    1.287   .     A
C665   O699    1.293   .     A
C665   C667    1.437   .     S
C667   C716    1.358   .     S
C667   C710    1.496   .     S
C668   H673    1.083   .     S
C669   H675    1.083   .     S
C669   C802    1.384   .     S
C670   H676    1.083   .     S
C670   C818    1.384   .     S
Cu671  O685    1.963   .     S
Cu671  Cu672   2.692   .     S
Cu671  O699    1.965   .     S
Cu671  O695    1.959   .     S
Cu671  N683    2.023   .     S
Cu671  O696    1.971   .     S
Cu672  O698    1.965   .     S
Cu672  O693    1.963   .     S
Cu672  O697    1.971   .     S
Cu672  N684    2.023   .     S
Cu672  O694    1.959   .     S
H674   O692    1.014   .     S
H680   O686    1.014   .     S
H681   O688    1.014   .     S
H682   O690    1.014   .     S
O687   C710    1.223   .     S
C701   O744    1.293   .     A
C701   C704    1.447   .     S
C701   O735    1.297   .     A
C702   C704    1.399   .     A
C702   H727    1.083   .     S
C703   C719    1.401   .     A
C703   C720    1.399   .     A
C703   C712    1.447   .     S
C704   C718    1.401   .     A
C705   H728    1.083   .     S
C705   N734    1.358   .     A
C706   N733    1.358   .     A
C706   H729    1.083   .     S
C706   C1158   1.417   .     S
C707   C711    1.468   .     S
C707   N733    1.383   .     A
C707   C1155   1.417   .     S
C708   C713    1.468   .     S
C708   N734    1.383   .     A
C709   O736    1.400   .     S
C709   C616    1.496   1_655 S
C709   O650    1.223   1_655 S
C710   O738    1.400   .     S
C711   O740    1.396   .     S
C711   O739    1.222   .     D
C712   O743    1.297   .     A
C712   O745    1.293   .     A
C713   O741    1.222   .     D
C713   O742    1.396   .     S
C714   O746    1.287   .     A
C714   C716    1.437   .     S
C714   O748    1.293   .     A
C715   O747    1.287   .     A
C715   O749    1.293   .     A
C715   C717    1.437   .     S
C717   C616    1.358   1_655 S
C717   C610    1.496   1_655 S
C718   H723    1.083   .     S
C719   H725    1.083   .     S
C719   C852    1.384   .     S
C720   H726    1.083   .     S
C720   C868    1.384   .     S
Cu721  O735    1.963   .     S
Cu721  Cu722   2.692   .     S
Cu721  O749    1.965   .     S
Cu721  O745    1.959   .     S
Cu721  N733    2.023   .     S
Cu721  O746    1.971   .     S
Cu722  O748    1.965   .     S
Cu722  O743    1.963   .     S
Cu722  O747    1.971   .     S
Cu722  N734    2.023   .     S
Cu722  O744    1.959   .     S
H724   O742    1.014   .     S
H730   O736    1.014   .     S
H731   O738    1.014   .     S
H732   O740    1.014   .     S
O737   C610    1.223   1_655 S
C751   O794    1.293   .     A
C751   C754    1.447   .     S
C751   O785    1.297   .     A
C752   C754    1.399   .     A
C752   H777    1.083   .     S
C753   C769    1.401   .     A
C753   C770    1.399   .     A
C753   C762    1.447   .     S
C754   C768    1.401   .     A
C755   H778    1.083   .     S
C755   N784    1.358   .     A
C756   N783    1.358   .     A
C756   H779    1.083   .     S
C756   C1208   1.417   .     S
C757   C761    1.468   .     S
C757   N783    1.383   .     A
C757   C1205   1.417   .     S
C758   C763    1.468   .     S
C758   N784    1.383   .     A
C759   O786    1.400   .     S
C759   C816    1.496   .     S
C759   O850    1.223   .     S
C760   O788    1.400   .     S
C760   C867    1.496   1_455 S
C760   O887    1.223   1_455 S
C761   O790    1.396   .     S
C761   O789    1.222   .     D
C762   O793    1.297   .     A
C762   O795    1.293   .     A
C763   O791    1.222   .     D
C763   O792    1.396   .     S
C764   O796    1.287   .     A
C764   C766    1.437   .     S
C764   O798    1.293   .     A
C765   O797    1.287   .     A
C765   O799    1.293   .     A
C765   C767    1.437   .     S
C766   C859    1.496   1_455 S
C766   C867    1.358   1_455 S
C767   C816    1.358   .     S
C767   C810    1.496   .     S
C768   H773    1.083   .     S
C769   H775    1.083   .     S
C769   C452    1.384   1_565 S
C770   H776    1.083   .     S
C770   C468    1.384   1_565 S
Cu771  O785    1.963   .     S
Cu771  Cu772   2.692   .     S
Cu771  O799    1.965   .     S
Cu771  O795    1.959   .     S
Cu771  N783    2.023   .     S
Cu771  O796    1.971   .     S
Cu772  O798    1.965   .     S
Cu772  O793    1.963   .     S
Cu772  O797    1.971   .     S
Cu772  N784    2.023   .     S
Cu772  O794    1.959   .     S
H774   O792    1.014   .     S
H780   O786    1.014   .     S
H781   O788    1.014   .     S
H782   O790    1.014   .     S
O787   C810    1.223   .     S
O800   C859    1.223   1_455 S
C801   O844    1.293   .     A
C801   C804    1.447   .     S
C801   O835    1.297   .     A
C802   C804    1.399   .     A
C802   H827    1.083   .     S
C803   C819    1.401   .     A
C803   C820    1.399   .     A
C803   C812    1.447   .     S
C804   C818    1.401   .     A
C805   H828    1.083   .     S
C805   N834    1.358   .     A
C806   N833    1.358   .     A
C806   H829    1.083   .     S
C806   C1258   1.417   .     S
C807   C811    1.468   .     S
C807   N833    1.383   .     A
C807   C1255   1.417   .     S
C808   C813    1.468   .     S
C808   N834    1.383   .     A
C809   O836    1.400   .     S
C809   C866    1.496   .     S
C809   O900    1.223   .     S
C810   O838    1.400   .     S
C811   O840    1.396   .     S
C811   O839    1.222   .     D
C812   O843    1.297   .     A
C812   O845    1.293   .     A
C813   O841    1.222   .     D
C813   O842    1.396   .     S
C814   O846    1.287   .     A
C814   C816    1.437   .     S
C814   O848    1.293   .     A
C815   O847    1.287   .     A
C815   O849    1.293   .     A
C815   C817    1.437   .     S
C817   C866    1.358   .     S
C817   C860    1.496   .     S
C818   H823    1.083   .     S
C819   H825    1.083   .     S
C819   C502    1.384   1_565 S
C820   H826    1.083   .     S
C820   C518    1.384   1_565 S
Cu821  O835    1.963   .     S
Cu821  Cu822   2.692   .     S
Cu821  O849    1.965   .     S
Cu821  O845    1.959   .     S
Cu821  N833    2.023   .     S
Cu821  O846    1.971   .     S
Cu822  O848    1.965   .     S
Cu822  O843    1.963   .     S
Cu822  O847    1.971   .     S
Cu822  N834    2.023   .     S
Cu822  O844    1.959   .     S
H824   O842    1.014   .     S
H830   O836    1.014   .     S
H831   O838    1.014   .     S
H832   O840    1.014   .     S
O837   C860    1.223   .     S
C851   O894    1.293   .     A
C851   C854    1.447   .     S
C851   O885    1.297   .     A
C852   C854    1.399   .     A
C852   H877    1.083   .     S
C853   C869    1.401   .     A
C853   C870    1.399   .     A
C853   C862    1.447   .     S
C854   C868    1.401   .     A
C855   H878    1.083   .     S
C855   N884    1.358   .     A
C856   N883    1.358   .     A
C856   H879    1.083   .     S
C856   C1308   1.417   .     S
C857   C861    1.468   .     S
C857   N883    1.383   .     A
C857   C1305   1.417   .     S
C858   C863    1.468   .     S
C858   N884    1.383   .     A
C859   O886    1.400   .     S
C859   C766    1.496   1_655 S
C859   O800    1.223   1_655 S
C860   O888    1.400   .     S
C861   O890    1.396   .     S
C861   O889    1.222   .     D
C862   O893    1.297   .     A
C862   O895    1.293   .     A
C863   O891    1.222   .     D
C863   O892    1.396   .     S
C864   O896    1.287   .     A
C864   C866    1.437   .     S
C864   O898    1.293   .     A
C865   O897    1.287   .     A
C865   O899    1.293   .     A
C865   C867    1.437   .     S
C867   C766    1.358   1_655 S
C867   C760    1.496   1_655 S
C868   H873    1.083   .     S
C869   H875    1.083   .     S
C869   C552    1.384   1_565 S
C870   H876    1.083   .     S
C870   C568    1.384   1_565 S
Cu871  O885    1.963   .     S
Cu871  Cu872   2.692   .     S
Cu871  O899    1.965   .     S
Cu871  O895    1.959   .     S
Cu871  N883    2.023   .     S
Cu871  O896    1.971   .     S
Cu872  O898    1.965   .     S
Cu872  O893    1.963   .     S
Cu872  O897    1.971   .     S
Cu872  N884    2.023   .     S
Cu872  O894    1.959   .     S
H874   O892    1.014   .     S
H880   O886    1.014   .     S
H881   O888    1.014   .     S
H882   O890    1.014   .     S
O887   C760    1.223   1_655 S
C901   O944    1.293   .     A
C901   C904    1.447   .     S
C901   O935    1.297   .     A
C902   C904    1.399   .     A
C902   H927    1.083   .     S
C902   C1219   1.384   1_545 S
C903   C919    1.401   .     A
C903   C920    1.399   .     A
C903   C912    1.447   .     S
C904   C918    1.401   .     A
C905   H928    1.083   .     S
C905   N934    1.358   .     A
C906   N933    1.358   .     A
C906   H929    1.083   .     S
C906   C8      1.417   1_556 S
C907   C911    1.468   .     S
C907   N933    1.383   .     A
C907   C5      1.417   1_556 S
C908   C913    1.468   .     S
C908   N934    1.383   .     A
C909   O936    1.400   .     S
C909   C966    1.496   .     S
C909   O1000   1.223   .     S
C910   O938    1.400   .     S
C910   C1017   1.496   1_455 S
C910   O1037   1.223   1_455 S
C911   O940    1.396   .     S
C911   O939    1.222   .     D
C912   O943    1.297   .     A
C912   O945    1.293   .     A
C913   O941    1.222   .     D
C913   O942    1.396   .     S
C914   O946    1.287   .     A
C914   C916    1.437   .     S
C914   O948    1.293   .     A
C915   O947    1.287   .     A
C915   O949    1.293   .     A
C915   C917    1.437   .     S
C916   C1009   1.496   1_455 S
C916   C1017   1.358   1_455 S
C917   C966    1.358   .     S
C917   C960    1.496   .     S
C918   H923    1.083   .     S
C918   C1220   1.384   1_545 S
C919   H925    1.083   .     S
C919   C1052   1.384   .     S
C920   H926    1.083   .     S
C920   C1068   1.384   .     S
Cu921  O935    1.963   .     S
Cu921  Cu922   2.692   .     S
Cu921  O949    1.965   .     S
Cu921  O945    1.959   .     S
Cu921  N933    2.023   .     S
Cu921  O946    1.971   .     S
Cu922  O948    1.965   .     S
Cu922  O943    1.963   .     S
Cu922  O947    1.971   .     S
Cu922  N934    2.023   .     S
Cu922  O944    1.959   .     S
H924   O942    1.014   .     S
H930   O936    1.014   .     S
H931   O938    1.014   .     S
H932   O940    1.014   .     S
O937   C960    1.223   .     S
O950   C1009   1.223   1_455 S
C951   O994    1.293   .     A
C951   C954    1.447   .     S
C951   O985    1.297   .     A
C952   C954    1.399   .     A
C952   H977    1.083   .     S
C952   C1269   1.384   1_545 S
C953   C969    1.401   .     A
C953   C970    1.399   .     A
C953   C962    1.447   .     S
C954   C968    1.401   .     A
C955   H978    1.083   .     S
C955   N984    1.358   .     A
C956   N983    1.358   .     A
C956   H979    1.083   .     S
C956   C58     1.417   1_556 S
C957   C961    1.468   .     S
C957   N983    1.383   .     A
C957   C55     1.417   1_556 S
C958   C963    1.468   .     S
C958   N984    1.383   .     A
C959   O986    1.400   .     S
C959   C1016   1.496   .     S
C959   O1050   1.223   .     S
C960   O988    1.400   .     S
C961   O990    1.396   .     S
C961   O989    1.222   .     D
C962   O993    1.297   .     A
C962   O995    1.293   .     A
C963   O991    1.222   .     D
C963   O992    1.396   .     S
C964   O996    1.287   .     A
C964   C966    1.437   .     S
C964   O998    1.293   .     A
C965   O997    1.287   .     A
C965   O999    1.293   .     A
C965   C967    1.437   .     S
C967   C1016   1.358   .     S
C967   C1010   1.496   .     S
C968   H973    1.083   .     S
C968   C1270   1.384   1_545 S
C969   H975    1.083   .     S
C969   C1102   1.384   .     S
C970   H976    1.083   .     S
C970   C1118   1.384   .     S
Cu971  O985    1.963   .     S
Cu971  Cu972   2.692   .     S
Cu971  O999    1.965   .     S
Cu971  O995    1.959   .     S
Cu971  N983    2.023   .     S
Cu971  O996    1.971   .     S
Cu972  O998    1.965   .     S
Cu972  O993    1.963   .     S
Cu972  O997    1.971   .     S
Cu972  N984    2.023   .     S
Cu972  O994    1.959   .     S
H974   O992    1.014   .     S
H980   O986    1.014   .     S
H981   O988    1.014   .     S
H982   O990    1.014   .     S
O987   C1010   1.223   .     S
C1001  O1044   1.293   .     A
C1001  C1004   1.447   .     S
C1001  O1035   1.297   .     A
C1002  C1004   1.399   .     A
C1002  H1027   1.083   .     S
C1002  C1319   1.384   1_545 S
C1003  C1019   1.401   .     A
C1003  C1020   1.399   .     A
C1003  C1012   1.447   .     S
C1004  C1018   1.401   .     A
C1005  H1028   1.083   .     S
C1005  N1034   1.358   .     A
C1006  N1033   1.358   .     A
C1006  H1029   1.083   .     S
C1006  C108    1.417   1_556 S
C1007  C1011   1.468   .     S
C1007  N1033   1.383   .     A
C1007  C105    1.417   1_556 S
C1008  C1013   1.468   .     S
C1008  N1034   1.383   .     A
C1009  O1036   1.400   .     S
C1009  C916    1.496   1_655 S
C1009  O950    1.223   1_655 S
C1010  O1038   1.400   .     S
C1011  O1040   1.396   .     S
C1011  O1039   1.222   .     D
C1012  O1043   1.297   .     A
C1012  O1045   1.293   .     A
C1013  O1041   1.222   .     D
C1013  O1042   1.396   .     S
C1014  O1046   1.287   .     A
C1014  C1016   1.437   .     S
C1014  O1048   1.293   .     A
C1015  O1047   1.287   .     A
C1015  O1049   1.293   .     A
C1015  C1017   1.437   .     S
C1017  C916    1.358   1_655 S
C1017  C910    1.496   1_655 S
C1018  H1023   1.083   .     S
C1018  C1320   1.384   1_545 S
C1019  H1025   1.083   .     S
C1019  C1152   1.384   .     S
C1020  H1026   1.083   .     S
C1020  C1168   1.384   .     S
Cu1021 O1035   1.963   .     S
Cu1021 Cu1022  2.692   .     S
Cu1021 O1049   1.965   .     S
Cu1021 O1045   1.959   .     S
Cu1021 N1033   2.023   .     S
Cu1021 O1046   1.971   .     S
Cu1022 O1048   1.965   .     S
Cu1022 O1043   1.963   .     S
Cu1022 O1047   1.971   .     S
Cu1022 N1034   2.023   .     S
Cu1022 O1044   1.959   .     S
H1024  O1042   1.014   .     S
H1030  O1036   1.014   .     S
H1031  O1038   1.014   .     S
H1032  O1040   1.014   .     S
O1037  C910    1.223   1_655 S
C1051  O1094   1.293   .     A
C1051  C1054   1.447   .     S
C1051  O1085   1.297   .     A
C1052  C1054   1.399   .     A
C1052  H1077   1.083   .     S
C1053  C1069   1.401   .     A
C1053  C1070   1.399   .     A
C1053  C1062   1.447   .     S
C1054  C1068   1.401   .     A
C1055  H1078   1.083   .     S
C1055  N1084   1.358   .     A
C1056  N1083   1.358   .     A
C1056  H1079   1.083   .     S
C1056  C158    1.417   1_556 S
C1057  C1061   1.468   .     S
C1057  N1083   1.383   .     A
C1057  C155    1.417   1_556 S
C1058  C1063   1.468   .     S
C1058  N1084   1.383   .     A
C1059  O1086   1.400   .     S
C1059  C1116   1.496   .     S
C1059  O1150   1.223   .     S
C1060  O1088   1.400   .     S
C1060  C1167   1.496   1_455 S
C1060  O1187   1.223   1_455 S
C1061  O1090   1.396   .     S
C1061  O1089   1.222   .     D
C1062  O1093   1.297   .     A
C1062  O1095   1.293   .     A
C1063  O1091   1.222   .     D
C1063  O1092   1.396   .     S
C1064  O1096   1.287   .     A
C1064  C1066   1.437   .     S
C1064  O1098   1.293   .     A
C1065  O1097   1.287   .     A
C1065  O1099   1.293   .     A
C1065  C1067   1.437   .     S
C1066  C1159   1.496   1_455 S
C1066  C1167   1.358   1_455 S
C1067  C1116   1.358   .     S
C1067  C1110   1.496   .     S
C1068  H1073   1.083   .     S
C1069  H1075   1.083   .     S
C1069  C1202   1.384   .     S
C1070  H1076   1.083   .     S
C1070  C1218   1.384   .     S
Cu1071 O1085   1.963   .     S
Cu1071 Cu1072  2.692   .     S
Cu1071 O1099   1.965   .     S
Cu1071 O1095   1.959   .     S
Cu1071 N1083   2.023   .     S
Cu1071 O1096   1.971   .     S
Cu1072 O1098   1.965   .     S
Cu1072 O1093   1.963   .     S
Cu1072 O1097   1.971   .     S
Cu1072 N1084   2.023   .     S
Cu1072 O1094   1.959   .     S
H1074  O1092   1.014   .     S
H1080  O1086   1.014   .     S
H1081  O1088   1.014   .     S
H1082  O1090   1.014   .     S
O1087  C1110   1.223   .     S
O1100  C1159   1.223   1_455 S
C1101  O1144   1.293   .     A
C1101  C1104   1.447   .     S
C1101  O1135   1.297   .     A
C1102  C1104   1.399   .     A
C1102  H1127   1.083   .     S
C1103  C1119   1.401   .     A
C1103  C1120   1.399   .     A
C1103  C1112   1.447   .     S
C1104  C1118   1.401   .     A
C1105  H1128   1.083   .     S
C1105  N1134   1.358   .     A
C1106  N1133   1.358   .     A
C1106  H1129   1.083   .     S
C1106  C208    1.417   1_556 S
C1107  C1111   1.468   .     S
C1107  N1133   1.383   .     A
C1107  C205    1.417   1_556 S
C1108  C1113   1.468   .     S
C1108  N1134   1.383   .     A
C1109  O1136   1.400   .     S
C1109  C1166   1.496   .     S
C1109  O1200   1.223   .     S
C1110  O1138   1.400   .     S
C1111  O1140   1.396   .     S
C1111  O1139   1.222   .     D
C1112  O1143   1.297   .     A
C1112  O1145   1.293   .     A
C1113  O1141   1.222   .     D
C1113  O1142   1.396   .     S
C1114  O1146   1.287   .     A
C1114  C1116   1.437   .     S
C1114  O1148   1.293   .     A
C1115  O1147   1.287   .     A
C1115  O1149   1.293   .     A
C1115  C1117   1.437   .     S
C1117  C1166   1.358   .     S
C1117  C1160   1.496   .     S
C1118  H1123   1.083   .     S
C1119  H1125   1.083   .     S
C1119  C1252   1.384   .     S
C1120  H1126   1.083   .     S
C1120  C1268   1.384   .     S
Cu1121 O1135   1.963   .     S
Cu1121 Cu1122  2.692   .     S
Cu1121 O1149   1.965   .     S
Cu1121 O1145   1.959   .     S
Cu1121 N1133   2.023   .     S
Cu1121 O1146   1.971   .     S
Cu1122 O1148   1.965   .     S
Cu1122 O1143   1.963   .     S
Cu1122 O1147   1.971   .     S
Cu1122 N1134   2.023   .     S
Cu1122 O1144   1.959   .     S
H1124  O1142   1.014   .     S
H1130  O1136   1.014   .     S
H1131  O1138   1.014   .     S
H1132  O1140   1.014   .     S
O1137  C1160   1.223   .     S
C1151  O1194   1.293   .     A
C1151  C1154   1.447   .     S
C1151  O1185   1.297   .     A
C1152  C1154   1.399   .     A
C1152  H1177   1.083   .     S
C1153  C1169   1.401   .     A
C1153  C1170   1.399   .     A
C1153  C1162   1.447   .     S
C1154  C1168   1.401   .     A
C1155  H1178   1.083   .     S
C1155  N1184   1.358   .     A
C1156  N1183   1.358   .     A
C1156  H1179   1.083   .     S
C1156  C258    1.417   1_556 S
C1157  C1161   1.468   .     S
C1157  N1183   1.383   .     A
C1157  C255    1.417   1_556 S
C1158  C1163   1.468   .     S
C1158  N1184   1.383   .     A
C1159  O1186   1.400   .     S
C1159  C1066   1.496   1_655 S
C1159  O1100   1.223   1_655 S
C1160  O1188   1.400   .     S
C1161  O1190   1.396   .     S
C1161  O1189   1.222   .     D
C1162  O1193   1.297   .     A
C1162  O1195   1.293   .     A
C1163  O1191   1.222   .     D
C1163  O1192   1.396   .     S
C1164  O1196   1.287   .     A
C1164  C1166   1.437   .     S
C1164  O1198   1.293   .     A
C1165  O1197   1.287   .     A
C1165  O1199   1.293   .     A
C1165  C1167   1.437   .     S
C1167  C1066   1.358   1_655 S
C1167  C1060   1.496   1_655 S
C1168  H1173   1.083   .     S
C1169  H1175   1.083   .     S
C1169  C1302   1.384   .     S
C1170  H1176   1.083   .     S
C1170  C1318   1.384   .     S
Cu1171 O1185   1.963   .     S
Cu1171 Cu1172  2.692   .     S
Cu1171 O1199   1.965   .     S
Cu1171 O1195   1.959   .     S
Cu1171 N1183   2.023   .     S
Cu1171 O1196   1.971   .     S
Cu1172 O1198   1.965   .     S
Cu1172 O1193   1.963   .     S
Cu1172 O1197   1.971   .     S
Cu1172 N1184   2.023   .     S
Cu1172 O1194   1.959   .     S
H1174  O1192   1.014   .     S
H1180  O1186   1.014   .     S
H1181  O1188   1.014   .     S
H1182  O1190   1.014   .     S
O1187  C1060   1.223   1_655 S
C1201  O1244   1.293   .     A
C1201  C1204   1.447   .     S
C1201  O1235   1.297   .     A
C1202  C1204   1.399   .     A
C1202  H1227   1.083   .     S
C1203  C1219   1.401   .     A
C1203  C1220   1.399   .     A
C1203  C1212   1.447   .     S
C1204  C1218   1.401   .     A
C1205  H1228   1.083   .     S
C1205  N1234   1.358   .     A
C1206  N1233   1.358   .     A
C1206  H1229   1.083   .     S
C1206  C308    1.417   1_556 S
C1207  C1211   1.468   .     S
C1207  N1233   1.383   .     A
C1207  C305    1.417   1_556 S
C1208  C1213   1.468   .     S
C1208  N1234   1.383   .     A
C1209  O1236   1.400   .     S
C1209  C1266   1.496   .     S
C1209  O1300   1.223   .     S
C1210  O1238   1.400   .     S
C1210  C1317   1.496   1_455 S
C1210  O1337   1.223   1_455 S
C1211  O1240   1.396   .     S
C1211  O1239   1.222   .     D
C1212  O1243   1.297   .     A
C1212  O1245   1.293   .     A
C1213  O1241   1.222   .     D
C1213  O1242   1.396   .     S
C1214  O1246   1.287   .     A
C1214  C1216   1.437   .     S
C1214  O1248   1.293   .     A
C1215  O1247   1.287   .     A
C1215  O1249   1.293   .     A
C1215  C1217   1.437   .     S
C1216  C1309   1.496   1_455 S
C1216  C1317   1.358   1_455 S
C1217  C1266   1.358   .     S
C1217  C1260   1.496   .     S
C1218  H1223   1.083   .     S
C1219  H1225   1.083   .     S
C1219  C902    1.384   1_565 S
C1220  H1226   1.083   .     S
C1220  C918    1.384   1_565 S
Cu1221 O1235   1.963   .     S
Cu1221 Cu1222  2.692   .     S
Cu1221 O1249   1.965   .     S
Cu1221 O1245   1.959   .     S
Cu1221 N1233   2.023   .     S
Cu1221 O1246   1.971   .     S
Cu1222 O1248   1.965   .     S
Cu1222 O1243   1.963   .     S
Cu1222 O1247   1.971   .     S
Cu1222 N1234   2.023   .     S
Cu1222 O1244   1.959   .     S
H1224  O1242   1.014   .     S
H1230  O1236   1.014   .     S
H1231  O1238   1.014   .     S
H1232  O1240   1.014   .     S
O1237  C1260   1.223   .     S
O1250  C1309   1.223   1_455 S
C1251  O1294   1.293   .     A
C1251  C1254   1.447   .     S
C1251  O1285   1.297   .     A
C1252  C1254   1.399   .     A
C1252  H1277   1.083   .     S
C1253  C1269   1.401   .     A
C1253  C1270   1.399   .     A
C1253  C1262   1.447   .     S
C1254  C1268   1.401   .     A
C1255  H1278   1.083   .     S
C1255  N1284   1.358   .     A
C1256  N1283   1.358   .     A
C1256  H1279   1.083   .     S
C1256  C358    1.417   1_556 S
C1257  C1261   1.468   .     S
C1257  N1283   1.383   .     A
C1257  C355    1.417   1_556 S
C1258  C1263   1.468   .     S
C1258  N1284   1.383   .     A
C1259  O1286   1.400   .     S
C1259  C1316   1.496   .     S
C1259  O1350   1.223   .     S
C1260  O1288   1.400   .     S
C1261  O1290   1.396   .     S
C1261  O1289   1.222   .     D
C1262  O1293   1.297   .     A
C1262  O1295   1.293   .     A
C1263  O1291   1.222   .     D
C1263  O1292   1.396   .     S
C1264  O1296   1.287   .     A
C1264  C1266   1.437   .     S
C1264  O1298   1.293   .     A
C1265  O1297   1.287   .     A
C1265  O1299   1.293   .     A
C1265  C1267   1.437   .     S
C1267  C1316   1.358   .     S
C1267  C1310   1.496   .     S
C1268  H1273   1.083   .     S
C1269  H1275   1.083   .     S
C1269  C952    1.384   1_565 S
C1270  H1276   1.083   .     S
C1270  C968    1.384   1_565 S
Cu1271 O1285   1.963   .     S
Cu1271 Cu1272  2.692   .     S
Cu1271 O1299   1.965   .     S
Cu1271 O1295   1.959   .     S
Cu1271 N1283   2.023   .     S
Cu1271 O1296   1.971   .     S
Cu1272 O1298   1.965   .     S
Cu1272 O1293   1.963   .     S
Cu1272 O1297   1.971   .     S
Cu1272 N1284   2.023   .     S
Cu1272 O1294   1.959   .     S
H1274  O1292   1.014   .     S
H1280  O1286   1.014   .     S
H1281  O1288   1.014   .     S
H1282  O1290   1.014   .     S
O1287  C1310   1.223   .     S
C1301  O1344   1.293   .     A
C1301  C1304   1.447   .     S
C1301  O1335   1.297   .     A
C1302  C1304   1.399   .     A
C1302  H1327   1.083   .     S
C1303  C1319   1.401   .     A
C1303  C1320   1.399   .     A
C1303  C1312   1.447   .     S
C1304  C1318   1.401   .     A
C1305  H1328   1.083   .     S
C1305  N1334   1.358   .     A
C1306  N1333   1.358   .     A
C1306  H1329   1.083   .     S
C1306  C408    1.417   1_556 S
C1307  C1311   1.468   .     S
C1307  N1333   1.383   .     A
C1307  C405    1.417   1_556 S
C1308  C1313   1.468   .     S
C1308  N1334   1.383   .     A
C1309  O1336   1.400   .     S
C1309  C1216   1.496   1_655 S
C1309  O1250   1.223   1_655 S
C1310  O1338   1.400   .     S
C1311  O1340   1.396   .     S
C1311  O1339   1.222   .     D
C1312  O1343   1.297   .     A
C1312  O1345   1.293   .     A
C1313  O1341   1.222   .     D
C1313  O1342   1.396   .     S
C1314  O1346   1.287   .     A
C1314  C1316   1.437   .     S
C1314  O1348   1.293   .     A
C1315  O1347   1.287   .     A
C1315  O1349   1.293   .     A
C1315  C1317   1.437   .     S
C1317  C1216   1.358   1_655 S
C1317  C1210   1.496   1_655 S
C1318  H1323   1.083   .     S
C1319  H1325   1.083   .     S
C1319  C1002   1.384   1_565 S
C1320  H1326   1.083   .     S
C1320  C1018   1.384   1_565 S
Cu1321 O1335   1.963   .     S
Cu1321 Cu1322  2.692   .     S
Cu1321 O1349   1.965   .     S
Cu1321 O1345   1.959   .     S
Cu1321 N1333   2.023   .     S
Cu1321 O1346   1.971   .     S
Cu1322 O1348   1.965   .     S
Cu1322 O1343   1.963   .     S
Cu1322 O1347   1.971   .     S
Cu1322 N1334   2.023   .     S
Cu1322 O1344   1.959   .     S
H1324  O1342   1.014   .     S
H1330  O1336   1.014   .     S
H1331  O1338   1.014   .     S
H1332  O1340   1.014   .     S
O1337  C1210   1.223   1_655 S
