data_str_m2_o1_o18_pcu_sym.172
_audit_creation_date              2020-01-03
_audit_creation_method            'Materials Studio'
_symmetry_space_group_name_H-M    'P1'
_symmetry_Int_Tables_number       1
_symmetry_cell_setting            triclinic
loop_
_symmetry_equiv_pos_as_xyz
  x,y,z
_cell_length_a                    28.6278
_cell_length_b                    32.4948
_cell_length_c                    30.8968
_cell_angle_alpha                 89.4204
_cell_angle_beta                  74.6880
_cell_angle_gamma                 89.7858
loop_
_atom_site_label
_atom_site_type_symbol
_atom_site_fract_x
_atom_site_fract_y
_atom_site_fract_z
_atom_site_U_iso_or_equiv
_atom_site_adp_type
_atom_site_occupancy
C1     C     0.00002   0.08738   0.25005   0.00000  Uiso   1.00
C2     C     0.33331   0.24595   0.24994   0.00000  Uiso   1.00
C3     C     0.19473   0.17468   0.04742   0.00000  Uiso   1.00
C4     C     0.14138   0.14247   0.45523   0.00000  Uiso   1.00
C5     C     0.24321   0.17938   0.02496   0.00000  Uiso   1.00
C6     C     0.09304   0.13708   0.47786   0.00000  Uiso   1.00
C7     C     0.29092   0.02144   0.24997   0.00000  Uiso   1.00
C8     C     0.04242   0.31190   0.25000   0.00000  Uiso   1.00
C9     C     0.29088   0.31219   0.24990   0.00000  Uiso   1.00
C10    C     0.04246   0.02114   0.25007   0.00000  Uiso   1.00
C11    C     0.33330   0.29058   0.24993   0.00000  Uiso   1.00
C12    C     0.00004   0.04275   0.25005   0.00000  Uiso   1.00
C13    C     0.18355   0.14203   0.27900   0.00000  Uiso   1.00
C14    C     0.14979   0.19130   0.22099   0.00000  Uiso   1.00
C15    C     0.13401   0.14195   0.27913   0.00000  Uiso   1.00
C16    C     0.19932   0.19138   0.22087   0.00000  Uiso   1.00
C17    C     0.30615   0.16669   0.33611   0.00000  Uiso   1.00
C18    C     0.02718   0.16629   0.16392   0.00000  Uiso   1.00
C19    C     0.29117   0.16749   0.38535   0.00000  Uiso   1.00
C20    C     0.04230   0.16250   0.11493   0.00000  Uiso   1.00
C21    C     0.30786   0.18054   0.45661   0.00000  Uiso   1.00
C22    C     0.02751   0.14021   0.04543   0.00000  Uiso   1.00
C23    C     0.32405   0.17675   0.41021   0.00000  Uiso   1.00
C24    C     0.01044   0.14829   0.09106   0.00000  Uiso   1.00
C25    C     0.24241   0.16061   0.40744   0.00000  Uiso   1.00
C26    C     0.09088   0.16966   0.09259   0.00000  Uiso   1.00
C27    C     0.22524   0.16334   0.45435   0.00000  Uiso   1.00
C28    C     0.10953   0.16022   0.04697   0.00000  Uiso   1.00
C29    C     0.25883   0.17431   0.47876   0.00000  Uiso   1.00
C30    C     0.07663   0.14597   0.02328   0.00000  Uiso   1.00
C31    C     0.17557   0.15679   0.47742   0.00000  Uiso   1.00
C32    C     0.15972   0.16429   0.02441   0.00000  Uiso   1.00
Cu33   Cu    0.04689   0.16667   0.25000   0.00000  Uiso   1.00
Cu34   Cu    0.28645   0.16666   0.25000   0.00000  Uiso   1.00
H35    H     0.26862   0.18754   0.04398   0.00000  Uiso   1.00
H36    H     0.06826   0.12579   0.45954   0.00000  Uiso   1.00
H37    H     0.11334   0.18262   0.11190   0.00000  Uiso   1.00
H38    H     0.21829   0.15438   0.38692   0.00000  Uiso   1.00
H39    H     0.30610   0.14238   0.10783   0.00000  Uiso   1.00
H40    H     0.02856   0.18227   0.39374   0.00000  Uiso   1.00
H41    H     0.00025   0.18907   0.47511   0.00000  Uiso   1.00
H42    H     0.00248   0.12857   0.02762   0.00000  Uiso   1.00
H43    H     0.18631   0.17864   0.08319   0.00000  Uiso   1.00
H44    H     0.15079   0.13394   0.42043   0.00000  Uiso   1.00
H45    H     0.25773   0.03756   0.24996   0.00000  Uiso   1.00
H46    H     0.07561   0.29578   0.25001   0.00000  Uiso   1.00
H47    H     0.25770   0.29631   0.24984   0.00000  Uiso   1.00
H48    H     0.07564   0.03703   0.25013   0.00000  Uiso   1.00
H49    H     0.19609   0.12231   0.30210   0.00000  Uiso   1.00
H50    H     0.13724   0.21102   0.19790   0.00000  Uiso   1.00
N51    N     0.11736   0.16668   0.24999   0.00000  Uiso   1.00
N52    N     0.21597   0.16666   0.25001   0.00000  Uiso   1.00
O53    O     0.03958   0.10655   0.25000   0.00000  Uiso   1.00
O54    O     0.29375   0.22678   0.25000   0.00000  Uiso   1.00
O55    O     0.29372   0.10654   0.25001   0.00000  Uiso   1.00
O56    O     0.03961   0.22679   0.25000   0.00000  Uiso   1.00
O57    O     0.01852   0.16668   0.31492   0.00000  Uiso   1.00
O58    O     0.31481   0.16666   0.18509   0.00000  Uiso   1.00
O59    O     0.27267   0.16667   0.31492   0.00000  Uiso   1.00
O60    O     0.06067   0.16667   0.18508   0.00000  Uiso   1.00
C61    C     0.10156   0.11524   0.31049   0.00000  Uiso   1.00
N62    N     0.07570   0.09365   0.33583   0.00000  Uiso   1.00
C63    C     0.23178   0.21808   0.18952   0.00000  Uiso   1.00
N64    N     0.25765   0.23967   0.16417   0.00000  Uiso   1.00
C65    C     0.33336   0.08738   0.25005   0.00000  Uiso   1.00
C66    C     0.66664   0.24595   0.24994   0.00000  Uiso   1.00
C67    C     0.52806   0.17468   0.04742   0.00000  Uiso   1.00
C68    C     0.47471   0.14247   0.45523   0.00000  Uiso   1.00
C69    C     0.57654   0.17938   0.02496   0.00000  Uiso   1.00
C70    C     0.42637   0.13708   0.47786   0.00000  Uiso   1.00
C71    C     0.62425   0.02144   0.24997   0.00000  Uiso   1.00
C72    C     0.37575   0.31190   0.25000   0.00000  Uiso   1.00
C73    C     0.62422   0.31219   0.24990   0.00000  Uiso   1.00
C74    C     0.37579   0.02114   0.25007   0.00000  Uiso   1.00
C75    C     0.66663   0.29058   0.24993   0.00000  Uiso   1.00
C76    C     0.33338   0.04275   0.25005   0.00000  Uiso   1.00
C77    C     0.51688   0.14203   0.27900   0.00000  Uiso   1.00
C78    C     0.48312   0.19130   0.22099   0.00000  Uiso   1.00
C79    C     0.46735   0.14195   0.27913   0.00000  Uiso   1.00
C80    C     0.53266   0.19138   0.22087   0.00000  Uiso   1.00
C81    C     0.63949   0.16669   0.33611   0.00000  Uiso   1.00
C82    C     0.36051   0.16629   0.16392   0.00000  Uiso   1.00
C83    C     0.62450   0.16749   0.38535   0.00000  Uiso   1.00
C84    C     0.37564   0.16250   0.11493   0.00000  Uiso   1.00
C85    C     0.64119   0.18054   0.45661   0.00000  Uiso   1.00
C86    C     0.36085   0.14021   0.04543   0.00000  Uiso   1.00
C87    C     0.65738   0.17675   0.41021   0.00000  Uiso   1.00
C88    C     0.34378   0.14829   0.09106   0.00000  Uiso   1.00
C89    C     0.57575   0.16061   0.40744   0.00000  Uiso   1.00
C90    C     0.42421   0.16966   0.09259   0.00000  Uiso   1.00
C91    C     0.55857   0.16334   0.45435   0.00000  Uiso   1.00
C92    C     0.44286   0.16022   0.04697   0.00000  Uiso   1.00
C93    C     0.59216   0.17431   0.47876   0.00000  Uiso   1.00
C94    C     0.40996   0.14597   0.02328   0.00000  Uiso   1.00
C95    C     0.50890   0.15679   0.47742   0.00000  Uiso   1.00
C96    C     0.49305   0.16429   0.02441   0.00000  Uiso   1.00
Cu97   Cu    0.38022   0.16667   0.25000   0.00000  Uiso   1.00
Cu98   Cu    0.61978   0.16666   0.25000   0.00000  Uiso   1.00
H99    H     0.60196   0.18754   0.04398   0.00000  Uiso   1.00
H100   H     0.40159   0.12579   0.45954   0.00000  Uiso   1.00
H101   H     0.44667   0.18262   0.11190   0.00000  Uiso   1.00
H102   H     0.55162   0.15438   0.38692   0.00000  Uiso   1.00
H103   H     0.63943   0.14238   0.10783   0.00000  Uiso   1.00
H104   H     0.36189   0.18227   0.39374   0.00000  Uiso   1.00
H105   H     0.33358   0.18907   0.47511   0.00000  Uiso   1.00
H106   H     0.33581   0.12857   0.02762   0.00000  Uiso   1.00
H107   H     0.51964   0.17864   0.08319   0.00000  Uiso   1.00
H108   H     0.48412   0.13394   0.42043   0.00000  Uiso   1.00
H109   H     0.59107   0.03756   0.24996   0.00000  Uiso   1.00
H110   H     0.40894   0.29578   0.25001   0.00000  Uiso   1.00
H111   H     0.59104   0.29631   0.24984   0.00000  Uiso   1.00
H112   H     0.40897   0.03703   0.25013   0.00000  Uiso   1.00
H113   H     0.52943   0.12231   0.30210   0.00000  Uiso   1.00
H114   H     0.47058   0.21102   0.19790   0.00000  Uiso   1.00
N115   N     0.45069   0.16668   0.24999   0.00000  Uiso   1.00
N116   N     0.54931   0.16666   0.25001   0.00000  Uiso   1.00
O117   O     0.37291   0.10655   0.25000   0.00000  Uiso   1.00
O118   O     0.62709   0.22678   0.25000   0.00000  Uiso   1.00
O119   O     0.62706   0.10654   0.25001   0.00000  Uiso   1.00
O120   O     0.37294   0.22679   0.25000   0.00000  Uiso   1.00
O121   O     0.35186   0.16668   0.31492   0.00000  Uiso   1.00
O122   O     0.64814   0.16666   0.18509   0.00000  Uiso   1.00
O123   O     0.60600   0.16667   0.31492   0.00000  Uiso   1.00
O124   O     0.39400   0.16667   0.18508   0.00000  Uiso   1.00
C125   C     0.43489   0.11524   0.31049   0.00000  Uiso   1.00
N126   N     0.40903   0.09365   0.33583   0.00000  Uiso   1.00
C127   C     0.56511   0.21808   0.18952   0.00000  Uiso   1.00
N128   N     0.59098   0.23967   0.16417   0.00000  Uiso   1.00
C129   C     0.66669   0.08738   0.25005   0.00000  Uiso   1.00
C130   C     0.99998   0.24595   0.24994   0.00000  Uiso   1.00
C131   C     0.86140   0.17468   0.04742   0.00000  Uiso   1.00
C132   C     0.80805   0.14247   0.45523   0.00000  Uiso   1.00
C133   C     0.90988   0.17938   0.02496   0.00000  Uiso   1.00
C134   C     0.75971   0.13708   0.47786   0.00000  Uiso   1.00
C135   C     0.95759   0.02144   0.24997   0.00000  Uiso   1.00
C136   C     0.70909   0.31190   0.25000   0.00000  Uiso   1.00
C137   C     0.95755   0.31219   0.24990   0.00000  Uiso   1.00
C138   C     0.70912   0.02114   0.25007   0.00000  Uiso   1.00
C139   C     0.99996   0.29058   0.24993   0.00000  Uiso   1.00
C140   C     0.66671   0.04275   0.25005   0.00000  Uiso   1.00
C141   C     0.85021   0.14203   0.27900   0.00000  Uiso   1.00
C142   C     0.81645   0.19130   0.22099   0.00000  Uiso   1.00
C143   C     0.80068   0.14195   0.27913   0.00000  Uiso   1.00
C144   C     0.86599   0.19138   0.22087   0.00000  Uiso   1.00
C145   C     0.97282   0.16669   0.33611   0.00000  Uiso   1.00
C146   C     0.69384   0.16629   0.16392   0.00000  Uiso   1.00
C147   C     0.95783   0.16749   0.38535   0.00000  Uiso   1.00
C148   C     0.70897   0.16250   0.11493   0.00000  Uiso   1.00
C149   C     0.97453   0.18054   0.45661   0.00000  Uiso   1.00
C150   C     0.69418   0.14021   0.04543   0.00000  Uiso   1.00
C151   C     0.99072   0.17675   0.41021   0.00000  Uiso   1.00
C152   C     0.67711   0.14829   0.09106   0.00000  Uiso   1.00
C153   C     0.90908   0.16061   0.40744   0.00000  Uiso   1.00
C154   C     0.75754   0.16966   0.09259   0.00000  Uiso   1.00
C155   C     0.89191   0.16334   0.45435   0.00000  Uiso   1.00
C156   C     0.77619   0.16022   0.04697   0.00000  Uiso   1.00
C157   C     0.92550   0.17431   0.47876   0.00000  Uiso   1.00
C158   C     0.74330   0.14597   0.02328   0.00000  Uiso   1.00
C159   C     0.84224   0.15679   0.47742   0.00000  Uiso   1.00
C160   C     0.82638   0.16429   0.02441   0.00000  Uiso   1.00
Cu161  Cu    0.71355   0.16667   0.25000   0.00000  Uiso   1.00
Cu162  Cu    0.95311   0.16666   0.25000   0.00000  Uiso   1.00
H163   H     0.93529   0.18754   0.04398   0.00000  Uiso   1.00
H164   H     0.73493   0.12579   0.45954   0.00000  Uiso   1.00
H165   H     0.78000   0.18262   0.11190   0.00000  Uiso   1.00
H166   H     0.88495   0.15438   0.38692   0.00000  Uiso   1.00
H167   H     0.97276   0.14238   0.10783   0.00000  Uiso   1.00
H168   H     0.69523   0.18227   0.39374   0.00000  Uiso   1.00
H169   H     0.66692   0.18907   0.47511   0.00000  Uiso   1.00
H170   H     0.66915   0.12857   0.02762   0.00000  Uiso   1.00
H171   H     0.85297   0.17864   0.08319   0.00000  Uiso   1.00
H172   H     0.81745   0.13394   0.42043   0.00000  Uiso   1.00
H173   H     0.92440   0.03756   0.24996   0.00000  Uiso   1.00
H174   H     0.74227   0.29578   0.25001   0.00000  Uiso   1.00
H175   H     0.92437   0.29631   0.24984   0.00000  Uiso   1.00
H176   H     0.74230   0.03703   0.25013   0.00000  Uiso   1.00
H177   H     0.86276   0.12231   0.30210   0.00000  Uiso   1.00
H178   H     0.80391   0.21102   0.19790   0.00000  Uiso   1.00
N179   N     0.78403   0.16668   0.24999   0.00000  Uiso   1.00
N180   N     0.88264   0.16666   0.25001   0.00000  Uiso   1.00
O181   O     0.70625   0.10655   0.25000   0.00000  Uiso   1.00
O182   O     0.96042   0.22678   0.25000   0.00000  Uiso   1.00
O183   O     0.96039   0.10654   0.25001   0.00000  Uiso   1.00
O184   O     0.70628   0.22679   0.25000   0.00000  Uiso   1.00
O185   O     0.68519   0.16668   0.31492   0.00000  Uiso   1.00
O186   O     0.98148   0.16666   0.18509   0.00000  Uiso   1.00
O187   O     0.93933   0.16667   0.31492   0.00000  Uiso   1.00
O188   O     0.72733   0.16667   0.18508   0.00000  Uiso   1.00
C189   C     0.76823   0.11524   0.31049   0.00000  Uiso   1.00
N190   N     0.74237   0.09365   0.33583   0.00000  Uiso   1.00
C191   C     0.89845   0.21808   0.18952   0.00000  Uiso   1.00
N192   N     0.92431   0.23967   0.16417   0.00000  Uiso   1.00
C193   C     0.00002   0.42071   0.25005   0.00000  Uiso   1.00
C194   C     0.33331   0.57929   0.24994   0.00000  Uiso   1.00
C195   C     0.19473   0.50802   0.04742   0.00000  Uiso   1.00
C196   C     0.14138   0.47580   0.45523   0.00000  Uiso   1.00
C197   C     0.24321   0.51271   0.02496   0.00000  Uiso   1.00
C198   C     0.09304   0.47041   0.47786   0.00000  Uiso   1.00
C199   C     0.29092   0.35477   0.24997   0.00000  Uiso   1.00
C200   C     0.04242   0.64523   0.25000   0.00000  Uiso   1.00
C201   C     0.29088   0.64553   0.24990   0.00000  Uiso   1.00
C202   C     0.04246   0.35447   0.25007   0.00000  Uiso   1.00
C203   C     0.33330   0.62392   0.24993   0.00000  Uiso   1.00
C204   C     0.00004   0.37609   0.25005   0.00000  Uiso   1.00
C205   C     0.18355   0.47536   0.27900   0.00000  Uiso   1.00
C206   C     0.14979   0.52464   0.22099   0.00000  Uiso   1.00
C207   C     0.13401   0.47528   0.27913   0.00000  Uiso   1.00
C208   C     0.19932   0.52471   0.22087   0.00000  Uiso   1.00
C209   C     0.30615   0.50002   0.33611   0.00000  Uiso   1.00
C210   C     0.02718   0.49962   0.16392   0.00000  Uiso   1.00
C211   C     0.29117   0.50083   0.38535   0.00000  Uiso   1.00
C212   C     0.04230   0.49584   0.11493   0.00000  Uiso   1.00
C213   C     0.30786   0.51387   0.45661   0.00000  Uiso   1.00
C214   C     0.02751   0.47354   0.04543   0.00000  Uiso   1.00
C215   C     0.32405   0.51009   0.41021   0.00000  Uiso   1.00
C216   C     0.01044   0.48163   0.09106   0.00000  Uiso   1.00
C217   C     0.24241   0.49395   0.40744   0.00000  Uiso   1.00
C218   C     0.09088   0.50300   0.09259   0.00000  Uiso   1.00
C219   C     0.22524   0.49668   0.45435   0.00000  Uiso   1.00
C220   C     0.10953   0.49355   0.04697   0.00000  Uiso   1.00
C221   C     0.25883   0.50764   0.47876   0.00000  Uiso   1.00
C222   C     0.07663   0.47930   0.02328   0.00000  Uiso   1.00
C223   C     0.17557   0.49012   0.47742   0.00000  Uiso   1.00
C224   C     0.15972   0.49762   0.02441   0.00000  Uiso   1.00
Cu225  Cu    0.04689   0.50001   0.25000   0.00000  Uiso   1.00
Cu226  Cu    0.28645   0.49999   0.25000   0.00000  Uiso   1.00
H227   H     0.26862   0.52087   0.04398   0.00000  Uiso   1.00
H228   H     0.06826   0.45913   0.45954   0.00000  Uiso   1.00
H229   H     0.11334   0.51595   0.11190   0.00000  Uiso   1.00
H230   H     0.21829   0.48772   0.38692   0.00000  Uiso   1.00
H231   H     0.30610   0.47572   0.10783   0.00000  Uiso   1.00
H232   H     0.02856   0.51560   0.39374   0.00000  Uiso   1.00
H233   H     0.00025   0.52241   0.47511   0.00000  Uiso   1.00
H234   H     0.00248   0.46190   0.02762   0.00000  Uiso   1.00
H235   H     0.18631   0.51197   0.08319   0.00000  Uiso   1.00
H236   H     0.15079   0.46728   0.42043   0.00000  Uiso   1.00
H237   H     0.25773   0.37089   0.24996   0.00000  Uiso   1.00
H238   H     0.07561   0.62911   0.25001   0.00000  Uiso   1.00
H239   H     0.25770   0.62964   0.24984   0.00000  Uiso   1.00
H240   H     0.07564   0.37036   0.25013   0.00000  Uiso   1.00
H241   H     0.19609   0.45564   0.30210   0.00000  Uiso   1.00
H242   H     0.13724   0.54435   0.19790   0.00000  Uiso   1.00
N243   N     0.11736   0.50001   0.24999   0.00000  Uiso   1.00
N244   N     0.21597   0.49999   0.25001   0.00000  Uiso   1.00
O245   O     0.03958   0.43989   0.25000   0.00000  Uiso   1.00
O246   O     0.29375   0.56011   0.25000   0.00000  Uiso   1.00
O247   O     0.29372   0.43988   0.25001   0.00000  Uiso   1.00
O248   O     0.03961   0.56012   0.25000   0.00000  Uiso   1.00
O249   O     0.01852   0.50001   0.31492   0.00000  Uiso   1.00
O250   O     0.31481   0.49999   0.18509   0.00000  Uiso   1.00
O251   O     0.27267   0.50000   0.31492   0.00000  Uiso   1.00
O252   O     0.06067   0.50000   0.18508   0.00000  Uiso   1.00
C253   C     0.10156   0.44857   0.31049   0.00000  Uiso   1.00
N254   N     0.07570   0.42699   0.33583   0.00000  Uiso   1.00
C255   C     0.23178   0.55142   0.18952   0.00000  Uiso   1.00
N256   N     0.25765   0.57300   0.16417   0.00000  Uiso   1.00
C257   C     0.33336   0.42071   0.25005   0.00000  Uiso   1.00
C258   C     0.66664   0.57929   0.24994   0.00000  Uiso   1.00
C259   C     0.52806   0.50802   0.04742   0.00000  Uiso   1.00
C260   C     0.47471   0.47580   0.45523   0.00000  Uiso   1.00
C261   C     0.57654   0.51271   0.02496   0.00000  Uiso   1.00
C262   C     0.42637   0.47041   0.47786   0.00000  Uiso   1.00
C263   C     0.62425   0.35477   0.24997   0.00000  Uiso   1.00
C264   C     0.37575   0.64523   0.25000   0.00000  Uiso   1.00
C265   C     0.62422   0.64553   0.24990   0.00000  Uiso   1.00
C266   C     0.37579   0.35447   0.25007   0.00000  Uiso   1.00
C267   C     0.66663   0.62392   0.24993   0.00000  Uiso   1.00
C268   C     0.33338   0.37609   0.25005   0.00000  Uiso   1.00
C269   C     0.51688   0.47536   0.27900   0.00000  Uiso   1.00
C270   C     0.48312   0.52464   0.22099   0.00000  Uiso   1.00
C271   C     0.46735   0.47528   0.27913   0.00000  Uiso   1.00
C272   C     0.53266   0.52471   0.22087   0.00000  Uiso   1.00
C273   C     0.63949   0.50002   0.33611   0.00000  Uiso   1.00
C274   C     0.36051   0.49962   0.16392   0.00000  Uiso   1.00
C275   C     0.62450   0.50083   0.38535   0.00000  Uiso   1.00
C276   C     0.37564   0.49584   0.11493   0.00000  Uiso   1.00
C277   C     0.64119   0.51387   0.45661   0.00000  Uiso   1.00
C278   C     0.36085   0.47354   0.04543   0.00000  Uiso   1.00
C279   C     0.65738   0.51009   0.41021   0.00000  Uiso   1.00
C280   C     0.34378   0.48163   0.09106   0.00000  Uiso   1.00
C281   C     0.57575   0.49395   0.40744   0.00000  Uiso   1.00
C282   C     0.42421   0.50300   0.09259   0.00000  Uiso   1.00
C283   C     0.55857   0.49668   0.45435   0.00000  Uiso   1.00
C284   C     0.44286   0.49355   0.04697   0.00000  Uiso   1.00
C285   C     0.59216   0.50764   0.47876   0.00000  Uiso   1.00
C286   C     0.40996   0.47930   0.02328   0.00000  Uiso   1.00
C287   C     0.50890   0.49012   0.47742   0.00000  Uiso   1.00
C288   C     0.49305   0.49762   0.02441   0.00000  Uiso   1.00
Cu289  Cu    0.38022   0.50001   0.25000   0.00000  Uiso   1.00
Cu290  Cu    0.61978   0.49999   0.25000   0.00000  Uiso   1.00
H291   H     0.60196   0.52087   0.04398   0.00000  Uiso   1.00
H292   H     0.40159   0.45913   0.45954   0.00000  Uiso   1.00
H293   H     0.44667   0.51595   0.11190   0.00000  Uiso   1.00
H294   H     0.55162   0.48772   0.38692   0.00000  Uiso   1.00
H295   H     0.63943   0.47572   0.10783   0.00000  Uiso   1.00
H296   H     0.36189   0.51560   0.39374   0.00000  Uiso   1.00
H297   H     0.33358   0.52241   0.47511   0.00000  Uiso   1.00
H298   H     0.33581   0.46190   0.02762   0.00000  Uiso   1.00
H299   H     0.51964   0.51197   0.08319   0.00000  Uiso   1.00
H300   H     0.48412   0.46728   0.42043   0.00000  Uiso   1.00
H301   H     0.59107   0.37089   0.24996   0.00000  Uiso   1.00
H302   H     0.40894   0.62911   0.25001   0.00000  Uiso   1.00
H303   H     0.59104   0.62964   0.24984   0.00000  Uiso   1.00
H304   H     0.40897   0.37036   0.25013   0.00000  Uiso   1.00
H305   H     0.52943   0.45564   0.30210   0.00000  Uiso   1.00
H306   H     0.47058   0.54435   0.19790   0.00000  Uiso   1.00
N307   N     0.45069   0.50001   0.24999   0.00000  Uiso   1.00
N308   N     0.54931   0.49999   0.25001   0.00000  Uiso   1.00
O309   O     0.37291   0.43989   0.25000   0.00000  Uiso   1.00
O310   O     0.62709   0.56011   0.25000   0.00000  Uiso   1.00
O311   O     0.62706   0.43988   0.25001   0.00000  Uiso   1.00
O312   O     0.37294   0.56012   0.25000   0.00000  Uiso   1.00
O313   O     0.35186   0.50001   0.31492   0.00000  Uiso   1.00
O314   O     0.64814   0.49999   0.18509   0.00000  Uiso   1.00
O315   O     0.60600   0.50000   0.31492   0.00000  Uiso   1.00
O316   O     0.39400   0.50000   0.18508   0.00000  Uiso   1.00
C317   C     0.43489   0.44857   0.31049   0.00000  Uiso   1.00
N318   N     0.40903   0.42699   0.33583   0.00000  Uiso   1.00
C319   C     0.56511   0.55142   0.18952   0.00000  Uiso   1.00
N320   N     0.59098   0.57300   0.16417   0.00000  Uiso   1.00
C321   C     0.66669   0.42071   0.25005   0.00000  Uiso   1.00
C322   C     0.99998   0.57929   0.24994   0.00000  Uiso   1.00
C323   C     0.86140   0.50802   0.04742   0.00000  Uiso   1.00
C324   C     0.80805   0.47580   0.45523   0.00000  Uiso   1.00
C325   C     0.90988   0.51271   0.02496   0.00000  Uiso   1.00
C326   C     0.75971   0.47041   0.47786   0.00000  Uiso   1.00
C327   C     0.95759   0.35477   0.24997   0.00000  Uiso   1.00
C328   C     0.70909   0.64523   0.25000   0.00000  Uiso   1.00
C329   C     0.95755   0.64553   0.24990   0.00000  Uiso   1.00
C330   C     0.70912   0.35447   0.25007   0.00000  Uiso   1.00
C331   C     0.99996   0.62392   0.24993   0.00000  Uiso   1.00
C332   C     0.66671   0.37609   0.25005   0.00000  Uiso   1.00
C333   C     0.85021   0.47536   0.27900   0.00000  Uiso   1.00
C334   C     0.81645   0.52464   0.22099   0.00000  Uiso   1.00
C335   C     0.80068   0.47528   0.27913   0.00000  Uiso   1.00
C336   C     0.86599   0.52471   0.22087   0.00000  Uiso   1.00
C337   C     0.97282   0.50002   0.33611   0.00000  Uiso   1.00
C338   C     0.69384   0.49962   0.16392   0.00000  Uiso   1.00
C339   C     0.95783   0.50083   0.38535   0.00000  Uiso   1.00
C340   C     0.70897   0.49584   0.11493   0.00000  Uiso   1.00
C341   C     0.97453   0.51387   0.45661   0.00000  Uiso   1.00
C342   C     0.69418   0.47354   0.04543   0.00000  Uiso   1.00
C343   C     0.99072   0.51009   0.41021   0.00000  Uiso   1.00
C344   C     0.67711   0.48163   0.09106   0.00000  Uiso   1.00
C345   C     0.90908   0.49395   0.40744   0.00000  Uiso   1.00
C346   C     0.75754   0.50300   0.09259   0.00000  Uiso   1.00
C347   C     0.89191   0.49668   0.45435   0.00000  Uiso   1.00
C348   C     0.77619   0.49355   0.04697   0.00000  Uiso   1.00
C349   C     0.92550   0.50764   0.47876   0.00000  Uiso   1.00
C350   C     0.74330   0.47930   0.02328   0.00000  Uiso   1.00
C351   C     0.84224   0.49012   0.47742   0.00000  Uiso   1.00
C352   C     0.82638   0.49762   0.02441   0.00000  Uiso   1.00
Cu353  Cu    0.71355   0.50001   0.25000   0.00000  Uiso   1.00
Cu354  Cu    0.95311   0.49999   0.25000   0.00000  Uiso   1.00
H355   H     0.93529   0.52087   0.04398   0.00000  Uiso   1.00
H356   H     0.73493   0.45913   0.45954   0.00000  Uiso   1.00
H357   H     0.78000   0.51595   0.11190   0.00000  Uiso   1.00
H358   H     0.88495   0.48772   0.38692   0.00000  Uiso   1.00
H359   H     0.97276   0.47572   0.10783   0.00000  Uiso   1.00
H360   H     0.69523   0.51560   0.39374   0.00000  Uiso   1.00
H361   H     0.66692   0.52241   0.47511   0.00000  Uiso   1.00
H362   H     0.66915   0.46190   0.02762   0.00000  Uiso   1.00
H363   H     0.85297   0.51197   0.08319   0.00000  Uiso   1.00
H364   H     0.81745   0.46728   0.42043   0.00000  Uiso   1.00
H365   H     0.92440   0.37089   0.24996   0.00000  Uiso   1.00
H366   H     0.74227   0.62911   0.25001   0.00000  Uiso   1.00
H367   H     0.92437   0.62964   0.24984   0.00000  Uiso   1.00
H368   H     0.74230   0.37036   0.25013   0.00000  Uiso   1.00
H369   H     0.86276   0.45564   0.30210   0.00000  Uiso   1.00
H370   H     0.80391   0.54435   0.19790   0.00000  Uiso   1.00
N371   N     0.78403   0.50001   0.24999   0.00000  Uiso   1.00
N372   N     0.88264   0.49999   0.25001   0.00000  Uiso   1.00
O373   O     0.70625   0.43989   0.25000   0.00000  Uiso   1.00
O374   O     0.96042   0.56011   0.25000   0.00000  Uiso   1.00
O375   O     0.96039   0.43988   0.25001   0.00000  Uiso   1.00
O376   O     0.70628   0.56012   0.25000   0.00000  Uiso   1.00
O377   O     0.68519   0.50001   0.31492   0.00000  Uiso   1.00
O378   O     0.98148   0.49999   0.18509   0.00000  Uiso   1.00
O379   O     0.93933   0.50000   0.31492   0.00000  Uiso   1.00
O380   O     0.72733   0.50000   0.18508   0.00000  Uiso   1.00
C381   C     0.76823   0.44857   0.31049   0.00000  Uiso   1.00
N382   N     0.74237   0.42699   0.33583   0.00000  Uiso   1.00
C383   C     0.89845   0.55142   0.18952   0.00000  Uiso   1.00
N384   N     0.92431   0.57300   0.16417   0.00000  Uiso   1.00
C385   C     0.00002   0.75405   0.25005   0.00000  Uiso   1.00
C386   C     0.33331   0.91262   0.24994   0.00000  Uiso   1.00
C387   C     0.19473   0.84135   0.04742   0.00000  Uiso   1.00
C388   C     0.14138   0.80914   0.45523   0.00000  Uiso   1.00
C389   C     0.24321   0.84604   0.02496   0.00000  Uiso   1.00
C390   C     0.09304   0.80375   0.47786   0.00000  Uiso   1.00
C391   C     0.29092   0.68810   0.24997   0.00000  Uiso   1.00
C392   C     0.04242   0.97857   0.25000   0.00000  Uiso   1.00
C393   C     0.29088   0.97886   0.24990   0.00000  Uiso   1.00
C394   C     0.04246   0.68781   0.25007   0.00000  Uiso   1.00
C395   C     0.33330   0.95725   0.24993   0.00000  Uiso   1.00
C396   C     0.00004   0.70942   0.25005   0.00000  Uiso   1.00
C397   C     0.18355   0.80869   0.27900   0.00000  Uiso   1.00
C398   C     0.14979   0.85797   0.22099   0.00000  Uiso   1.00
C399   C     0.13401   0.80862   0.27913   0.00000  Uiso   1.00
C400   C     0.19932   0.85804   0.22087   0.00000  Uiso   1.00
C401   C     0.30615   0.83335   0.33611   0.00000  Uiso   1.00
C402   C     0.02718   0.83296   0.16392   0.00000  Uiso   1.00
C403   C     0.29117   0.83416   0.38535   0.00000  Uiso   1.00
C404   C     0.04230   0.82917   0.11493   0.00000  Uiso   1.00
C405   C     0.30786   0.84720   0.45661   0.00000  Uiso   1.00
C406   C     0.02751   0.80687   0.04543   0.00000  Uiso   1.00
C407   C     0.32405   0.84342   0.41021   0.00000  Uiso   1.00
C408   C     0.01044   0.81496   0.09106   0.00000  Uiso   1.00
C409   C     0.24241   0.82728   0.40744   0.00000  Uiso   1.00
C410   C     0.09088   0.83633   0.09259   0.00000  Uiso   1.00
C411   C     0.22524   0.83001   0.45435   0.00000  Uiso   1.00
C412   C     0.10953   0.82689   0.04697   0.00000  Uiso   1.00
C413   C     0.25883   0.84098   0.47876   0.00000  Uiso   1.00
C414   C     0.07663   0.81263   0.02328   0.00000  Uiso   1.00
C415   C     0.17557   0.82345   0.47742   0.00000  Uiso   1.00
C416   C     0.15972   0.83096   0.02441   0.00000  Uiso   1.00
Cu417  Cu    0.04689   0.83334   0.25000   0.00000  Uiso   1.00
Cu418  Cu    0.28645   0.83333   0.25000   0.00000  Uiso   1.00
H419   H     0.26862   0.85421   0.04398   0.00000  Uiso   1.00
H420   H     0.06826   0.79246   0.45954   0.00000  Uiso   1.00
H421   H     0.11334   0.84928   0.11190   0.00000  Uiso   1.00
H422   H     0.21829   0.82105   0.38692   0.00000  Uiso   1.00
H423   H     0.30610   0.80905   0.10783   0.00000  Uiso   1.00
H424   H     0.02856   0.84893   0.39374   0.00000  Uiso   1.00
H425   H     0.00025   0.85574   0.47511   0.00000  Uiso   1.00
H426   H     0.00248   0.79524   0.02762   0.00000  Uiso   1.00
H427   H     0.18631   0.84530   0.08319   0.00000  Uiso   1.00
H428   H     0.15079   0.80061   0.42043   0.00000  Uiso   1.00
H429   H     0.25773   0.70422   0.24996   0.00000  Uiso   1.00
H430   H     0.07561   0.96244   0.25001   0.00000  Uiso   1.00
H431   H     0.25770   0.96297   0.24984   0.00000  Uiso   1.00
H432   H     0.07564   0.70369   0.25013   0.00000  Uiso   1.00
H433   H     0.19609   0.78897   0.30210   0.00000  Uiso   1.00
H434   H     0.13724   0.87769   0.19790   0.00000  Uiso   1.00
N435   N     0.11736   0.83334   0.24999   0.00000  Uiso   1.00
N436   N     0.21597   0.83332   0.25001   0.00000  Uiso   1.00
O437   O     0.03958   0.77322   0.25000   0.00000  Uiso   1.00
O438   O     0.29375   0.89345   0.25000   0.00000  Uiso   1.00
O439   O     0.29372   0.77321   0.25001   0.00000  Uiso   1.00
O440   O     0.03961   0.89346   0.25000   0.00000  Uiso   1.00
O441   O     0.01852   0.83334   0.31492   0.00000  Uiso   1.00
O442   O     0.31481   0.83332   0.18509   0.00000  Uiso   1.00
O443   O     0.27267   0.83333   0.31492   0.00000  Uiso   1.00
O444   O     0.06067   0.83333   0.18508   0.00000  Uiso   1.00
C445   C     0.10156   0.78191   0.31049   0.00000  Uiso   1.00
N446   N     0.07570   0.76032   0.33583   0.00000  Uiso   1.00
C447   C     0.23178   0.88475   0.18952   0.00000  Uiso   1.00
N448   N     0.25765   0.90634   0.16417   0.00000  Uiso   1.00
C449   C     0.33336   0.75405   0.25005   0.00000  Uiso   1.00
C450   C     0.66664   0.91262   0.24994   0.00000  Uiso   1.00
C451   C     0.52806   0.84135   0.04742   0.00000  Uiso   1.00
C452   C     0.47471   0.80914   0.45523   0.00000  Uiso   1.00
C453   C     0.57654   0.84604   0.02496   0.00000  Uiso   1.00
C454   C     0.42637   0.80375   0.47786   0.00000  Uiso   1.00
C455   C     0.62425   0.68810   0.24997   0.00000  Uiso   1.00
C456   C     0.37575   0.97857   0.25000   0.00000  Uiso   1.00
C457   C     0.62422   0.97886   0.24990   0.00000  Uiso   1.00
C458   C     0.37579   0.68781   0.25007   0.00000  Uiso   1.00
C459   C     0.66663   0.95725   0.24993   0.00000  Uiso   1.00
C460   C     0.33338   0.70942   0.25005   0.00000  Uiso   1.00
C461   C     0.51688   0.80869   0.27900   0.00000  Uiso   1.00
C462   C     0.48312   0.85797   0.22099   0.00000  Uiso   1.00
C463   C     0.46735   0.80862   0.27913   0.00000  Uiso   1.00
C464   C     0.53266   0.85804   0.22087   0.00000  Uiso   1.00
C465   C     0.63949   0.83335   0.33611   0.00000  Uiso   1.00
C466   C     0.36051   0.83296   0.16392   0.00000  Uiso   1.00
C467   C     0.62450   0.83416   0.38535   0.00000  Uiso   1.00
C468   C     0.37564   0.82917   0.11493   0.00000  Uiso   1.00
C469   C     0.64119   0.84720   0.45661   0.00000  Uiso   1.00
C470   C     0.36085   0.80687   0.04543   0.00000  Uiso   1.00
C471   C     0.65738   0.84342   0.41021   0.00000  Uiso   1.00
C472   C     0.34378   0.81496   0.09106   0.00000  Uiso   1.00
C473   C     0.57575   0.82728   0.40744   0.00000  Uiso   1.00
C474   C     0.42421   0.83633   0.09259   0.00000  Uiso   1.00
C475   C     0.55857   0.83001   0.45435   0.00000  Uiso   1.00
C476   C     0.44286   0.82689   0.04697   0.00000  Uiso   1.00
C477   C     0.59216   0.84098   0.47876   0.00000  Uiso   1.00
C478   C     0.40996   0.81263   0.02328   0.00000  Uiso   1.00
C479   C     0.50890   0.82345   0.47742   0.00000  Uiso   1.00
C480   C     0.49305   0.83096   0.02441   0.00000  Uiso   1.00
Cu481  Cu    0.38022   0.83334   0.25000   0.00000  Uiso   1.00
Cu482  Cu    0.61978   0.83333   0.25000   0.00000  Uiso   1.00
H483   H     0.60196   0.85421   0.04398   0.00000  Uiso   1.00
H484   H     0.40159   0.79246   0.45954   0.00000  Uiso   1.00
H485   H     0.44667   0.84928   0.11190   0.00000  Uiso   1.00
H486   H     0.55162   0.82105   0.38692   0.00000  Uiso   1.00
H487   H     0.63943   0.80905   0.10783   0.00000  Uiso   1.00
H488   H     0.36189   0.84893   0.39374   0.00000  Uiso   1.00
H489   H     0.33358   0.85574   0.47511   0.00000  Uiso   1.00
H490   H     0.33581   0.79524   0.02762   0.00000  Uiso   1.00
H491   H     0.51964   0.84530   0.08319   0.00000  Uiso   1.00
H492   H     0.48412   0.80061   0.42043   0.00000  Uiso   1.00
H493   H     0.59107   0.70422   0.24996   0.00000  Uiso   1.00
H494   H     0.40894   0.96244   0.25001   0.00000  Uiso   1.00
H495   H     0.59104   0.96297   0.24984   0.00000  Uiso   1.00
H496   H     0.40897   0.70369   0.25013   0.00000  Uiso   1.00
H497   H     0.52943   0.78897   0.30210   0.00000  Uiso   1.00
H498   H     0.47058   0.87769   0.19790   0.00000  Uiso   1.00
N499   N     0.45069   0.83334   0.24999   0.00000  Uiso   1.00
N500   N     0.54931   0.83332   0.25001   0.00000  Uiso   1.00
O501   O     0.37291   0.77322   0.25000   0.00000  Uiso   1.00
O502   O     0.62709   0.89345   0.25000   0.00000  Uiso   1.00
O503   O     0.62706   0.77321   0.25001   0.00000  Uiso   1.00
O504   O     0.37294   0.89346   0.25000   0.00000  Uiso   1.00
O505   O     0.35186   0.83334   0.31492   0.00000  Uiso   1.00
O506   O     0.64814   0.83332   0.18509   0.00000  Uiso   1.00
O507   O     0.60600   0.83333   0.31492   0.00000  Uiso   1.00
O508   O     0.39400   0.83333   0.18508   0.00000  Uiso   1.00
C509   C     0.43489   0.78191   0.31049   0.00000  Uiso   1.00
N510   N     0.40903   0.76032   0.33583   0.00000  Uiso   1.00
C511   C     0.56511   0.88475   0.18952   0.00000  Uiso   1.00
N512   N     0.59098   0.90634   0.16417   0.00000  Uiso   1.00
C513   C     0.66669   0.75405   0.25005   0.00000  Uiso   1.00
C514   C     0.99998   0.91262   0.24994   0.00000  Uiso   1.00
C515   C     0.86140   0.84135   0.04742   0.00000  Uiso   1.00
C516   C     0.80805   0.80914   0.45523   0.00000  Uiso   1.00
C517   C     0.90988   0.84604   0.02496   0.00000  Uiso   1.00
C518   C     0.75971   0.80375   0.47786   0.00000  Uiso   1.00
C519   C     0.95759   0.68810   0.24997   0.00000  Uiso   1.00
C520   C     0.70909   0.97857   0.25000   0.00000  Uiso   1.00
C521   C     0.95755   0.97886   0.24990   0.00000  Uiso   1.00
C522   C     0.70912   0.68781   0.25007   0.00000  Uiso   1.00
C523   C     0.99996   0.95725   0.24993   0.00000  Uiso   1.00
C524   C     0.66671   0.70942   0.25005   0.00000  Uiso   1.00
C525   C     0.85021   0.80869   0.27900   0.00000  Uiso   1.00
C526   C     0.81645   0.85797   0.22099   0.00000  Uiso   1.00
C527   C     0.80068   0.80862   0.27913   0.00000  Uiso   1.00
C528   C     0.86599   0.85804   0.22087   0.00000  Uiso   1.00
C529   C     0.97282   0.83335   0.33611   0.00000  Uiso   1.00
C530   C     0.69384   0.83296   0.16392   0.00000  Uiso   1.00
C531   C     0.95783   0.83416   0.38535   0.00000  Uiso   1.00
C532   C     0.70897   0.82917   0.11493   0.00000  Uiso   1.00
C533   C     0.97453   0.84720   0.45661   0.00000  Uiso   1.00
C534   C     0.69418   0.80687   0.04543   0.00000  Uiso   1.00
C535   C     0.99072   0.84342   0.41021   0.00000  Uiso   1.00
C536   C     0.67711   0.81496   0.09106   0.00000  Uiso   1.00
C537   C     0.90908   0.82728   0.40744   0.00000  Uiso   1.00
C538   C     0.75754   0.83633   0.09259   0.00000  Uiso   1.00
C539   C     0.89191   0.83001   0.45435   0.00000  Uiso   1.00
C540   C     0.77619   0.82689   0.04697   0.00000  Uiso   1.00
C541   C     0.92550   0.84098   0.47876   0.00000  Uiso   1.00
C542   C     0.74330   0.81263   0.02328   0.00000  Uiso   1.00
C543   C     0.84224   0.82345   0.47742   0.00000  Uiso   1.00
C544   C     0.82638   0.83096   0.02441   0.00000  Uiso   1.00
Cu545  Cu    0.71355   0.83334   0.25000   0.00000  Uiso   1.00
Cu546  Cu    0.95311   0.83333   0.25000   0.00000  Uiso   1.00
H547   H     0.93529   0.85421   0.04398   0.00000  Uiso   1.00
H548   H     0.73493   0.79246   0.45954   0.00000  Uiso   1.00
H549   H     0.78000   0.84928   0.11190   0.00000  Uiso   1.00
H550   H     0.88495   0.82105   0.38692   0.00000  Uiso   1.00
H551   H     0.97276   0.80905   0.10783   0.00000  Uiso   1.00
H552   H     0.69523   0.84893   0.39374   0.00000  Uiso   1.00
H553   H     0.66692   0.85574   0.47511   0.00000  Uiso   1.00
H554   H     0.66915   0.79524   0.02762   0.00000  Uiso   1.00
H555   H     0.85297   0.84530   0.08319   0.00000  Uiso   1.00
H556   H     0.81745   0.80061   0.42043   0.00000  Uiso   1.00
H557   H     0.92440   0.70422   0.24996   0.00000  Uiso   1.00
H558   H     0.74227   0.96244   0.25001   0.00000  Uiso   1.00
H559   H     0.92437   0.96297   0.24984   0.00000  Uiso   1.00
H560   H     0.74230   0.70369   0.25013   0.00000  Uiso   1.00
H561   H     0.86276   0.78897   0.30210   0.00000  Uiso   1.00
H562   H     0.80391   0.87769   0.19790   0.00000  Uiso   1.00
N563   N     0.78403   0.83334   0.24999   0.00000  Uiso   1.00
N564   N     0.88264   0.83332   0.25001   0.00000  Uiso   1.00
O565   O     0.70625   0.77322   0.25000   0.00000  Uiso   1.00
O566   O     0.96042   0.89345   0.25000   0.00000  Uiso   1.00
O567   O     0.96039   0.77321   0.25001   0.00000  Uiso   1.00
O568   O     0.70628   0.89346   0.25000   0.00000  Uiso   1.00
O569   O     0.68519   0.83334   0.31492   0.00000  Uiso   1.00
O570   O     0.98148   0.83332   0.18509   0.00000  Uiso   1.00
O571   O     0.93933   0.83333   0.31492   0.00000  Uiso   1.00
O572   O     0.72733   0.83333   0.18508   0.00000  Uiso   1.00
C573   C     0.76823   0.78191   0.31049   0.00000  Uiso   1.00
N574   N     0.74237   0.76032   0.33583   0.00000  Uiso   1.00
C575   C     0.89845   0.88475   0.18952   0.00000  Uiso   1.00
N576   N     0.92431   0.90634   0.16417   0.00000  Uiso   1.00
C577   C     0.00002   0.08738   0.75005   0.00000  Uiso   1.00
C578   C     0.33331   0.24595   0.74994   0.00000  Uiso   1.00
C579   C     0.19473   0.17468   0.54742   0.00000  Uiso   1.00
C580   C     0.14138   0.14247   0.95523   0.00000  Uiso   1.00
C581   C     0.24321   0.17938   0.52496   0.00000  Uiso   1.00
C582   C     0.09304   0.13708   0.97786   0.00000  Uiso   1.00
C583   C     0.29092   0.02144   0.74997   0.00000  Uiso   1.00
C584   C     0.04242   0.31190   0.75000   0.00000  Uiso   1.00
C585   C     0.29088   0.31219   0.74990   0.00000  Uiso   1.00
C586   C     0.04246   0.02114   0.75007   0.00000  Uiso   1.00
C587   C     0.33330   0.29058   0.74993   0.00000  Uiso   1.00
C588   C     0.00004   0.04275   0.75005   0.00000  Uiso   1.00
C589   C     0.18355   0.14203   0.77900   0.00000  Uiso   1.00
C590   C     0.14979   0.19130   0.72099   0.00000  Uiso   1.00
C591   C     0.13401   0.14195   0.77913   0.00000  Uiso   1.00
C592   C     0.19932   0.19138   0.72087   0.00000  Uiso   1.00
C593   C     0.30615   0.16669   0.83611   0.00000  Uiso   1.00
C594   C     0.02718   0.16629   0.66392   0.00000  Uiso   1.00
C595   C     0.29117   0.16749   0.88535   0.00000  Uiso   1.00
C596   C     0.04230   0.16250   0.61493   0.00000  Uiso   1.00
C597   C     0.30786   0.18054   0.95661   0.00000  Uiso   1.00
C598   C     0.02751   0.14021   0.54543   0.00000  Uiso   1.00
C599   C     0.32405   0.17675   0.91021   0.00000  Uiso   1.00
C600   C     0.01044   0.14829   0.59106   0.00000  Uiso   1.00
C601   C     0.24241   0.16061   0.90744   0.00000  Uiso   1.00
C602   C     0.09088   0.16966   0.59259   0.00000  Uiso   1.00
C603   C     0.22524   0.16334   0.95435   0.00000  Uiso   1.00
C604   C     0.10953   0.16022   0.54697   0.00000  Uiso   1.00
C605   C     0.25883   0.17431   0.97876   0.00000  Uiso   1.00
C606   C     0.07663   0.14597   0.52328   0.00000  Uiso   1.00
C607   C     0.17557   0.15679   0.97742   0.00000  Uiso   1.00
C608   C     0.15972   0.16429   0.52441   0.00000  Uiso   1.00
Cu609  Cu    0.04689   0.16667   0.75000   0.00000  Uiso   1.00
Cu610  Cu    0.28645   0.16666   0.75000   0.00000  Uiso   1.00
H611   H     0.26862   0.18754   0.54398   0.00000  Uiso   1.00
H612   H     0.06826   0.12579   0.95954   0.00000  Uiso   1.00
H613   H     0.11334   0.18262   0.61190   0.00000  Uiso   1.00
H614   H     0.21829   0.15438   0.88692   0.00000  Uiso   1.00
H615   H     0.30610   0.14238   0.60783   0.00000  Uiso   1.00
H616   H     0.02856   0.18227   0.89374   0.00000  Uiso   1.00
H617   H     0.00025   0.18907   0.97511   0.00000  Uiso   1.00
H618   H     0.00248   0.12857   0.52762   0.00000  Uiso   1.00
H619   H     0.18631   0.17864   0.58319   0.00000  Uiso   1.00
H620   H     0.15079   0.13394   0.92043   0.00000  Uiso   1.00
H621   H     0.25773   0.03756   0.74996   0.00000  Uiso   1.00
H622   H     0.07561   0.29578   0.75001   0.00000  Uiso   1.00
H623   H     0.25770   0.29631   0.74984   0.00000  Uiso   1.00
H624   H     0.07564   0.03703   0.75013   0.00000  Uiso   1.00
H625   H     0.19609   0.12231   0.80210   0.00000  Uiso   1.00
H626   H     0.13724   0.21102   0.69790   0.00000  Uiso   1.00
N627   N     0.11736   0.16668   0.74999   0.00000  Uiso   1.00
N628   N     0.21597   0.16666   0.75001   0.00000  Uiso   1.00
O629   O     0.03958   0.10655   0.75000   0.00000  Uiso   1.00
O630   O     0.29375   0.22678   0.75000   0.00000  Uiso   1.00
O631   O     0.29372   0.10654   0.75001   0.00000  Uiso   1.00
O632   O     0.03961   0.22679   0.75000   0.00000  Uiso   1.00
O633   O     0.01852   0.16668   0.81492   0.00000  Uiso   1.00
O634   O     0.31481   0.16666   0.68509   0.00000  Uiso   1.00
O635   O     0.27267   0.16667   0.81492   0.00000  Uiso   1.00
O636   O     0.06067   0.16667   0.68508   0.00000  Uiso   1.00
C637   C     0.10156   0.11524   0.81049   0.00000  Uiso   1.00
N638   N     0.07570   0.09365   0.83583   0.00000  Uiso   1.00
C639   C     0.23178   0.21808   0.68952   0.00000  Uiso   1.00
N640   N     0.25765   0.23967   0.66417   0.00000  Uiso   1.00
C641   C     0.33336   0.08738   0.75005   0.00000  Uiso   1.00
C642   C     0.66664   0.24595   0.74994   0.00000  Uiso   1.00
C643   C     0.52806   0.17468   0.54742   0.00000  Uiso   1.00
C644   C     0.47471   0.14247   0.95523   0.00000  Uiso   1.00
C645   C     0.57654   0.17938   0.52496   0.00000  Uiso   1.00
C646   C     0.42637   0.13708   0.97786   0.00000  Uiso   1.00
C647   C     0.62425   0.02144   0.74997   0.00000  Uiso   1.00
C648   C     0.37575   0.31190   0.75000   0.00000  Uiso   1.00
C649   C     0.62422   0.31219   0.74990   0.00000  Uiso   1.00
C650   C     0.37579   0.02114   0.75007   0.00000  Uiso   1.00
C651   C     0.66663   0.29058   0.74993   0.00000  Uiso   1.00
C652   C     0.33338   0.04275   0.75005   0.00000  Uiso   1.00
C653   C     0.51688   0.14203   0.77900   0.00000  Uiso   1.00
C654   C     0.48312   0.19130   0.72099   0.00000  Uiso   1.00
C655   C     0.46735   0.14195   0.77913   0.00000  Uiso   1.00
C656   C     0.53266   0.19138   0.72087   0.00000  Uiso   1.00
C657   C     0.63949   0.16669   0.83611   0.00000  Uiso   1.00
C658   C     0.36051   0.16629   0.66392   0.00000  Uiso   1.00
C659   C     0.62450   0.16749   0.88535   0.00000  Uiso   1.00
C660   C     0.37564   0.16250   0.61493   0.00000  Uiso   1.00
C661   C     0.64119   0.18054   0.95661   0.00000  Uiso   1.00
C662   C     0.36085   0.14021   0.54543   0.00000  Uiso   1.00
C663   C     0.65738   0.17675   0.91021   0.00000  Uiso   1.00
C664   C     0.34378   0.14829   0.59106   0.00000  Uiso   1.00
C665   C     0.57575   0.16061   0.90744   0.00000  Uiso   1.00
C666   C     0.42421   0.16966   0.59259   0.00000  Uiso   1.00
C667   C     0.55857   0.16334   0.95435   0.00000  Uiso   1.00
C668   C     0.44286   0.16022   0.54697   0.00000  Uiso   1.00
C669   C     0.59216   0.17431   0.97876   0.00000  Uiso   1.00
C670   C     0.40996   0.14597   0.52328   0.00000  Uiso   1.00
C671   C     0.50890   0.15679   0.97742   0.00000  Uiso   1.00
C672   C     0.49305   0.16429   0.52441   0.00000  Uiso   1.00
Cu673  Cu    0.38022   0.16667   0.75000   0.00000  Uiso   1.00
Cu674  Cu    0.61978   0.16666   0.75000   0.00000  Uiso   1.00
H675   H     0.60196   0.18754   0.54398   0.00000  Uiso   1.00
H676   H     0.40159   0.12579   0.95954   0.00000  Uiso   1.00
H677   H     0.44667   0.18262   0.61190   0.00000  Uiso   1.00
H678   H     0.55162   0.15438   0.88692   0.00000  Uiso   1.00
H679   H     0.63943   0.14238   0.60783   0.00000  Uiso   1.00
H680   H     0.36189   0.18227   0.89374   0.00000  Uiso   1.00
H681   H     0.33358   0.18907   0.97511   0.00000  Uiso   1.00
H682   H     0.33581   0.12857   0.52762   0.00000  Uiso   1.00
H683   H     0.51964   0.17864   0.58319   0.00000  Uiso   1.00
H684   H     0.48412   0.13394   0.92043   0.00000  Uiso   1.00
H685   H     0.59107   0.03756   0.74996   0.00000  Uiso   1.00
H686   H     0.40894   0.29578   0.75001   0.00000  Uiso   1.00
H687   H     0.59104   0.29631   0.74984   0.00000  Uiso   1.00
H688   H     0.40897   0.03703   0.75013   0.00000  Uiso   1.00
H689   H     0.52943   0.12231   0.80210   0.00000  Uiso   1.00
H690   H     0.47058   0.21102   0.69790   0.00000  Uiso   1.00
N691   N     0.45069   0.16668   0.74999   0.00000  Uiso   1.00
N692   N     0.54931   0.16666   0.75001   0.00000  Uiso   1.00
O693   O     0.37291   0.10655   0.75000   0.00000  Uiso   1.00
O694   O     0.62709   0.22678   0.75000   0.00000  Uiso   1.00
O695   O     0.62706   0.10654   0.75001   0.00000  Uiso   1.00
O696   O     0.37294   0.22679   0.75000   0.00000  Uiso   1.00
O697   O     0.35186   0.16668   0.81492   0.00000  Uiso   1.00
O698   O     0.64814   0.16666   0.68509   0.00000  Uiso   1.00
O699   O     0.60600   0.16667   0.81492   0.00000  Uiso   1.00
O700   O     0.39400   0.16667   0.68508   0.00000  Uiso   1.00
C701   C     0.43489   0.11524   0.81049   0.00000  Uiso   1.00
N702   N     0.40903   0.09365   0.83583   0.00000  Uiso   1.00
C703   C     0.56511   0.21808   0.68952   0.00000  Uiso   1.00
N704   N     0.59098   0.23967   0.66417   0.00000  Uiso   1.00
C705   C     0.66669   0.08738   0.75005   0.00000  Uiso   1.00
C706   C     0.99998   0.24595   0.74994   0.00000  Uiso   1.00
C707   C     0.86140   0.17468   0.54742   0.00000  Uiso   1.00
C708   C     0.80805   0.14247   0.95523   0.00000  Uiso   1.00
C709   C     0.90988   0.17938   0.52496   0.00000  Uiso   1.00
C710   C     0.75971   0.13708   0.97786   0.00000  Uiso   1.00
C711   C     0.95759   0.02144   0.74997   0.00000  Uiso   1.00
C712   C     0.70909   0.31190   0.75000   0.00000  Uiso   1.00
C713   C     0.95755   0.31219   0.74990   0.00000  Uiso   1.00
C714   C     0.70912   0.02114   0.75007   0.00000  Uiso   1.00
C715   C     0.99996   0.29058   0.74993   0.00000  Uiso   1.00
C716   C     0.66671   0.04275   0.75005   0.00000  Uiso   1.00
C717   C     0.85021   0.14203   0.77900   0.00000  Uiso   1.00
C718   C     0.81645   0.19130   0.72099   0.00000  Uiso   1.00
C719   C     0.80068   0.14195   0.77913   0.00000  Uiso   1.00
C720   C     0.86599   0.19138   0.72087   0.00000  Uiso   1.00
C721   C     0.97282   0.16669   0.83611   0.00000  Uiso   1.00
C722   C     0.69384   0.16629   0.66392   0.00000  Uiso   1.00
C723   C     0.95783   0.16749   0.88535   0.00000  Uiso   1.00
C724   C     0.70897   0.16250   0.61493   0.00000  Uiso   1.00
C725   C     0.97453   0.18054   0.95661   0.00000  Uiso   1.00
C726   C     0.69418   0.14021   0.54543   0.00000  Uiso   1.00
C727   C     0.99072   0.17675   0.91021   0.00000  Uiso   1.00
C728   C     0.67711   0.14829   0.59106   0.00000  Uiso   1.00
C729   C     0.90908   0.16061   0.90744   0.00000  Uiso   1.00
C730   C     0.75754   0.16966   0.59259   0.00000  Uiso   1.00
C731   C     0.89191   0.16334   0.95435   0.00000  Uiso   1.00
C732   C     0.77619   0.16022   0.54697   0.00000  Uiso   1.00
C733   C     0.92550   0.17431   0.97876   0.00000  Uiso   1.00
C734   C     0.74330   0.14597   0.52328   0.00000  Uiso   1.00
C735   C     0.84224   0.15679   0.97742   0.00000  Uiso   1.00
C736   C     0.82638   0.16429   0.52441   0.00000  Uiso   1.00
Cu737  Cu    0.71355   0.16667   0.75000   0.00000  Uiso   1.00
Cu738  Cu    0.95311   0.16666   0.75000   0.00000  Uiso   1.00
H739   H     0.93529   0.18754   0.54398   0.00000  Uiso   1.00
H740   H     0.73493   0.12579   0.95954   0.00000  Uiso   1.00
H741   H     0.78000   0.18262   0.61190   0.00000  Uiso   1.00
H742   H     0.88495   0.15438   0.88692   0.00000  Uiso   1.00
H743   H     0.97276   0.14238   0.60783   0.00000  Uiso   1.00
H744   H     0.69523   0.18227   0.89374   0.00000  Uiso   1.00
H745   H     0.66692   0.18907   0.97511   0.00000  Uiso   1.00
H746   H     0.66915   0.12857   0.52762   0.00000  Uiso   1.00
H747   H     0.85297   0.17864   0.58319   0.00000  Uiso   1.00
H748   H     0.81745   0.13394   0.92043   0.00000  Uiso   1.00
H749   H     0.92440   0.03756   0.74996   0.00000  Uiso   1.00
H750   H     0.74227   0.29578   0.75001   0.00000  Uiso   1.00
H751   H     0.92437   0.29631   0.74984   0.00000  Uiso   1.00
H752   H     0.74230   0.03703   0.75013   0.00000  Uiso   1.00
H753   H     0.86276   0.12231   0.80210   0.00000  Uiso   1.00
H754   H     0.80391   0.21102   0.69790   0.00000  Uiso   1.00
N755   N     0.78403   0.16668   0.74999   0.00000  Uiso   1.00
N756   N     0.88264   0.16666   0.75001   0.00000  Uiso   1.00
O757   O     0.70625   0.10655   0.75000   0.00000  Uiso   1.00
O758   O     0.96042   0.22678   0.75000   0.00000  Uiso   1.00
O759   O     0.96039   0.10654   0.75001   0.00000  Uiso   1.00
O760   O     0.70628   0.22679   0.75000   0.00000  Uiso   1.00
O761   O     0.68519   0.16668   0.81492   0.00000  Uiso   1.00
O762   O     0.98148   0.16666   0.68509   0.00000  Uiso   1.00
O763   O     0.93933   0.16667   0.81492   0.00000  Uiso   1.00
O764   O     0.72733   0.16667   0.68508   0.00000  Uiso   1.00
C765   C     0.76823   0.11524   0.81049   0.00000  Uiso   1.00
N766   N     0.74237   0.09365   0.83583   0.00000  Uiso   1.00
C767   C     0.89845   0.21808   0.68952   0.00000  Uiso   1.00
N768   N     0.92431   0.23967   0.66417   0.00000  Uiso   1.00
C769   C     0.00002   0.42071   0.75005   0.00000  Uiso   1.00
C770   C     0.33331   0.57929   0.74994   0.00000  Uiso   1.00
C771   C     0.19473   0.50802   0.54742   0.00000  Uiso   1.00
C772   C     0.14138   0.47580   0.95523   0.00000  Uiso   1.00
C773   C     0.24321   0.51271   0.52496   0.00000  Uiso   1.00
C774   C     0.09304   0.47041   0.97786   0.00000  Uiso   1.00
C775   C     0.29092   0.35477   0.74997   0.00000  Uiso   1.00
C776   C     0.04242   0.64523   0.75000   0.00000  Uiso   1.00
C777   C     0.29088   0.64553   0.74990   0.00000  Uiso   1.00
C778   C     0.04246   0.35447   0.75007   0.00000  Uiso   1.00
C779   C     0.33330   0.62392   0.74993   0.00000  Uiso   1.00
C780   C     0.00004   0.37609   0.75005   0.00000  Uiso   1.00
C781   C     0.18355   0.47536   0.77900   0.00000  Uiso   1.00
C782   C     0.14979   0.52464   0.72099   0.00000  Uiso   1.00
C783   C     0.13401   0.47528   0.77913   0.00000  Uiso   1.00
C784   C     0.19932   0.52471   0.72087   0.00000  Uiso   1.00
C785   C     0.30615   0.50002   0.83611   0.00000  Uiso   1.00
C786   C     0.02718   0.49962   0.66392   0.00000  Uiso   1.00
C787   C     0.29117   0.50083   0.88535   0.00000  Uiso   1.00
C788   C     0.04230   0.49584   0.61493   0.00000  Uiso   1.00
C789   C     0.30786   0.51387   0.95661   0.00000  Uiso   1.00
C790   C     0.02751   0.47354   0.54543   0.00000  Uiso   1.00
C791   C     0.32405   0.51009   0.91021   0.00000  Uiso   1.00
C792   C     0.01044   0.48163   0.59106   0.00000  Uiso   1.00
C793   C     0.24241   0.49395   0.90744   0.00000  Uiso   1.00
C794   C     0.09088   0.50300   0.59259   0.00000  Uiso   1.00
C795   C     0.22524   0.49668   0.95435   0.00000  Uiso   1.00
C796   C     0.10953   0.49355   0.54697   0.00000  Uiso   1.00
C797   C     0.25883   0.50764   0.97876   0.00000  Uiso   1.00
C798   C     0.07663   0.47930   0.52328   0.00000  Uiso   1.00
C799   C     0.17557   0.49012   0.97742   0.00000  Uiso   1.00
C800   C     0.15972   0.49762   0.52441   0.00000  Uiso   1.00
Cu801  Cu    0.04689   0.50001   0.75000   0.00000  Uiso   1.00
Cu802  Cu    0.28645   0.49999   0.75000   0.00000  Uiso   1.00
H803   H     0.26862   0.52087   0.54398   0.00000  Uiso   1.00
H804   H     0.06826   0.45913   0.95954   0.00000  Uiso   1.00
H805   H     0.11334   0.51595   0.61190   0.00000  Uiso   1.00
H806   H     0.21829   0.48772   0.88692   0.00000  Uiso   1.00
H807   H     0.30610   0.47572   0.60783   0.00000  Uiso   1.00
H808   H     0.02856   0.51560   0.89374   0.00000  Uiso   1.00
H809   H     0.00025   0.52241   0.97511   0.00000  Uiso   1.00
H810   H     0.00248   0.46190   0.52762   0.00000  Uiso   1.00
H811   H     0.18631   0.51197   0.58319   0.00000  Uiso   1.00
H812   H     0.15079   0.46728   0.92043   0.00000  Uiso   1.00
H813   H     0.25773   0.37089   0.74996   0.00000  Uiso   1.00
H814   H     0.07561   0.62911   0.75001   0.00000  Uiso   1.00
H815   H     0.25770   0.62964   0.74984   0.00000  Uiso   1.00
H816   H     0.07564   0.37036   0.75013   0.00000  Uiso   1.00
H817   H     0.19609   0.45564   0.80210   0.00000  Uiso   1.00
H818   H     0.13724   0.54435   0.69790   0.00000  Uiso   1.00
N819   N     0.11736   0.50001   0.74999   0.00000  Uiso   1.00
N820   N     0.21597   0.49999   0.75001   0.00000  Uiso   1.00
O821   O     0.03958   0.43989   0.75000   0.00000  Uiso   1.00
O822   O     0.29375   0.56011   0.75000   0.00000  Uiso   1.00
O823   O     0.29372   0.43988   0.75001   0.00000  Uiso   1.00
O824   O     0.03961   0.56012   0.75000   0.00000  Uiso   1.00
O825   O     0.01852   0.50001   0.81492   0.00000  Uiso   1.00
O826   O     0.31481   0.49999   0.68509   0.00000  Uiso   1.00
O827   O     0.27267   0.50000   0.81492   0.00000  Uiso   1.00
O828   O     0.06067   0.50000   0.68508   0.00000  Uiso   1.00
C829   C     0.10156   0.44857   0.81049   0.00000  Uiso   1.00
N830   N     0.07570   0.42699   0.83583   0.00000  Uiso   1.00
C831   C     0.23178   0.55142   0.68952   0.00000  Uiso   1.00
N832   N     0.25765   0.57300   0.66417   0.00000  Uiso   1.00
C833   C     0.33336   0.42071   0.75005   0.00000  Uiso   1.00
C834   C     0.66664   0.57929   0.74994   0.00000  Uiso   1.00
C835   C     0.52806   0.50802   0.54742   0.00000  Uiso   1.00
C836   C     0.47471   0.47580   0.95523   0.00000  Uiso   1.00
C837   C     0.57654   0.51271   0.52496   0.00000  Uiso   1.00
C838   C     0.42637   0.47041   0.97786   0.00000  Uiso   1.00
C839   C     0.62425   0.35477   0.74997   0.00000  Uiso   1.00
C840   C     0.37575   0.64523   0.75000   0.00000  Uiso   1.00
C841   C     0.62422   0.64553   0.74990   0.00000  Uiso   1.00
C842   C     0.37579   0.35447   0.75007   0.00000  Uiso   1.00
C843   C     0.66663   0.62392   0.74993   0.00000  Uiso   1.00
C844   C     0.33338   0.37609   0.75005   0.00000  Uiso   1.00
C845   C     0.51688   0.47536   0.77900   0.00000  Uiso   1.00
C846   C     0.48312   0.52464   0.72099   0.00000  Uiso   1.00
C847   C     0.46735   0.47528   0.77913   0.00000  Uiso   1.00
C848   C     0.53266   0.52471   0.72087   0.00000  Uiso   1.00
C849   C     0.63949   0.50002   0.83611   0.00000  Uiso   1.00
C850   C     0.36051   0.49962   0.66392   0.00000  Uiso   1.00
C851   C     0.62450   0.50083   0.88535   0.00000  Uiso   1.00
C852   C     0.37564   0.49584   0.61493   0.00000  Uiso   1.00
C853   C     0.64119   0.51387   0.95661   0.00000  Uiso   1.00
C854   C     0.36085   0.47354   0.54543   0.00000  Uiso   1.00
C855   C     0.65738   0.51009   0.91021   0.00000  Uiso   1.00
C856   C     0.34378   0.48163   0.59106   0.00000  Uiso   1.00
C857   C     0.57575   0.49395   0.90744   0.00000  Uiso   1.00
C858   C     0.42421   0.50300   0.59259   0.00000  Uiso   1.00
C859   C     0.55857   0.49668   0.95435   0.00000  Uiso   1.00
C860   C     0.44286   0.49355   0.54697   0.00000  Uiso   1.00
C861   C     0.59216   0.50764   0.97876   0.00000  Uiso   1.00
C862   C     0.40996   0.47930   0.52328   0.00000  Uiso   1.00
C863   C     0.50890   0.49012   0.97742   0.00000  Uiso   1.00
C864   C     0.49305   0.49762   0.52441   0.00000  Uiso   1.00
Cu865  Cu    0.38022   0.50001   0.75000   0.00000  Uiso   1.00
Cu866  Cu    0.61978   0.49999   0.75000   0.00000  Uiso   1.00
H867   H     0.60196   0.52087   0.54398   0.00000  Uiso   1.00
H868   H     0.40159   0.45913   0.95954   0.00000  Uiso   1.00
H869   H     0.44667   0.51595   0.61190   0.00000  Uiso   1.00
H870   H     0.55162   0.48772   0.88692   0.00000  Uiso   1.00
H871   H     0.63943   0.47572   0.60783   0.00000  Uiso   1.00
H872   H     0.36189   0.51560   0.89374   0.00000  Uiso   1.00
H873   H     0.33358   0.52241   0.97511   0.00000  Uiso   1.00
H874   H     0.33581   0.46190   0.52762   0.00000  Uiso   1.00
H875   H     0.51964   0.51197   0.58319   0.00000  Uiso   1.00
H876   H     0.48412   0.46728   0.92043   0.00000  Uiso   1.00
H877   H     0.59107   0.37089   0.74996   0.00000  Uiso   1.00
H878   H     0.40894   0.62911   0.75001   0.00000  Uiso   1.00
H879   H     0.59104   0.62964   0.74984   0.00000  Uiso   1.00
H880   H     0.40897   0.37036   0.75013   0.00000  Uiso   1.00
H881   H     0.52943   0.45564   0.80210   0.00000  Uiso   1.00
H882   H     0.47058   0.54435   0.69790   0.00000  Uiso   1.00
N883   N     0.45069   0.50001   0.74999   0.00000  Uiso   1.00
N884   N     0.54931   0.49999   0.75001   0.00000  Uiso   1.00
O885   O     0.37291   0.43989   0.75000   0.00000  Uiso   1.00
O886   O     0.62709   0.56011   0.75000   0.00000  Uiso   1.00
O887   O     0.62706   0.43988   0.75001   0.00000  Uiso   1.00
O888   O     0.37294   0.56012   0.75000   0.00000  Uiso   1.00
O889   O     0.35186   0.50001   0.81492   0.00000  Uiso   1.00
O890   O     0.64814   0.49999   0.68509   0.00000  Uiso   1.00
O891   O     0.60600   0.50000   0.81492   0.00000  Uiso   1.00
O892   O     0.39400   0.50000   0.68508   0.00000  Uiso   1.00
C893   C     0.43489   0.44857   0.81049   0.00000  Uiso   1.00
N894   N     0.40903   0.42699   0.83583   0.00000  Uiso   1.00
C895   C     0.56511   0.55142   0.68952   0.00000  Uiso   1.00
N896   N     0.59098   0.57300   0.66417   0.00000  Uiso   1.00
C897   C     0.66669   0.42071   0.75005   0.00000  Uiso   1.00
C898   C     0.99998   0.57929   0.74994   0.00000  Uiso   1.00
C899   C     0.86140   0.50802   0.54742   0.00000  Uiso   1.00
C900   C     0.80805   0.47580   0.95523   0.00000  Uiso   1.00
C901   C     0.90988   0.51271   0.52496   0.00000  Uiso   1.00
C902   C     0.75971   0.47041   0.97786   0.00000  Uiso   1.00
C903   C     0.95759   0.35477   0.74997   0.00000  Uiso   1.00
C904   C     0.70909   0.64523   0.75000   0.00000  Uiso   1.00
C905   C     0.95755   0.64553   0.74990   0.00000  Uiso   1.00
C906   C     0.70912   0.35447   0.75007   0.00000  Uiso   1.00
C907   C     0.99996   0.62392   0.74993   0.00000  Uiso   1.00
C908   C     0.66671   0.37609   0.75005   0.00000  Uiso   1.00
C909   C     0.85021   0.47536   0.77900   0.00000  Uiso   1.00
C910   C     0.81645   0.52464   0.72099   0.00000  Uiso   1.00
C911   C     0.80068   0.47528   0.77913   0.00000  Uiso   1.00
C912   C     0.86599   0.52471   0.72087   0.00000  Uiso   1.00
C913   C     0.97282   0.50002   0.83611   0.00000  Uiso   1.00
C914   C     0.69384   0.49962   0.66392   0.00000  Uiso   1.00
C915   C     0.95783   0.50083   0.88535   0.00000  Uiso   1.00
C916   C     0.70897   0.49584   0.61493   0.00000  Uiso   1.00
C917   C     0.97453   0.51387   0.95661   0.00000  Uiso   1.00
C918   C     0.69418   0.47354   0.54543   0.00000  Uiso   1.00
C919   C     0.99072   0.51009   0.91021   0.00000  Uiso   1.00
C920   C     0.67711   0.48163   0.59106   0.00000  Uiso   1.00
C921   C     0.90908   0.49395   0.90744   0.00000  Uiso   1.00
C922   C     0.75754   0.50300   0.59259   0.00000  Uiso   1.00
C923   C     0.89191   0.49668   0.95435   0.00000  Uiso   1.00
C924   C     0.77619   0.49355   0.54697   0.00000  Uiso   1.00
C925   C     0.92550   0.50764   0.97876   0.00000  Uiso   1.00
C926   C     0.74330   0.47930   0.52328   0.00000  Uiso   1.00
C927   C     0.84224   0.49012   0.97742   0.00000  Uiso   1.00
C928   C     0.82638   0.49762   0.52441   0.00000  Uiso   1.00
Cu929  Cu    0.71355   0.50001   0.75000   0.00000  Uiso   1.00
Cu930  Cu    0.95311   0.49999   0.75000   0.00000  Uiso   1.00
H931   H     0.93529   0.52087   0.54398   0.00000  Uiso   1.00
H932   H     0.73493   0.45913   0.95954   0.00000  Uiso   1.00
H933   H     0.78000   0.51595   0.61190   0.00000  Uiso   1.00
H934   H     0.88495   0.48772   0.88692   0.00000  Uiso   1.00
H935   H     0.97276   0.47572   0.60783   0.00000  Uiso   1.00
H936   H     0.69523   0.51560   0.89374   0.00000  Uiso   1.00
H937   H     0.66692   0.52241   0.97511   0.00000  Uiso   1.00
H938   H     0.66915   0.46190   0.52762   0.00000  Uiso   1.00
H939   H     0.85297   0.51197   0.58319   0.00000  Uiso   1.00
H940   H     0.81745   0.46728   0.92043   0.00000  Uiso   1.00
H941   H     0.92440   0.37089   0.74996   0.00000  Uiso   1.00
H942   H     0.74227   0.62911   0.75001   0.00000  Uiso   1.00
H943   H     0.92437   0.62964   0.74984   0.00000  Uiso   1.00
H944   H     0.74230   0.37036   0.75013   0.00000  Uiso   1.00
H945   H     0.86276   0.45564   0.80210   0.00000  Uiso   1.00
H946   H     0.80391   0.54435   0.69790   0.00000  Uiso   1.00
N947   N     0.78403   0.50001   0.74999   0.00000  Uiso   1.00
N948   N     0.88264   0.49999   0.75001   0.00000  Uiso   1.00
O949   O     0.70625   0.43989   0.75000   0.00000  Uiso   1.00
O950   O     0.96042   0.56011   0.75000   0.00000  Uiso   1.00
O951   O     0.96039   0.43988   0.75001   0.00000  Uiso   1.00
O952   O     0.70628   0.56012   0.75000   0.00000  Uiso   1.00
O953   O     0.68519   0.50001   0.81492   0.00000  Uiso   1.00
O954   O     0.98148   0.49999   0.68509   0.00000  Uiso   1.00
O955   O     0.93933   0.50000   0.81492   0.00000  Uiso   1.00
O956   O     0.72733   0.50000   0.68508   0.00000  Uiso   1.00
C957   C     0.76823   0.44857   0.81049   0.00000  Uiso   1.00
N958   N     0.74237   0.42699   0.83583   0.00000  Uiso   1.00
C959   C     0.89845   0.55142   0.68952   0.00000  Uiso   1.00
N960   N     0.92431   0.57300   0.66417   0.00000  Uiso   1.00
C961   C     0.00002   0.75405   0.75005   0.00000  Uiso   1.00
C962   C     0.33331   0.91262   0.74994   0.00000  Uiso   1.00
C963   C     0.19473   0.84135   0.54742   0.00000  Uiso   1.00
C964   C     0.14138   0.80914   0.95523   0.00000  Uiso   1.00
C965   C     0.24321   0.84604   0.52496   0.00000  Uiso   1.00
C966   C     0.09304   0.80375   0.97786   0.00000  Uiso   1.00
C967   C     0.29092   0.68810   0.74997   0.00000  Uiso   1.00
C968   C     0.04242   0.97857   0.75000   0.00000  Uiso   1.00
C969   C     0.29088   0.97886   0.74990   0.00000  Uiso   1.00
C970   C     0.04246   0.68781   0.75007   0.00000  Uiso   1.00
C971   C     0.33330   0.95725   0.74993   0.00000  Uiso   1.00
C972   C     0.00004   0.70942   0.75005   0.00000  Uiso   1.00
C973   C     0.18355   0.80869   0.77900   0.00000  Uiso   1.00
C974   C     0.14979   0.85797   0.72099   0.00000  Uiso   1.00
C975   C     0.13401   0.80862   0.77913   0.00000  Uiso   1.00
C976   C     0.19932   0.85804   0.72087   0.00000  Uiso   1.00
C977   C     0.30615   0.83335   0.83611   0.00000  Uiso   1.00
C978   C     0.02718   0.83296   0.66392   0.00000  Uiso   1.00
C979   C     0.29117   0.83416   0.88535   0.00000  Uiso   1.00
C980   C     0.04230   0.82917   0.61493   0.00000  Uiso   1.00
C981   C     0.30786   0.84720   0.95661   0.00000  Uiso   1.00
C982   C     0.02751   0.80687   0.54543   0.00000  Uiso   1.00
C983   C     0.32405   0.84342   0.91021   0.00000  Uiso   1.00
C984   C     0.01044   0.81496   0.59106   0.00000  Uiso   1.00
C985   C     0.24241   0.82728   0.90744   0.00000  Uiso   1.00
C986   C     0.09088   0.83633   0.59259   0.00000  Uiso   1.00
C987   C     0.22524   0.83001   0.95435   0.00000  Uiso   1.00
C988   C     0.10953   0.82689   0.54697   0.00000  Uiso   1.00
C989   C     0.25883   0.84098   0.97876   0.00000  Uiso   1.00
C990   C     0.07663   0.81263   0.52328   0.00000  Uiso   1.00
C991   C     0.17557   0.82345   0.97742   0.00000  Uiso   1.00
C992   C     0.15972   0.83096   0.52441   0.00000  Uiso   1.00
Cu993  Cu    0.04689   0.83334   0.75000   0.00000  Uiso   1.00
Cu994  Cu    0.28645   0.83333   0.75000   0.00000  Uiso   1.00
H995   H     0.26862   0.85421   0.54398   0.00000  Uiso   1.00
H996   H     0.06826   0.79246   0.95954   0.00000  Uiso   1.00
H997   H     0.11334   0.84928   0.61190   0.00000  Uiso   1.00
H998   H     0.21829   0.82105   0.88692   0.00000  Uiso   1.00
H999   H     0.30610   0.80905   0.60783   0.00000  Uiso   1.00
H1000  H     0.02856   0.84893   0.89374   0.00000  Uiso   1.00
H1001  H     0.00025   0.85574   0.97511   0.00000  Uiso   1.00
H1002  H     0.00248   0.79524   0.52762   0.00000  Uiso   1.00
H1003  H     0.18631   0.84530   0.58319   0.00000  Uiso   1.00
H1004  H     0.15079   0.80061   0.92043   0.00000  Uiso   1.00
H1005  H     0.25773   0.70422   0.74996   0.00000  Uiso   1.00
H1006  H     0.07561   0.96244   0.75001   0.00000  Uiso   1.00
H1007  H     0.25770   0.96297   0.74984   0.00000  Uiso   1.00
H1008  H     0.07564   0.70369   0.75013   0.00000  Uiso   1.00
H1009  H     0.19609   0.78897   0.80210   0.00000  Uiso   1.00
H1010  H     0.13724   0.87769   0.69790   0.00000  Uiso   1.00
N1011  N     0.11736   0.83334   0.74999   0.00000  Uiso   1.00
N1012  N     0.21597   0.83332   0.75001   0.00000  Uiso   1.00
O1013  O     0.03958   0.77322   0.75000   0.00000  Uiso   1.00
O1014  O     0.29375   0.89345   0.75000   0.00000  Uiso   1.00
O1015  O     0.29372   0.77321   0.75001   0.00000  Uiso   1.00
O1016  O     0.03961   0.89346   0.75000   0.00000  Uiso   1.00
O1017  O     0.01852   0.83334   0.81492   0.00000  Uiso   1.00
O1018  O     0.31481   0.83332   0.68509   0.00000  Uiso   1.00
O1019  O     0.27267   0.83333   0.81492   0.00000  Uiso   1.00
O1020  O     0.06067   0.83333   0.68508   0.00000  Uiso   1.00
C1021  C     0.10156   0.78191   0.81049   0.00000  Uiso   1.00
N1022  N     0.07570   0.76032   0.83583   0.00000  Uiso   1.00
C1023  C     0.23178   0.88475   0.68952   0.00000  Uiso   1.00
N1024  N     0.25765   0.90634   0.66417   0.00000  Uiso   1.00
C1025  C     0.33336   0.75405   0.75005   0.00000  Uiso   1.00
C1026  C     0.66664   0.91262   0.74994   0.00000  Uiso   1.00
C1027  C     0.52806   0.84135   0.54742   0.00000  Uiso   1.00
C1028  C     0.47471   0.80914   0.95523   0.00000  Uiso   1.00
C1029  C     0.57654   0.84604   0.52496   0.00000  Uiso   1.00
C1030  C     0.42637   0.80375   0.97786   0.00000  Uiso   1.00
C1031  C     0.62425   0.68810   0.74997   0.00000  Uiso   1.00
C1032  C     0.37575   0.97857   0.75000   0.00000  Uiso   1.00
C1033  C     0.62422   0.97886   0.74990   0.00000  Uiso   1.00
C1034  C     0.37579   0.68781   0.75007   0.00000  Uiso   1.00
C1035  C     0.66663   0.95725   0.74993   0.00000  Uiso   1.00
C1036  C     0.33338   0.70942   0.75005   0.00000  Uiso   1.00
C1037  C     0.51688   0.80869   0.77900   0.00000  Uiso   1.00
C1038  C     0.48312   0.85797   0.72099   0.00000  Uiso   1.00
C1039  C     0.46735   0.80862   0.77913   0.00000  Uiso   1.00
C1040  C     0.53266   0.85804   0.72087   0.00000  Uiso   1.00
C1041  C     0.63949   0.83335   0.83611   0.00000  Uiso   1.00
C1042  C     0.36051   0.83296   0.66392   0.00000  Uiso   1.00
C1043  C     0.62450   0.83416   0.88535   0.00000  Uiso   1.00
C1044  C     0.37564   0.82917   0.61493   0.00000  Uiso   1.00
C1045  C     0.64119   0.84720   0.95661   0.00000  Uiso   1.00
C1046  C     0.36085   0.80687   0.54543   0.00000  Uiso   1.00
C1047  C     0.65738   0.84342   0.91021   0.00000  Uiso   1.00
C1048  C     0.34378   0.81496   0.59106   0.00000  Uiso   1.00
C1049  C     0.57575   0.82728   0.90744   0.00000  Uiso   1.00
C1050  C     0.42421   0.83633   0.59259   0.00000  Uiso   1.00
C1051  C     0.55857   0.83001   0.95435   0.00000  Uiso   1.00
C1052  C     0.44286   0.82689   0.54697   0.00000  Uiso   1.00
C1053  C     0.59216   0.84098   0.97876   0.00000  Uiso   1.00
C1054  C     0.40996   0.81263   0.52328   0.00000  Uiso   1.00
C1055  C     0.50890   0.82345   0.97742   0.00000  Uiso   1.00
C1056  C     0.49305   0.83096   0.52441   0.00000  Uiso   1.00
Cu1057 Cu    0.38022   0.83334   0.75000   0.00000  Uiso   1.00
Cu1058 Cu    0.61978   0.83333   0.75000   0.00000  Uiso   1.00
H1059  H     0.60196   0.85421   0.54398   0.00000  Uiso   1.00
H1060  H     0.40159   0.79246   0.95954   0.00000  Uiso   1.00
H1061  H     0.44667   0.84928   0.61190   0.00000  Uiso   1.00
H1062  H     0.55162   0.82105   0.88692   0.00000  Uiso   1.00
H1063  H     0.63943   0.80905   0.60783   0.00000  Uiso   1.00
H1064  H     0.36189   0.84893   0.89374   0.00000  Uiso   1.00
H1065  H     0.33358   0.85574   0.97511   0.00000  Uiso   1.00
H1066  H     0.33581   0.79524   0.52762   0.00000  Uiso   1.00
H1067  H     0.51964   0.84530   0.58319   0.00000  Uiso   1.00
H1068  H     0.48412   0.80061   0.92043   0.00000  Uiso   1.00
H1069  H     0.59107   0.70422   0.74996   0.00000  Uiso   1.00
H1070  H     0.40894   0.96244   0.75001   0.00000  Uiso   1.00
H1071  H     0.59104   0.96297   0.74984   0.00000  Uiso   1.00
H1072  H     0.40897   0.70369   0.75013   0.00000  Uiso   1.00
H1073  H     0.52943   0.78897   0.80210   0.00000  Uiso   1.00
H1074  H     0.47058   0.87769   0.69790   0.00000  Uiso   1.00
N1075  N     0.45069   0.83334   0.74999   0.00000  Uiso   1.00
N1076  N     0.54931   0.83332   0.75001   0.00000  Uiso   1.00
O1077  O     0.37291   0.77322   0.75000   0.00000  Uiso   1.00
O1078  O     0.62709   0.89345   0.75000   0.00000  Uiso   1.00
O1079  O     0.62706   0.77321   0.75001   0.00000  Uiso   1.00
O1080  O     0.37294   0.89346   0.75000   0.00000  Uiso   1.00
O1081  O     0.35186   0.83334   0.81492   0.00000  Uiso   1.00
O1082  O     0.64814   0.83332   0.68509   0.00000  Uiso   1.00
O1083  O     0.60600   0.83333   0.81492   0.00000  Uiso   1.00
O1084  O     0.39400   0.83333   0.68508   0.00000  Uiso   1.00
C1085  C     0.43489   0.78191   0.81049   0.00000  Uiso   1.00
N1086  N     0.40903   0.76032   0.83583   0.00000  Uiso   1.00
C1087  C     0.56511   0.88475   0.68952   0.00000  Uiso   1.00
N1088  N     0.59098   0.90634   0.66417   0.00000  Uiso   1.00
C1089  C     0.66669   0.75405   0.75005   0.00000  Uiso   1.00
C1090  C     0.99998   0.91262   0.74994   0.00000  Uiso   1.00
C1091  C     0.86140   0.84135   0.54742   0.00000  Uiso   1.00
C1092  C     0.80805   0.80914   0.95523   0.00000  Uiso   1.00
C1093  C     0.90988   0.84604   0.52496   0.00000  Uiso   1.00
C1094  C     0.75971   0.80375   0.97786   0.00000  Uiso   1.00
C1095  C     0.95759   0.68810   0.74997   0.00000  Uiso   1.00
C1096  C     0.70909   0.97857   0.75000   0.00000  Uiso   1.00
C1097  C     0.95755   0.97886   0.74990   0.00000  Uiso   1.00
C1098  C     0.70912   0.68781   0.75007   0.00000  Uiso   1.00
C1099  C     0.99996   0.95725   0.74993   0.00000  Uiso   1.00
C1100  C     0.66671   0.70942   0.75005   0.00000  Uiso   1.00
C1101  C     0.85021   0.80869   0.77900   0.00000  Uiso   1.00
C1102  C     0.81645   0.85797   0.72099   0.00000  Uiso   1.00
C1103  C     0.80068   0.80862   0.77913   0.00000  Uiso   1.00
C1104  C     0.86599   0.85804   0.72087   0.00000  Uiso   1.00
C1105  C     0.97282   0.83335   0.83611   0.00000  Uiso   1.00
C1106  C     0.69384   0.83296   0.66392   0.00000  Uiso   1.00
C1107  C     0.95783   0.83416   0.88535   0.00000  Uiso   1.00
C1108  C     0.70897   0.82917   0.61493   0.00000  Uiso   1.00
C1109  C     0.97453   0.84720   0.95661   0.00000  Uiso   1.00
C1110  C     0.69418   0.80687   0.54543   0.00000  Uiso   1.00
C1111  C     0.99072   0.84342   0.91021   0.00000  Uiso   1.00
C1112  C     0.67711   0.81496   0.59106   0.00000  Uiso   1.00
C1113  C     0.90908   0.82728   0.90744   0.00000  Uiso   1.00
C1114  C     0.75754   0.83633   0.59259   0.00000  Uiso   1.00
C1115  C     0.89191   0.83001   0.95435   0.00000  Uiso   1.00
C1116  C     0.77619   0.82689   0.54697   0.00000  Uiso   1.00
C1117  C     0.92550   0.84098   0.97876   0.00000  Uiso   1.00
C1118  C     0.74330   0.81263   0.52328   0.00000  Uiso   1.00
C1119  C     0.84224   0.82345   0.97742   0.00000  Uiso   1.00
C1120  C     0.82638   0.83096   0.52441   0.00000  Uiso   1.00
Cu1121 Cu    0.71355   0.83334   0.75000   0.00000  Uiso   1.00
Cu1122 Cu    0.95311   0.83333   0.75000   0.00000  Uiso   1.00
H1123  H     0.93529   0.85421   0.54398   0.00000  Uiso   1.00
H1124  H     0.73493   0.79246   0.95954   0.00000  Uiso   1.00
H1125  H     0.78000   0.84928   0.61190   0.00000  Uiso   1.00
H1126  H     0.88495   0.82105   0.88692   0.00000  Uiso   1.00
H1127  H     0.97276   0.80905   0.60783   0.00000  Uiso   1.00
H1128  H     0.69523   0.84893   0.89374   0.00000  Uiso   1.00
H1129  H     0.66692   0.85574   0.97511   0.00000  Uiso   1.00
H1130  H     0.66915   0.79524   0.52762   0.00000  Uiso   1.00
H1131  H     0.85297   0.84530   0.58319   0.00000  Uiso   1.00
H1132  H     0.81745   0.80061   0.92043   0.00000  Uiso   1.00
H1133  H     0.92440   0.70422   0.74996   0.00000  Uiso   1.00
H1134  H     0.74227   0.96244   0.75001   0.00000  Uiso   1.00
H1135  H     0.92437   0.96297   0.74984   0.00000  Uiso   1.00
H1136  H     0.74230   0.70369   0.75013   0.00000  Uiso   1.00
H1137  H     0.86276   0.78897   0.80210   0.00000  Uiso   1.00
H1138  H     0.80391   0.87769   0.69790   0.00000  Uiso   1.00
N1139  N     0.78403   0.83334   0.74999   0.00000  Uiso   1.00
N1140  N     0.88264   0.83332   0.75001   0.00000  Uiso   1.00
O1141  O     0.70625   0.77322   0.75000   0.00000  Uiso   1.00
O1142  O     0.96042   0.89345   0.75000   0.00000  Uiso   1.00
O1143  O     0.96039   0.77321   0.75001   0.00000  Uiso   1.00
O1144  O     0.70628   0.89346   0.75000   0.00000  Uiso   1.00
O1145  O     0.68519   0.83334   0.81492   0.00000  Uiso   1.00
O1146  O     0.98148   0.83332   0.68509   0.00000  Uiso   1.00
O1147  O     0.93933   0.83333   0.81492   0.00000  Uiso   1.00
O1148  O     0.72733   0.83333   0.68508   0.00000  Uiso   1.00
C1149  C     0.76823   0.78191   0.81049   0.00000  Uiso   1.00
N1150  N     0.74237   0.76032   0.83583   0.00000  Uiso   1.00
C1151  C     0.89845   0.88475   0.68952   0.00000  Uiso   1.00
N1152  N     0.92431   0.90634   0.66417   0.00000  Uiso   1.00
loop_
_geom_bond_atom_site_label_1
_geom_bond_atom_site_label_2
_geom_bond_distance
_geom_bond_site_symmetry_2
_ccdc_geom_bond_type
C1     C12     1.450   .     S
C1     O53     1.294   .     A
C1     O183    1.293   1_455 S
C2     C11     1.450   .     S
C2     O54     1.294   .     A
C2     O120    1.293   .     S
C3     H43     1.076   .     S
C3     C32     1.417   .     A
C3     C5      1.386   .     A
C4     H44     1.076   .     S
C4     C6      1.387   .     A
C4     C31     1.417   .     A
C5     H35     1.084   .     S
C5     C605    1.390   1_554 S
C6     H36     1.085   .     S
C6     C606    1.390   .     S
C7     H45     1.083   .     S
C7     C393    1.383   1_545 S
C7     C76     1.402   .     S
C8     H46     1.083   .     S
C8     C202    1.383   .     S
C8     C139    1.402   1_455 S
C9     H47     1.083   .     S
C9     C11     1.401   .     A
C9     C199    1.383   .     S
C10    H48     1.083   .     S
C10    C12     1.401   .     A
C10    C392    1.383   1_545 S
C11    C72     1.402   .     S
C12    C135    1.402   1_455 S
C13    N52     1.363   .     A
C13    H49     1.083   .     S
C13    C15     1.417   .     A
C14    C16     1.417   .     A
C14    H50     1.083   .     S
C14    N51     1.363   .     A
C15    N51     1.376   .     A
C15    C61     1.438   .     S
C16    C63     1.438   .     S
C16    N52     1.376   .     A
C17    O59     1.296   .     A
C17    C19     1.468   .     S
C17    O121    1.299   .     S
C18    C20     1.467   .     S
C18    O60     1.295   .     A
C18    O186    1.299   1_455 S
C19    C23     1.398   .     A
C19    C25     1.400   .     A
C20    C24     1.398   .     A
C20    C26     1.399   .     A
C21    C23     1.392   .     A
C21    C29     1.404   .     A
C21    H105    1.083   .     S
C22    H42     1.083   .     S
C22    C24     1.392   .     A
C22    C30     1.404   .     A
C23    H104    1.083   .     S
C24    H167    1.083   1_455 S
C25    H38     1.074   .     S
C25    C27     1.406   .     A
C26    H37     1.075   .     S
C26    C28     1.406   .     A
C27    C29     1.418   .     A
C27    C31     1.428   .     A
C28    C30     1.418   .     A
C28    C32     1.428   .     A
C29    C581    1.390   .     S
C30    C582    1.390   1_554 S
C31    C608    1.425   .     S
C32    C607    1.425   1_554 S
Cu33   N51     2.017   .     S
Cu33   O56     1.964   .     S
Cu33   O60     1.939   .     S
Cu33   O53     1.966   .     S
Cu33   O57     1.955   .     S
Cu33   Cu162   2.685   1_455 S
Cu34   O55     1.964   .     S
Cu34   O54     1.966   .     S
Cu34   O58     1.955   .     S
Cu34   N52     2.017   .     S
Cu34   O59     1.939   .     S
Cu34   Cu97    2.685   .     S
H39    C88     1.083   .     S
H40    C151    1.083   1_455 S
H41    C149    1.083   1_455 S
O55    C65     1.293   .     S
O56    C130    1.293   1_455 S
O57    C145    1.299   1_455 S
O58    C82     1.299   .     S
C61    N62     1.158   .     T
C63    N64     1.158   .     T
C65    C76     1.450   .     S
C65    O117    1.294   .     A
C66    C75     1.450   .     S
C66    O118    1.294   .     A
C66    O184    1.293   .     S
C67    H107    1.076   .     S
C67    C96     1.417   .     A
C67    C69     1.386   .     A
C68    H108    1.076   .     S
C68    C70     1.387   .     A
C68    C95     1.417   .     A
C69    H99     1.084   .     S
C69    C669    1.390   1_554 S
C70    H100    1.085   .     S
C70    C670    1.390   .     S
C71    H109    1.083   .     S
C71    C457    1.383   1_545 S
C71    C140    1.402   .     S
C72    H110    1.083   .     S
C72    C266    1.383   .     S
C73    H111    1.083   .     S
C73    C75     1.401   .     A
C73    C263    1.383   .     S
C74    H112    1.083   .     S
C74    C76     1.401   .     A
C74    C456    1.383   1_545 S
C75    C136    1.402   .     S
C77    N116    1.363   .     A
C77    H113    1.083   .     S
C77    C79     1.417   .     A
C78    C80     1.417   .     A
C78    H114    1.083   .     S
C78    N115    1.363   .     A
C79    N115    1.376   .     A
C79    C125    1.438   .     S
C80    C127    1.438   .     S
C80    N116    1.376   .     A
C81    O123    1.296   .     A
C81    C83     1.468   .     S
C81    O185    1.299   .     S
C82    C84     1.467   .     S
C82    O124    1.295   .     A
C83    C87     1.398   .     A
C83    C89     1.400   .     A
C84    C88     1.398   .     A
C84    C90     1.399   .     A
C85    C87     1.392   .     A
C85    C93     1.404   .     A
C85    H169    1.083   .     S
C86    H106    1.083   .     S
C86    C88     1.392   .     A
C86    C94     1.404   .     A
C87    H168    1.083   .     S
C89    H102    1.074   .     S
C89    C91     1.406   .     A
C90    H101    1.075   .     S
C90    C92     1.406   .     A
C91    C93     1.418   .     A
C91    C95     1.428   .     A
C92    C94     1.418   .     A
C92    C96     1.428   .     A
C93    C645    1.390   .     S
C94    C646    1.390   1_554 S
C95    C672    1.425   .     S
C96    C671    1.425   1_554 S
Cu97   N115    2.017   .     S
Cu97   O120    1.964   .     S
Cu97   O124    1.939   .     S
Cu97   O117    1.966   .     S
Cu97   O121    1.955   .     S
Cu98   O119    1.964   .     S
Cu98   O118    1.966   .     S
Cu98   O122    1.955   .     S
Cu98   N116    2.017   .     S
Cu98   O123    1.939   .     S
Cu98   Cu161   2.685   .     S
H103   C152    1.083   .     S
O119   C129    1.293   .     S
O122   C146    1.299   .     S
C125   N126    1.158   .     T
C127   N128    1.158   .     T
C129   C140    1.450   .     S
C129   O181    1.294   .     A
C130   C139    1.450   .     S
C130   O182    1.294   .     A
C130   O56     1.293   1_655 S
C131   H171    1.076   .     S
C131   C160    1.417   .     A
C131   C133    1.386   .     A
C132   H172    1.076   .     S
C132   C134    1.387   .     A
C132   C159    1.417   .     A
C133   H163    1.084   .     S
C133   C733    1.390   1_554 S
C134   H164    1.085   .     S
C134   C734    1.390   .     S
C135   H173    1.083   .     S
C135   C521    1.383   1_545 S
C135   C12     1.402   1_655 S
C136   H174    1.083   .     S
C136   C330    1.383   .     S
C137   H175    1.083   .     S
C137   C139    1.401   .     A
C137   C327    1.383   .     S
C138   H176    1.083   .     S
C138   C140    1.401   .     A
C138   C520    1.383   1_545 S
C139   C8      1.402   1_655 S
C141   N180    1.363   .     A
C141   H177    1.083   .     S
C141   C143    1.417   .     A
C142   C144    1.417   .     A
C142   H178    1.083   .     S
C142   N179    1.363   .     A
C143   N179    1.376   .     A
C143   C189    1.438   .     S
C144   C191    1.438   .     S
C144   N180    1.376   .     A
C145   O187    1.296   .     A
C145   C147    1.468   .     S
C145   O57     1.299   1_655 S
C146   C148    1.467   .     S
C146   O188    1.295   .     A
C147   C151    1.398   .     A
C147   C153    1.400   .     A
C148   C152    1.398   .     A
C148   C154    1.399   .     A
C149   C151    1.392   .     A
C149   C157    1.404   .     A
C149   H41     1.083   1_655 S
C150   H170    1.083   .     S
C150   C152    1.392   .     A
C150   C158    1.404   .     A
C151   H40     1.083   1_655 S
C153   H166    1.074   .     S
C153   C155    1.406   .     A
C154   H165    1.075   .     S
C154   C156    1.406   .     A
C155   C157    1.418   .     A
C155   C159    1.428   .     A
C156   C158    1.418   .     A
C156   C160    1.428   .     A
C157   C709    1.390   .     S
C158   C710    1.390   1_554 S
C159   C736    1.425   .     S
C160   C735    1.425   1_554 S
Cu161  N179    2.017   .     S
Cu161  O184    1.964   .     S
Cu161  O188    1.939   .     S
Cu161  O181    1.966   .     S
Cu161  O185    1.955   .     S
Cu162  O183    1.964   .     S
Cu162  O182    1.966   .     S
Cu162  O186    1.955   .     S
Cu162  N180    2.017   .     S
Cu162  O187    1.939   .     S
Cu162  Cu33    2.685   1_655 S
H167   C24     1.083   1_655 S
O183   C1      1.293   1_655 S
O186   C18     1.299   1_655 S
C189   N190    1.158   .     T
C191   N192    1.158   .     T
C193   C204    1.450   .     S
C193   O245    1.294   .     A
C193   O375    1.293   1_455 S
C194   C203    1.450   .     S
C194   O246    1.294   .     A
C194   O312    1.293   .     S
C195   H235    1.076   .     S
C195   C224    1.417   .     A
C195   C197    1.386   .     A
C196   H236    1.076   .     S
C196   C198    1.387   .     A
C196   C223    1.417   .     A
C197   H227    1.084   .     S
C197   C797    1.390   1_554 S
C198   H228    1.085   .     S
C198   C798    1.390   .     S
C199   H237    1.083   .     S
C199   C268    1.402   .     S
C200   H238    1.083   .     S
C200   C394    1.383   .     S
C200   C331    1.402   1_455 S
C201   H239    1.083   .     S
C201   C203    1.401   .     A
C201   C391    1.383   .     S
C202   H240    1.083   .     S
C202   C204    1.401   .     A
C203   C264    1.402   .     S
C204   C327    1.402   1_455 S
C205   N244    1.363   .     A
C205   H241    1.083   .     S
C205   C207    1.417   .     A
C206   C208    1.417   .     A
C206   H242    1.083   .     S
C206   N243    1.363   .     A
C207   N243    1.376   .     A
C207   C253    1.438   .     S
C208   C255    1.438   .     S
C208   N244    1.376   .     A
C209   O251    1.296   .     A
C209   C211    1.468   .     S
C209   O313    1.299   .     S
C210   C212    1.467   .     S
C210   O252    1.295   .     A
C210   O378    1.299   1_455 S
C211   C215    1.398   .     A
C211   C217    1.400   .     A
C212   C216    1.398   .     A
C212   C218    1.399   .     A
C213   C215    1.392   .     A
C213   C221    1.404   .     A
C213   H297    1.083   .     S
C214   H234    1.083   .     S
C214   C216    1.392   .     A
C214   C222    1.404   .     A
C215   H296    1.083   .     S
C216   H359    1.083   1_455 S
C217   H230    1.074   .     S
C217   C219    1.406   .     A
C218   H229    1.075   .     S
C218   C220    1.406   .     A
C219   C221    1.418   .     A
C219   C223    1.428   .     A
C220   C222    1.418   .     A
C220   C224    1.428   .     A
C221   C773    1.390   .     S
C222   C774    1.390   1_554 S
C223   C800    1.425   .     S
C224   C799    1.425   1_554 S
Cu225  N243    2.017   .     S
Cu225  O248    1.964   .     S
Cu225  O252    1.939   .     S
Cu225  O245    1.966   .     S
Cu225  O249    1.955   .     S
Cu225  Cu354   2.685   1_455 S
Cu226  O247    1.964   .     S
Cu226  O246    1.966   .     S
Cu226  O250    1.955   .     S
Cu226  N244    2.017   .     S
Cu226  O251    1.939   .     S
Cu226  Cu289   2.685   .     S
H231   C280    1.083   .     S
H232   C343    1.083   1_455 S
H233   C341    1.083   1_455 S
O247   C257    1.293   .     S
O248   C322    1.293   1_455 S
O249   C337    1.299   1_455 S
O250   C274    1.299   .     S
C253   N254    1.158   .     T
C255   N256    1.158   .     T
C257   C268    1.450   .     S
C257   O309    1.294   .     A
C258   C267    1.450   .     S
C258   O310    1.294   .     A
C258   O376    1.293   .     S
C259   H299    1.076   .     S
C259   C288    1.417   .     A
C259   C261    1.386   .     A
C260   H300    1.076   .     S
C260   C262    1.387   .     A
C260   C287    1.417   .     A
C261   H291    1.084   .     S
C261   C861    1.390   1_554 S
C262   H292    1.085   .     S
C262   C862    1.390   .     S
C263   H301    1.083   .     S
C263   C332    1.402   .     S
C264   H302    1.083   .     S
C264   C458    1.383   .     S
C265   H303    1.083   .     S
C265   C267    1.401   .     A
C265   C455    1.383   .     S
C266   H304    1.083   .     S
C266   C268    1.401   .     A
C267   C328    1.402   .     S
C269   N308    1.363   .     A
C269   H305    1.083   .     S
C269   C271    1.417   .     A
C270   C272    1.417   .     A
C270   H306    1.083   .     S
C270   N307    1.363   .     A
C271   N307    1.376   .     A
C271   C317    1.438   .     S
C272   C319    1.438   .     S
C272   N308    1.376   .     A
C273   O315    1.296   .     A
C273   C275    1.468   .     S
C273   O377    1.299   .     S
C274   C276    1.467   .     S
C274   O316    1.295   .     A
C275   C279    1.398   .     A
C275   C281    1.400   .     A
C276   C280    1.398   .     A
C276   C282    1.399   .     A
C277   C279    1.392   .     A
C277   C285    1.404   .     A
C277   H361    1.083   .     S
C278   H298    1.083   .     S
C278   C280    1.392   .     A
C278   C286    1.404   .     A
C279   H360    1.083   .     S
C281   H294    1.074   .     S
C281   C283    1.406   .     A
C282   H293    1.075   .     S
C282   C284    1.406   .     A
C283   C285    1.418   .     A
C283   C287    1.428   .     A
C284   C286    1.418   .     A
C284   C288    1.428   .     A
C285   C837    1.390   .     S
C286   C838    1.390   1_554 S
C287   C864    1.425   .     S
C288   C863    1.425   1_554 S
Cu289  N307    2.017   .     S
Cu289  O312    1.964   .     S
Cu289  O316    1.939   .     S
Cu289  O309    1.966   .     S
Cu289  O313    1.955   .     S
Cu290  O311    1.964   .     S
Cu290  O310    1.966   .     S
Cu290  O314    1.955   .     S
Cu290  N308    2.017   .     S
Cu290  O315    1.939   .     S
Cu290  Cu353   2.685   .     S
H295   C344    1.083   .     S
O311   C321    1.293   .     S
O314   C338    1.299   .     S
C317   N318    1.158   .     T
C319   N320    1.158   .     T
C321   C332    1.450   .     S
C321   O373    1.294   .     A
C322   C331    1.450   .     S
C322   O374    1.294   .     A
C322   O248    1.293   1_655 S
C323   H363    1.076   .     S
C323   C352    1.417   .     A
C323   C325    1.386   .     A
C324   H364    1.076   .     S
C324   C326    1.387   .     A
C324   C351    1.417   .     A
C325   H355    1.084   .     S
C325   C925    1.390   1_554 S
C326   H356    1.085   .     S
C326   C926    1.390   .     S
C327   H365    1.083   .     S
C327   C204    1.402   1_655 S
C328   H366    1.083   .     S
C328   C522    1.383   .     S
C329   H367    1.083   .     S
C329   C331    1.401   .     A
C329   C519    1.383   .     S
C330   H368    1.083   .     S
C330   C332    1.401   .     A
C331   C200    1.402   1_655 S
C333   N372    1.363   .     A
C333   H369    1.083   .     S
C333   C335    1.417   .     A
C334   C336    1.417   .     A
C334   H370    1.083   .     S
C334   N371    1.363   .     A
C335   N371    1.376   .     A
C335   C381    1.438   .     S
C336   C383    1.438   .     S
C336   N372    1.376   .     A
C337   O379    1.296   .     A
C337   C339    1.468   .     S
C337   O249    1.299   1_655 S
C338   C340    1.467   .     S
C338   O380    1.295   .     A
C339   C343    1.398   .     A
C339   C345    1.400   .     A
C340   C344    1.398   .     A
C340   C346    1.399   .     A
C341   C343    1.392   .     A
C341   C349    1.404   .     A
C341   H233    1.083   1_655 S
C342   H362    1.083   .     S
C342   C344    1.392   .     A
C342   C350    1.404   .     A
C343   H232    1.083   1_655 S
C345   H358    1.074   .     S
C345   C347    1.406   .     A
C346   H357    1.075   .     S
C346   C348    1.406   .     A
C347   C349    1.418   .     A
C347   C351    1.428   .     A
C348   C350    1.418   .     A
C348   C352    1.428   .     A
C349   C901    1.390   .     S
C350   C902    1.390   1_554 S
C351   C928    1.425   .     S
C352   C927    1.425   1_554 S
Cu353  N371    2.017   .     S
Cu353  O376    1.964   .     S
Cu353  O380    1.939   .     S
Cu353  O373    1.966   .     S
Cu353  O377    1.955   .     S
Cu354  O375    1.964   .     S
Cu354  O374    1.966   .     S
Cu354  O378    1.955   .     S
Cu354  N372    2.017   .     S
Cu354  O379    1.939   .     S
Cu354  Cu225   2.685   1_655 S
H359   C216    1.083   1_655 S
O375   C193    1.293   1_655 S
O378   C210    1.299   1_655 S
C381   N382    1.158   .     T
C383   N384    1.158   .     T
C385   C396    1.450   .     S
C385   O437    1.294   .     A
C385   O567    1.293   1_455 S
C386   C395    1.450   .     S
C386   O438    1.294   .     A
C386   O504    1.293   .     S
C387   H427    1.076   .     S
C387   C416    1.417   .     A
C387   C389    1.386   .     A
C388   H428    1.076   .     S
C388   C390    1.387   .     A
C388   C415    1.417   .     A
C389   H419    1.084   .     S
C389   C989    1.390   1_554 S
C390   H420    1.085   .     S
C390   C990    1.390   .     S
C391   H429    1.083   .     S
C391   C460    1.402   .     S
C392   H430    1.083   .     S
C392   C10     1.383   1_565 S
C392   C523    1.402   1_455 S
C393   H431    1.083   .     S
C393   C395    1.401   .     A
C393   C7      1.383   1_565 S
C394   H432    1.083   .     S
C394   C396    1.401   .     A
C395   C456    1.402   .     S
C396   C519    1.402   1_455 S
C397   N436    1.363   .     A
C397   H433    1.083   .     S
C397   C399    1.417   .     A
C398   C400    1.417   .     A
C398   H434    1.083   .     S
C398   N435    1.363   .     A
C399   N435    1.376   .     A
C399   C445    1.438   .     S
C400   C447    1.438   .     S
C400   N436    1.376   .     A
C401   O443    1.296   .     A
C401   C403    1.468   .     S
C401   O505    1.299   .     S
C402   C404    1.467   .     S
C402   O444    1.295   .     A
C402   O570    1.299   1_455 S
C403   C407    1.398   .     A
C403   C409    1.400   .     A
C404   C408    1.398   .     A
C404   C410    1.399   .     A
C405   C407    1.392   .     A
C405   C413    1.404   .     A
C405   H489    1.083   .     S
C406   H426    1.083   .     S
C406   C408    1.392   .     A
C406   C414    1.404   .     A
C407   H488    1.083   .     S
C408   H551    1.083   1_455 S
C409   H422    1.074   .     S
C409   C411    1.406   .     A
C410   H421    1.075   .     S
C410   C412    1.406   .     A
C411   C413    1.418   .     A
C411   C415    1.428   .     A
C412   C414    1.418   .     A
C412   C416    1.428   .     A
C413   C965    1.390   .     S
C414   C966    1.390   1_554 S
C415   C992    1.425   .     S
C416   C991    1.425   1_554 S
Cu417  N435    2.017   .     S
Cu417  O440    1.964   .     S
Cu417  O444    1.939   .     S
Cu417  O437    1.966   .     S
Cu417  O441    1.955   .     S
Cu417  Cu546   2.685   1_455 S
Cu418  O439    1.964   .     S
Cu418  O438    1.966   .     S
Cu418  O442    1.955   .     S
Cu418  N436    2.017   .     S
Cu418  O443    1.939   .     S
Cu418  Cu481   2.685   .     S
H423   C472    1.083   .     S
H424   C535    1.083   1_455 S
H425   C533    1.083   1_455 S
O439   C449    1.293   .     S
O440   C514    1.293   1_455 S
O441   C529    1.299   1_455 S
O442   C466    1.299   .     S
C445   N446    1.158   .     T
C447   N448    1.158   .     T
C449   C460    1.450   .     S
C449   O501    1.294   .     A
C450   C459    1.450   .     S
C450   O502    1.294   .     A
C450   O568    1.293   .     S
C451   H491    1.076   .     S
C451   C480    1.417   .     A
C451   C453    1.386   .     A
C452   H492    1.076   .     S
C452   C454    1.387   .     A
C452   C479    1.417   .     A
C453   H483    1.084   .     S
C453   C1053   1.390   1_554 S
C454   H484    1.085   .     S
C454   C1054   1.390   .     S
C455   H493    1.083   .     S
C455   C524    1.402   .     S
C456   H494    1.083   .     S
C456   C74     1.383   1_565 S
C457   H495    1.083   .     S
C457   C459    1.401   .     A
C457   C71     1.383   1_565 S
C458   H496    1.083   .     S
C458   C460    1.401   .     A
C459   C520    1.402   .     S
C461   N500    1.363   .     A
C461   H497    1.083   .     S
C461   C463    1.417   .     A
C462   C464    1.417   .     A
C462   H498    1.083   .     S
C462   N499    1.363   .     A
C463   N499    1.376   .     A
C463   C509    1.438   .     S
C464   C511    1.438   .     S
C464   N500    1.376   .     A
C465   O507    1.296   .     A
C465   C467    1.468   .     S
C465   O569    1.299   .     S
C466   C468    1.467   .     S
C466   O508    1.295   .     A
C467   C471    1.398   .     A
C467   C473    1.400   .     A
C468   C472    1.398   .     A
C468   C474    1.399   .     A
C469   C471    1.392   .     A
C469   C477    1.404   .     A
C469   H553    1.083   .     S
C470   H490    1.083   .     S
C470   C472    1.392   .     A
C470   C478    1.404   .     A
C471   H552    1.083   .     S
C473   H486    1.074   .     S
C473   C475    1.406   .     A
C474   H485    1.075   .     S
C474   C476    1.406   .     A
C475   C477    1.418   .     A
C475   C479    1.428   .     A
C476   C478    1.418   .     A
C476   C480    1.428   .     A
C477   C1029   1.390   .     S
C478   C1030   1.390   1_554 S
C479   C1056   1.425   .     S
C480   C1055   1.425   1_554 S
Cu481  N499    2.017   .     S
Cu481  O504    1.964   .     S
Cu481  O508    1.939   .     S
Cu481  O501    1.966   .     S
Cu481  O505    1.955   .     S
Cu482  O503    1.964   .     S
Cu482  O502    1.966   .     S
Cu482  O506    1.955   .     S
Cu482  N500    2.017   .     S
Cu482  O507    1.939   .     S
Cu482  Cu545   2.685   .     S
H487   C536    1.083   .     S
O503   C513    1.293   .     S
O506   C530    1.299   .     S
C509   N510    1.158   .     T
C511   N512    1.158   .     T
C513   C524    1.450   .     S
C513   O565    1.294   .     A
C514   C523    1.450   .     S
C514   O566    1.294   .     A
C514   O440    1.293   1_655 S
C515   H555    1.076   .     S
C515   C544    1.417   .     A
C515   C517    1.386   .     A
C516   H556    1.076   .     S
C516   C518    1.387   .     A
C516   C543    1.417   .     A
C517   H547    1.084   .     S
C517   C1117   1.390   1_554 S
C518   H548    1.085   .     S
C518   C1118   1.390   .     S
C519   H557    1.083   .     S
C519   C396    1.402   1_655 S
C520   H558    1.083   .     S
C520   C138    1.383   1_565 S
C521   H559    1.083   .     S
C521   C523    1.401   .     A
C521   C135    1.383   1_565 S
C522   H560    1.083   .     S
C522   C524    1.401   .     A
C523   C392    1.402   1_655 S
C525   N564    1.363   .     A
C525   H561    1.083   .     S
C525   C527    1.417   .     A
C526   C528    1.417   .     A
C526   H562    1.083   .     S
C526   N563    1.363   .     A
C527   N563    1.376   .     A
C527   C573    1.438   .     S
C528   C575    1.438   .     S
C528   N564    1.376   .     A
C529   O571    1.296   .     A
C529   C531    1.468   .     S
C529   O441    1.299   1_655 S
C530   C532    1.467   .     S
C530   O572    1.295   .     A
C531   C535    1.398   .     A
C531   C537    1.400   .     A
C532   C536    1.398   .     A
C532   C538    1.399   .     A
C533   C535    1.392   .     A
C533   C541    1.404   .     A
C533   H425    1.083   1_655 S
C534   H554    1.083   .     S
C534   C536    1.392   .     A
C534   C542    1.404   .     A
C535   H424    1.083   1_655 S
C537   H550    1.074   .     S
C537   C539    1.406   .     A
C538   H549    1.075   .     S
C538   C540    1.406   .     A
C539   C541    1.418   .     A
C539   C543    1.428   .     A
C540   C542    1.418   .     A
C540   C544    1.428   .     A
C541   C1093   1.390   .     S
C542   C1094   1.390   1_554 S
C543   C1120   1.425   .     S
C544   C1119   1.425   1_554 S
Cu545  N563    2.017   .     S
Cu545  O568    1.964   .     S
Cu545  O572    1.939   .     S
Cu545  O565    1.966   .     S
Cu545  O569    1.955   .     S
Cu546  O567    1.964   .     S
Cu546  O566    1.966   .     S
Cu546  O570    1.955   .     S
Cu546  N564    2.017   .     S
Cu546  O571    1.939   .     S
Cu546  Cu417   2.685   1_655 S
H551   C408    1.083   1_655 S
O567   C385    1.293   1_655 S
O570   C402    1.299   1_655 S
C573   N574    1.158   .     T
C575   N576    1.158   .     T
C577   C588    1.450   .     S
C577   O629    1.294   .     A
C577   O759    1.293   1_455 S
C578   C587    1.450   .     S
C578   O630    1.294   .     A
C578   O696    1.293   .     S
C579   H619    1.076   .     S
C579   C608    1.417   .     A
C579   C581    1.386   .     A
C580   H620    1.076   .     S
C580   C582    1.387   .     A
C580   C607    1.417   .     A
C581   H611    1.084   .     S
C582   H612    1.085   .     S
C582   C30     1.390   1_556 S
C583   H621    1.083   .     S
C583   C969    1.383   1_545 S
C583   C652    1.402   .     S
C584   H622    1.083   .     S
C584   C778    1.383   .     S
C584   C715    1.402   1_455 S
C585   H623    1.083   .     S
C585   C587    1.401   .     A
C585   C775    1.383   .     S
C586   H624    1.083   .     S
C586   C588    1.401   .     A
C586   C968    1.383   1_545 S
C587   C648    1.402   .     S
C588   C711    1.402   1_455 S
C589   N628    1.363   .     A
C589   H625    1.083   .     S
C589   C591    1.417   .     A
C590   C592    1.417   .     A
C590   H626    1.083   .     S
C590   N627    1.363   .     A
C591   N627    1.376   .     A
C591   C637    1.438   .     S
C592   C639    1.438   .     S
C592   N628    1.376   .     A
C593   O635    1.296   .     A
C593   C595    1.468   .     S
C593   O697    1.299   .     S
C594   C596    1.467   .     S
C594   O636    1.295   .     A
C594   O762    1.299   1_455 S
C595   C599    1.398   .     A
C595   C601    1.400   .     A
C596   C600    1.398   .     A
C596   C602    1.399   .     A
C597   C599    1.392   .     A
C597   C605    1.404   .     A
C597   H681    1.083   .     S
C598   H618    1.083   .     S
C598   C600    1.392   .     A
C598   C606    1.404   .     A
C599   H680    1.083   .     S
C600   H743    1.083   1_455 S
C601   H614    1.074   .     S
C601   C603    1.406   .     A
C602   H613    1.075   .     S
C602   C604    1.406   .     A
C603   C605    1.418   .     A
C603   C607    1.428   .     A
C604   C606    1.418   .     A
C604   C608    1.428   .     A
C605   C5      1.390   1_556 S
C607   C32     1.425   1_556 S
Cu609  N627    2.017   .     S
Cu609  O632    1.964   .     S
Cu609  O636    1.939   .     S
Cu609  O629    1.966   .     S
Cu609  O633    1.955   .     S
Cu609  Cu738   2.685   1_455 S
Cu610  O631    1.964   .     S
Cu610  O630    1.966   .     S
Cu610  O634    1.955   .     S
Cu610  N628    2.017   .     S
Cu610  O635    1.939   .     S
Cu610  Cu673   2.685   .     S
H615   C664    1.083   .     S
H616   C727    1.083   1_455 S
H617   C725    1.083   1_455 S
O631   C641    1.293   .     S
O632   C706    1.293   1_455 S
O633   C721    1.299   1_455 S
O634   C658    1.299   .     S
C637   N638    1.158   .     T
C639   N640    1.158   .     T
C641   C652    1.450   .     S
C641   O693    1.294   .     A
C642   C651    1.450   .     S
C642   O694    1.294   .     A
C642   O760    1.293   .     S
C643   H683    1.076   .     S
C643   C672    1.417   .     A
C643   C645    1.386   .     A
C644   H684    1.076   .     S
C644   C646    1.387   .     A
C644   C671    1.417   .     A
C645   H675    1.084   .     S
C646   H676    1.085   .     S
C646   C94     1.390   1_556 S
C647   H685    1.083   .     S
C647   C1033   1.383   1_545 S
C647   C716    1.402   .     S
C648   H686    1.083   .     S
C648   C842    1.383   .     S
C649   H687    1.083   .     S
C649   C651    1.401   .     A
C649   C839    1.383   .     S
C650   H688    1.083   .     S
C650   C652    1.401   .     A
C650   C1032   1.383   1_545 S
C651   C712    1.402   .     S
C653   N692    1.363   .     A
C653   H689    1.083   .     S
C653   C655    1.417   .     A
C654   C656    1.417   .     A
C654   H690    1.083   .     S
C654   N691    1.363   .     A
C655   N691    1.376   .     A
C655   C701    1.438   .     S
C656   C703    1.438   .     S
C656   N692    1.376   .     A
C657   O699    1.296   .     A
C657   C659    1.468   .     S
C657   O761    1.299   .     S
C658   C660    1.467   .     S
C658   O700    1.295   .     A
C659   C663    1.398   .     A
C659   C665    1.400   .     A
C660   C664    1.398   .     A
C660   C666    1.399   .     A
C661   C663    1.392   .     A
C661   C669    1.404   .     A
C661   H745    1.083   .     S
C662   H682    1.083   .     S
C662   C664    1.392   .     A
C662   C670    1.404   .     A
C663   H744    1.083   .     S
C665   H678    1.074   .     S
C665   C667    1.406   .     A
C666   H677    1.075   .     S
C666   C668    1.406   .     A
C667   C669    1.418   .     A
C667   C671    1.428   .     A
C668   C670    1.418   .     A
C668   C672    1.428   .     A
C669   C69     1.390   1_556 S
C671   C96     1.425   1_556 S
Cu673  N691    2.017   .     S
Cu673  O696    1.964   .     S
Cu673  O700    1.939   .     S
Cu673  O693    1.966   .     S
Cu673  O697    1.955   .     S
Cu674  O695    1.964   .     S
Cu674  O694    1.966   .     S
Cu674  O698    1.955   .     S
Cu674  N692    2.017   .     S
Cu674  O699    1.939   .     S
Cu674  Cu737   2.685   .     S
H679   C728    1.083   .     S
O695   C705    1.293   .     S
O698   C722    1.299   .     S
C701   N702    1.158   .     T
C703   N704    1.158   .     T
C705   C716    1.450   .     S
C705   O757    1.294   .     A
C706   C715    1.450   .     S
C706   O758    1.294   .     A
C706   O632    1.293   1_655 S
C707   H747    1.076   .     S
C707   C736    1.417   .     A
C707   C709    1.386   .     A
C708   H748    1.076   .     S
C708   C710    1.387   .     A
C708   C735    1.417   .     A
C709   H739    1.084   .     S
C710   H740    1.085   .     S
C710   C158    1.390   1_556 S
C711   H749    1.083   .     S
C711   C1097   1.383   1_545 S
C711   C588    1.402   1_655 S
C712   H750    1.083   .     S
C712   C906    1.383   .     S
C713   H751    1.083   .     S
C713   C715    1.401   .     A
C713   C903    1.383   .     S
C714   H752    1.083   .     S
C714   C716    1.401   .     A
C714   C1096   1.383   1_545 S
C715   C584    1.402   1_655 S
C717   N756    1.363   .     A
C717   H753    1.083   .     S
C717   C719    1.417   .     A
C718   C720    1.417   .     A
C718   H754    1.083   .     S
C718   N755    1.363   .     A
C719   N755    1.376   .     A
C719   C765    1.438   .     S
C720   C767    1.438   .     S
C720   N756    1.376   .     A
C721   O763    1.296   .     A
C721   C723    1.468   .     S
C721   O633    1.299   1_655 S
C722   C724    1.467   .     S
C722   O764    1.295   .     A
C723   C727    1.398   .     A
C723   C729    1.400   .     A
C724   C728    1.398   .     A
C724   C730    1.399   .     A
C725   C727    1.392   .     A
C725   C733    1.404   .     A
C725   H617    1.083   1_655 S
C726   H746    1.083   .     S
C726   C728    1.392   .     A
C726   C734    1.404   .     A
C727   H616    1.083   1_655 S
C729   H742    1.074   .     S
C729   C731    1.406   .     A
C730   H741    1.075   .     S
C730   C732    1.406   .     A
C731   C733    1.418   .     A
C731   C735    1.428   .     A
C732   C734    1.418   .     A
C732   C736    1.428   .     A
C733   C133    1.390   1_556 S
C735   C160    1.425   1_556 S
Cu737  N755    2.017   .     S
Cu737  O760    1.964   .     S
Cu737  O764    1.939   .     S
Cu737  O757    1.966   .     S
Cu737  O761    1.955   .     S
Cu738  O759    1.964   .     S
Cu738  O758    1.966   .     S
Cu738  O762    1.955   .     S
Cu738  N756    2.017   .     S
Cu738  O763    1.939   .     S
Cu738  Cu609   2.685   1_655 S
H743   C600    1.083   1_655 S
O759   C577    1.293   1_655 S
O762   C594    1.299   1_655 S
C765   N766    1.158   .     T
C767   N768    1.158   .     T
C769   C780    1.450   .     S
C769   O821    1.294   .     A
C769   O951    1.293   1_455 S
C770   C779    1.450   .     S
C770   O822    1.294   .     A
C770   O888    1.293   .     S
C771   H811    1.076   .     S
C771   C800    1.417   .     A
C771   C773    1.386   .     A
C772   H812    1.076   .     S
C772   C774    1.387   .     A
C772   C799    1.417   .     A
C773   H803    1.084   .     S
C774   H804    1.085   .     S
C774   C222    1.390   1_556 S
C775   H813    1.083   .     S
C775   C844    1.402   .     S
C776   H814    1.083   .     S
C776   C970    1.383   .     S
C776   C907    1.402   1_455 S
C777   H815    1.083   .     S
C777   C779    1.401   .     A
C777   C967    1.383   .     S
C778   H816    1.083   .     S
C778   C780    1.401   .     A
C779   C840    1.402   .     S
C780   C903    1.402   1_455 S
C781   N820    1.363   .     A
C781   H817    1.083   .     S
C781   C783    1.417   .     A
C782   C784    1.417   .     A
C782   H818    1.083   .     S
C782   N819    1.363   .     A
C783   N819    1.376   .     A
C783   C829    1.438   .     S
C784   C831    1.438   .     S
C784   N820    1.376   .     A
C785   O827    1.296   .     A
C785   C787    1.468   .     S
C785   O889    1.299   .     S
C786   C788    1.467   .     S
C786   O828    1.295   .     A
C786   O954    1.299   1_455 S
C787   C791    1.398   .     A
C787   C793    1.400   .     A
C788   C792    1.398   .     A
C788   C794    1.399   .     A
C789   C791    1.392   .     A
C789   C797    1.404   .     A
C789   H873    1.083   .     S
C790   H810    1.083   .     S
C790   C792    1.392   .     A
C790   C798    1.404   .     A
C791   H872    1.083   .     S
C792   H935    1.083   1_455 S
C793   H806    1.074   .     S
C793   C795    1.406   .     A
C794   H805    1.075   .     S
C794   C796    1.406   .     A
C795   C797    1.418   .     A
C795   C799    1.428   .     A
C796   C798    1.418   .     A
C796   C800    1.428   .     A
C797   C197    1.390   1_556 S
C799   C224    1.425   1_556 S
Cu801  N819    2.017   .     S
Cu801  O824    1.964   .     S
Cu801  O828    1.939   .     S
Cu801  O821    1.966   .     S
Cu801  O825    1.955   .     S
Cu801  Cu930   2.685   1_455 S
Cu802  O823    1.964   .     S
Cu802  O822    1.966   .     S
Cu802  O826    1.955   .     S
Cu802  N820    2.017   .     S
Cu802  O827    1.939   .     S
Cu802  Cu865   2.685   .     S
H807   C856    1.083   .     S
H808   C919    1.083   1_455 S
H809   C917    1.083   1_455 S
O823   C833    1.293   .     S
O824   C898    1.293   1_455 S
O825   C913    1.299   1_455 S
O826   C850    1.299   .     S
C829   N830    1.158   .     T
C831   N832    1.158   .     T
C833   C844    1.450   .     S
C833   O885    1.294   .     A
C834   C843    1.450   .     S
C834   O886    1.294   .     A
C834   O952    1.293   .     S
C835   H875    1.076   .     S
C835   C864    1.417   .     A
C835   C837    1.386   .     A
C836   H876    1.076   .     S
C836   C838    1.387   .     A
C836   C863    1.417   .     A
C837   H867    1.084   .     S
C838   H868    1.085   .     S
C838   C286    1.390   1_556 S
C839   H877    1.083   .     S
C839   C908    1.402   .     S
C840   H878    1.083   .     S
C840   C1034   1.383   .     S
C841   H879    1.083   .     S
C841   C843    1.401   .     A
C841   C1031   1.383   .     S
C842   H880    1.083   .     S
C842   C844    1.401   .     A
C843   C904    1.402   .     S
C845   N884    1.363   .     A
C845   H881    1.083   .     S
C845   C847    1.417   .     A
C846   C848    1.417   .     A
C846   H882    1.083   .     S
C846   N883    1.363   .     A
C847   N883    1.376   .     A
C847   C893    1.438   .     S
C848   C895    1.438   .     S
C848   N884    1.376   .     A
C849   O891    1.296   .     A
C849   C851    1.468   .     S
C849   O953    1.299   .     S
C850   C852    1.467   .     S
C850   O892    1.295   .     A
C851   C855    1.398   .     A
C851   C857    1.400   .     A
C852   C856    1.398   .     A
C852   C858    1.399   .     A
C853   C855    1.392   .     A
C853   C861    1.404   .     A
C853   H937    1.083   .     S
C854   H874    1.083   .     S
C854   C856    1.392   .     A
C854   C862    1.404   .     A
C855   H936    1.083   .     S
C857   H870    1.074   .     S
C857   C859    1.406   .     A
C858   H869    1.075   .     S
C858   C860    1.406   .     A
C859   C861    1.418   .     A
C859   C863    1.428   .     A
C860   C862    1.418   .     A
C860   C864    1.428   .     A
C861   C261    1.390   1_556 S
C863   C288    1.425   1_556 S
Cu865  N883    2.017   .     S
Cu865  O888    1.964   .     S
Cu865  O892    1.939   .     S
Cu865  O885    1.966   .     S
Cu865  O889    1.955   .     S
Cu866  O887    1.964   .     S
Cu866  O886    1.966   .     S
Cu866  O890    1.955   .     S
Cu866  N884    2.017   .     S
Cu866  O891    1.939   .     S
Cu866  Cu929   2.685   .     S
H871   C920    1.083   .     S
O887   C897    1.293   .     S
O890   C914    1.299   .     S
C893   N894    1.158   .     T
C895   N896    1.158   .     T
C897   C908    1.450   .     S
C897   O949    1.294   .     A
C898   C907    1.450   .     S
C898   O950    1.294   .     A
C898   O824    1.293   1_655 S
C899   H939    1.076   .     S
C899   C928    1.417   .     A
C899   C901    1.386   .     A
C900   H940    1.076   .     S
C900   C902    1.387   .     A
C900   C927    1.417   .     A
C901   H931    1.084   .     S
C902   H932    1.085   .     S
C902   C350    1.390   1_556 S
C903   H941    1.083   .     S
C903   C780    1.402   1_655 S
C904   H942    1.083   .     S
C904   C1098   1.383   .     S
C905   H943    1.083   .     S
C905   C907    1.401   .     A
C905   C1095   1.383   .     S
C906   H944    1.083   .     S
C906   C908    1.401   .     A
C907   C776    1.402   1_655 S
C909   N948    1.363   .     A
C909   H945    1.083   .     S
C909   C911    1.417   .     A
C910   C912    1.417   .     A
C910   H946    1.083   .     S
C910   N947    1.363   .     A
C911   N947    1.376   .     A
C911   C957    1.438   .     S
C912   C959    1.438   .     S
C912   N948    1.376   .     A
C913   O955    1.296   .     A
C913   C915    1.468   .     S
C913   O825    1.299   1_655 S
C914   C916    1.467   .     S
C914   O956    1.295   .     A
C915   C919    1.398   .     A
C915   C921    1.400   .     A
C916   C920    1.398   .     A
C916   C922    1.399   .     A
C917   C919    1.392   .     A
C917   C925    1.404   .     A
C917   H809    1.083   1_655 S
C918   H938    1.083   .     S
C918   C920    1.392   .     A
C918   C926    1.404   .     A
C919   H808    1.083   1_655 S
C921   H934    1.074   .     S
C921   C923    1.406   .     A
C922   H933    1.075   .     S
C922   C924    1.406   .     A
C923   C925    1.418   .     A
C923   C927    1.428   .     A
C924   C926    1.418   .     A
C924   C928    1.428   .     A
C925   C325    1.390   1_556 S
C927   C352    1.425   1_556 S
Cu929  N947    2.017   .     S
Cu929  O952    1.964   .     S
Cu929  O956    1.939   .     S
Cu929  O949    1.966   .     S
Cu929  O953    1.955   .     S
Cu930  O951    1.964   .     S
Cu930  O950    1.966   .     S
Cu930  O954    1.955   .     S
Cu930  N948    2.017   .     S
Cu930  O955    1.939   .     S
Cu930  Cu801   2.685   1_655 S
H935   C792    1.083   1_655 S
O951   C769    1.293   1_655 S
O954   C786    1.299   1_655 S
C957   N958    1.158   .     T
C959   N960    1.158   .     T
C961   C972    1.450   .     S
C961   O1013   1.294   .     A
C961   O1143   1.293   1_455 S
C962   C971    1.450   .     S
C962   O1014   1.294   .     A
C962   O1080   1.293   .     S
C963   H1003   1.076   .     S
C963   C992    1.417   .     A
C963   C965    1.386   .     A
C964   H1004   1.076   .     S
C964   C966    1.387   .     A
C964   C991    1.417   .     A
C965   H995    1.084   .     S
C966   H996    1.085   .     S
C966   C414    1.390   1_556 S
C967   H1005   1.083   .     S
C967   C1036   1.402   .     S
C968   H1006   1.083   .     S
C968   C586    1.383   1_565 S
C968   C1099   1.402   1_455 S
C969   H1007   1.083   .     S
C969   C971    1.401   .     A
C969   C583    1.383   1_565 S
C970   H1008   1.083   .     S
C970   C972    1.401   .     A
C971   C1032   1.402   .     S
C972   C1095   1.402   1_455 S
C973   N1012   1.363   .     A
C973   H1009   1.083   .     S
C973   C975    1.417   .     A
C974   C976    1.417   .     A
C974   H1010   1.083   .     S
C974   N1011   1.363   .     A
C975   N1011   1.376   .     A
C975   C1021   1.438   .     S
C976   C1023   1.438   .     S
C976   N1012   1.376   .     A
C977   O1019   1.296   .     A
C977   C979    1.468   .     S
C977   O1081   1.299   .     S
C978   C980    1.467   .     S
C978   O1020   1.295   .     A
C978   O1146   1.299   1_455 S
C979   C983    1.398   .     A
C979   C985    1.400   .     A
C980   C984    1.398   .     A
C980   C986    1.399   .     A
C981   C983    1.392   .     A
C981   C989    1.404   .     A
C981   H1065   1.083   .     S
C982   H1002   1.083   .     S
C982   C984    1.392   .     A
C982   C990    1.404   .     A
C983   H1064   1.083   .     S
C984   H1127   1.083   1_455 S
C985   H998    1.074   .     S
C985   C987    1.406   .     A
C986   H997    1.075   .     S
C986   C988    1.406   .     A
C987   C989    1.418   .     A
C987   C991    1.428   .     A
C988   C990    1.418   .     A
C988   C992    1.428   .     A
C989   C389    1.390   1_556 S
C991   C416    1.425   1_556 S
Cu993  N1011   2.017   .     S
Cu993  O1016   1.964   .     S
Cu993  O1020   1.939   .     S
Cu993  O1013   1.966   .     S
Cu993  O1017   1.955   .     S
Cu993  Cu1122  2.685   1_455 S
Cu994  O1015   1.964   .     S
Cu994  O1014   1.966   .     S
Cu994  O1018   1.955   .     S
Cu994  N1012   2.017   .     S
Cu994  O1019   1.939   .     S
Cu994  Cu1057  2.685   .     S
H999   C1048   1.083   .     S
H1000  C1111   1.083   1_455 S
H1001  C1109   1.083   1_455 S
O1015  C1025   1.293   .     S
O1016  C1090   1.293   1_455 S
O1017  C1105   1.299   1_455 S
O1018  C1042   1.299   .     S
C1021  N1022   1.158   .     T
C1023  N1024   1.158   .     T
C1025  C1036   1.450   .     S
C1025  O1077   1.294   .     A
C1026  C1035   1.450   .     S
C1026  O1078   1.294   .     A
C1026  O1144   1.293   .     S
C1027  H1067   1.076   .     S
C1027  C1056   1.417   .     A
C1027  C1029   1.386   .     A
C1028  H1068   1.076   .     S
C1028  C1030   1.387   .     A
C1028  C1055   1.417   .     A
C1029  H1059   1.084   .     S
C1030  H1060   1.085   .     S
C1030  C478    1.390   1_556 S
C1031  H1069   1.083   .     S
C1031  C1100   1.402   .     S
C1032  H1070   1.083   .     S
C1032  C650    1.383   1_565 S
C1033  H1071   1.083   .     S
C1033  C1035   1.401   .     A
C1033  C647    1.383   1_565 S
C1034  H1072   1.083   .     S
C1034  C1036   1.401   .     A
C1035  C1096   1.402   .     S
C1037  N1076   1.363   .     A
C1037  H1073   1.083   .     S
C1037  C1039   1.417   .     A
C1038  C1040   1.417   .     A
C1038  H1074   1.083   .     S
C1038  N1075   1.363   .     A
C1039  N1075   1.376   .     A
C1039  C1085   1.438   .     S
C1040  C1087   1.438   .     S
C1040  N1076   1.376   .     A
C1041  O1083   1.296   .     A
C1041  C1043   1.468   .     S
C1041  O1145   1.299   .     S
C1042  C1044   1.467   .     S
C1042  O1084   1.295   .     A
C1043  C1047   1.398   .     A
C1043  C1049   1.400   .     A
C1044  C1048   1.398   .     A
C1044  C1050   1.399   .     A
C1045  C1047   1.392   .     A
C1045  C1053   1.404   .     A
C1045  H1129   1.083   .     S
C1046  H1066   1.083   .     S
C1046  C1048   1.392   .     A
C1046  C1054   1.404   .     A
C1047  H1128   1.083   .     S
C1049  H1062   1.074   .     S
C1049  C1051   1.406   .     A
C1050  H1061   1.075   .     S
C1050  C1052   1.406   .     A
C1051  C1053   1.418   .     A
C1051  C1055   1.428   .     A
C1052  C1054   1.418   .     A
C1052  C1056   1.428   .     A
C1053  C453    1.390   1_556 S
C1055  C480    1.425   1_556 S
Cu1057 N1075   2.017   .     S
Cu1057 O1080   1.964   .     S
Cu1057 O1084   1.939   .     S
Cu1057 O1077   1.966   .     S
Cu1057 O1081   1.955   .     S
Cu1058 O1079   1.964   .     S
Cu1058 O1078   1.966   .     S
Cu1058 O1082   1.955   .     S
Cu1058 N1076   2.017   .     S
Cu1058 O1083   1.939   .     S
Cu1058 Cu1121  2.685   .     S
H1063  C1112   1.083   .     S
O1079  C1089   1.293   .     S
O1082  C1106   1.299   .     S
C1085  N1086   1.158   .     T
C1087  N1088   1.158   .     T
C1089  C1100   1.450   .     S
C1089  O1141   1.294   .     A
C1090  C1099   1.450   .     S
C1090  O1142   1.294   .     A
C1090  O1016   1.293   1_655 S
C1091  H1131   1.076   .     S
C1091  C1120   1.417   .     A
C1091  C1093   1.386   .     A
C1092  H1132   1.076   .     S
C1092  C1094   1.387   .     A
C1092  C1119   1.417   .     A
C1093  H1123   1.084   .     S
C1094  H1124   1.085   .     S
C1094  C542    1.390   1_556 S
C1095  H1133   1.083   .     S
C1095  C972    1.402   1_655 S
C1096  H1134   1.083   .     S
C1096  C714    1.383   1_565 S
C1097  H1135   1.083   .     S
C1097  C1099   1.401   .     A
C1097  C711    1.383   1_565 S
C1098  H1136   1.083   .     S
C1098  C1100   1.401   .     A
C1099  C968    1.402   1_655 S
C1101  N1140   1.363   .     A
C1101  H1137   1.083   .     S
C1101  C1103   1.417   .     A
C1102  C1104   1.417   .     A
C1102  H1138   1.083   .     S
C1102  N1139   1.363   .     A
C1103  N1139   1.376   .     A
C1103  C1149   1.438   .     S
C1104  C1151   1.438   .     S
C1104  N1140   1.376   .     A
C1105  O1147   1.296   .     A
C1105  C1107   1.468   .     S
C1105  O1017   1.299   1_655 S
C1106  C1108   1.467   .     S
C1106  O1148   1.295   .     A
C1107  C1111   1.398   .     A
C1107  C1113   1.400   .     A
C1108  C1112   1.398   .     A
C1108  C1114   1.399   .     A
C1109  C1111   1.392   .     A
C1109  C1117   1.404   .     A
C1109  H1001   1.083   1_655 S
C1110  H1130   1.083   .     S
C1110  C1112   1.392   .     A
C1110  C1118   1.404   .     A
C1111  H1000   1.083   1_655 S
C1113  H1126   1.074   .     S
C1113  C1115   1.406   .     A
C1114  H1125   1.075   .     S
C1114  C1116   1.406   .     A
C1115  C1117   1.418   .     A
C1115  C1119   1.428   .     A
C1116  C1118   1.418   .     A
C1116  C1120   1.428   .     A
C1117  C517    1.390   1_556 S
C1119  C544    1.425   1_556 S
Cu1121 N1139   2.017   .     S
Cu1121 O1144   1.964   .     S
Cu1121 O1148   1.939   .     S
Cu1121 O1141   1.966   .     S
Cu1121 O1145   1.955   .     S
Cu1122 O1143   1.964   .     S
Cu1122 O1142   1.966   .     S
Cu1122 O1146   1.955   .     S
Cu1122 N1140   2.017   .     S
Cu1122 O1147   1.939   .     S
Cu1122 Cu993   2.685   1_655 S
H1127  C984    1.083   1_655 S
O1143  C961    1.293   1_655 S
O1146  C978    1.299   1_655 S
C1149  N1150   1.158   .     T
C1151  N1152   1.158   .     T
