data_str_m2_o10_o16_pcu_sym.177
_audit_creation_date              2020-01-03
_audit_creation_method            'Materials Studio'
_symmetry_space_group_name_H-M    'P1'
_symmetry_Int_Tables_number       1
_symmetry_cell_setting            triclinic
loop_
_symmetry_equiv_pos_as_xyz
  x,y,z
_cell_length_a                    22.4110
_cell_length_b                    26.0577
_cell_length_c                    26.9441
_cell_angle_alpha                 95.1425
_cell_angle_beta                  78.0428
_cell_angle_gamma                 103.1609
loop_
_atom_site_label
_atom_site_type_symbol
_atom_site_fract_x
_atom_site_fract_y
_atom_site_fract_z
_atom_site_U_iso_or_equiv
_atom_site_adp_type
_atom_site_occupancy
C1     C     0.18119   0.26667   0.25281   0.00000  Uiso   1.00
C2     C     0.13605   0.16897   0.48837   0.00000  Uiso   1.00
C3     C     0.15354   0.18424   0.43688   0.00000  Uiso   1.00
C4     C     0.18341   0.18139   0.01910   0.00000  Uiso   1.00
C5     C     0.24143   0.21607   0.00087   0.00000  Uiso   1.00
C6     C     0.25342   0.23596   0.45280   0.00000  Uiso   1.00
C7     C     0.21054   0.22015   0.42124   0.00000  Uiso   1.00
C8     C     0.17656   0.15995   0.06665   0.00000  Uiso   1.00
C9     C     0.27563   0.21383   0.08020   0.00000  Uiso   1.00
C10    C     0.11261   0.16458   0.40245   0.00000  Uiso   1.00
C11    C     0.18767   0.32256   0.25705   0.00000  Uiso   1.00
C12    C     0.13355   0.16601   0.34697   0.00000  Uiso   1.00
C13    C     0.14337   0.01052   0.24662   0.00000  Uiso   1.00
C14    C     0.15150   0.06660   0.24851   0.00000  Uiso   1.00
C15    C     0.20005   0.16984   0.15308   0.00000  Uiso   1.00
C16    C     0.28713   0.23122   0.03113   0.00000  Uiso   1.00
C17    C     0.21959   0.17906   0.09858   0.00000  Uiso   1.00
C18    C     0.05111   0.13924   0.42082   0.00000  Uiso   1.00
C19    C     0.03080   0.13057   0.47173   0.00000  Uiso   1.00
C20    C     0.07199   0.14328   0.00570   0.00000  Uiso   1.00
Cu21   Cu    0.10710   0.16105   0.24436   0.00000  Uiso   1.00
Cu22   Cu    0.22623   0.17228   0.25565   0.00000  Uiso   1.00
H23    H     0.30947   0.22897   0.10428   0.00000  Uiso   1.00
H24    H     0.10115   0.32003   0.23568   0.00000  Uiso   1.00
H25    H     0.00287   0.20498   0.29109   0.00000  Uiso   1.00
H26    H     0.29675   0.26351   0.43914   0.00000  Uiso   1.00
H27    H     0.33102   0.25804   0.01739   0.00000  Uiso   1.00
H28    H     0.13857   0.12799   0.08007   0.00000  Uiso   1.00
H29    H     0.01823   0.12552   0.39566   0.00000  Uiso   1.00
H30    H     0.31527   0.11303   0.48501   0.00000  Uiso   1.00
H31    H     0.22188   0.23823   0.38497   0.00000  Uiso   1.00
H32    H     0.22870   0.01294   0.26950   0.00000  Uiso   1.00
N33    N     0.31574   0.18074   0.26416   0.00000  Uiso   1.00
N34    N     0.01759   0.15259   0.23584   0.00000  Uiso   1.00
O35    O     0.12797   0.23807   0.24633   0.00000  Uiso   1.00
O36    O     0.22858   0.24755   0.25587   0.00000  Uiso   1.00
O37    O     0.09181   0.15960   0.31840   0.00000  Uiso   1.00
O38    O     0.19242   0.16908   0.32793   0.00000  Uiso   1.00
O39    O     0.10476   0.08578   0.24414   0.00000  Uiso   1.00
O40    O     0.20536   0.09526   0.25367   0.00000  Uiso   1.00
O41    O     0.14092   0.16425   0.17207   0.00000  Uiso   1.00
O42    O     0.24152   0.17373   0.18161   0.00000  Uiso   1.00
N43    N     0.32502   0.12117   0.19882   0.00000  Uiso   1.00
H44    H     0.00646   0.13794   0.16412   0.00000  Uiso   1.00
C45    C     0.33220   0.06736   0.19672   0.00000  Uiso   1.00
H46    H     0.29667   0.04170   0.17705   0.00000  Uiso   1.00
H47    H     0.32548   0.05327   0.23551   0.00000  Uiso   1.00
H48    H     0.04593   0.06412   0.17545   0.00000  Uiso   1.00
N49    N     0.04498   0.13469   0.05746   0.00000  Uiso   1.00
H50    H     0.05668   0.16307   0.08500   0.00000  Uiso   1.00
C51    C     0.01272   0.08151   0.07115   0.00000  Uiso   1.00
H52    H     0.29931   0.08234   0.09461   0.00000  Uiso   1.00
H53    H     0.04057   0.06484   0.09238   0.00000  Uiso   1.00
H54    H     0.00633   0.05458   0.03738   0.00000  Uiso   1.00
C55    C     0.51452   0.26667   0.25281   0.00000  Uiso   1.00
C56    C     0.46939   0.16897   0.48837   0.00000  Uiso   1.00
C57    C     0.48688   0.18424   0.43688   0.00000  Uiso   1.00
C58    C     0.51675   0.18139   0.01910   0.00000  Uiso   1.00
C59    C     0.57477   0.21607   0.00087   0.00000  Uiso   1.00
C60    C     0.58675   0.23596   0.45280   0.00000  Uiso   1.00
C61    C     0.54387   0.22015   0.42124   0.00000  Uiso   1.00
C62    C     0.50990   0.15995   0.06665   0.00000  Uiso   1.00
C63    C     0.60897   0.21383   0.08020   0.00000  Uiso   1.00
C64    C     0.44594   0.16458   0.40245   0.00000  Uiso   1.00
C65    C     0.52100   0.32256   0.25705   0.00000  Uiso   1.00
C66    C     0.46689   0.16601   0.34697   0.00000  Uiso   1.00
C67    C     0.47671   0.01052   0.24662   0.00000  Uiso   1.00
C68    C     0.48483   0.06660   0.24851   0.00000  Uiso   1.00
C69    C     0.53338   0.16984   0.15308   0.00000  Uiso   1.00
C70    C     0.62047   0.23122   0.03113   0.00000  Uiso   1.00
C71    C     0.55293   0.17906   0.09858   0.00000  Uiso   1.00
C72    C     0.38444   0.13924   0.42082   0.00000  Uiso   1.00
C73    C     0.36413   0.13057   0.47173   0.00000  Uiso   1.00
C74    C     0.40532   0.14328   0.00570   0.00000  Uiso   1.00
Cu75   Cu    0.44043   0.16105   0.24436   0.00000  Uiso   1.00
Cu76   Cu    0.55957   0.17228   0.25565   0.00000  Uiso   1.00
H77    H     0.64280   0.22897   0.10428   0.00000  Uiso   1.00
H78    H     0.43449   0.32003   0.23568   0.00000  Uiso   1.00
H79    H     0.33620   0.20498   0.29109   0.00000  Uiso   1.00
H80    H     0.63008   0.26351   0.43914   0.00000  Uiso   1.00
H81    H     0.66435   0.25804   0.01739   0.00000  Uiso   1.00
H82    H     0.47190   0.12799   0.08007   0.00000  Uiso   1.00
H83    H     0.35156   0.12552   0.39566   0.00000  Uiso   1.00
H84    H     0.64861   0.11303   0.48501   0.00000  Uiso   1.00
H85    H     0.55522   0.23823   0.38497   0.00000  Uiso   1.00
H86    H     0.56203   0.01294   0.26950   0.00000  Uiso   1.00
N87    N     0.64908   0.18074   0.26416   0.00000  Uiso   1.00
N88    N     0.35092   0.15259   0.23584   0.00000  Uiso   1.00
O89    O     0.46131   0.23807   0.24633   0.00000  Uiso   1.00
O90    O     0.56191   0.24755   0.25587   0.00000  Uiso   1.00
O91    O     0.42515   0.15960   0.31840   0.00000  Uiso   1.00
O92    O     0.52575   0.16908   0.32793   0.00000  Uiso   1.00
O93    O     0.43809   0.08578   0.24414   0.00000  Uiso   1.00
O94    O     0.53869   0.09526   0.25367   0.00000  Uiso   1.00
O95    O     0.47425   0.16425   0.17207   0.00000  Uiso   1.00
O96    O     0.57485   0.17373   0.18161   0.00000  Uiso   1.00
N97    N     0.65835   0.12117   0.19882   0.00000  Uiso   1.00
H98    H     0.33979   0.13794   0.16412   0.00000  Uiso   1.00
C99    C     0.66553   0.06736   0.19672   0.00000  Uiso   1.00
H100   H     0.63000   0.04170   0.17705   0.00000  Uiso   1.00
H101   H     0.65881   0.05327   0.23551   0.00000  Uiso   1.00
H102   H     0.37927   0.06412   0.17545   0.00000  Uiso   1.00
N103   N     0.37831   0.13469   0.05746   0.00000  Uiso   1.00
H104   H     0.39001   0.16307   0.08500   0.00000  Uiso   1.00
C105   C     0.34606   0.08151   0.07115   0.00000  Uiso   1.00
H106   H     0.63265   0.08234   0.09461   0.00000  Uiso   1.00
H107   H     0.37390   0.06484   0.09238   0.00000  Uiso   1.00
H108   H     0.33966   0.05458   0.03738   0.00000  Uiso   1.00
C109   C     0.84786   0.26667   0.25281   0.00000  Uiso   1.00
C110   C     0.80272   0.16897   0.48837   0.00000  Uiso   1.00
C111   C     0.82021   0.18424   0.43688   0.00000  Uiso   1.00
C112   C     0.85008   0.18139   0.01910   0.00000  Uiso   1.00
C113   C     0.90810   0.21607   0.00087   0.00000  Uiso   1.00
C114   C     0.92008   0.23596   0.45280   0.00000  Uiso   1.00
C115   C     0.87720   0.22015   0.42124   0.00000  Uiso   1.00
C116   C     0.84323   0.15995   0.06665   0.00000  Uiso   1.00
C117   C     0.94230   0.21383   0.08020   0.00000  Uiso   1.00
C118   C     0.77928   0.16458   0.40245   0.00000  Uiso   1.00
C119   C     0.85433   0.32256   0.25705   0.00000  Uiso   1.00
C120   C     0.80022   0.16601   0.34697   0.00000  Uiso   1.00
C121   C     0.81004   0.01052   0.24662   0.00000  Uiso   1.00
C122   C     0.81816   0.06660   0.24851   0.00000  Uiso   1.00
C123   C     0.86671   0.16984   0.15308   0.00000  Uiso   1.00
C124   C     0.95380   0.23122   0.03113   0.00000  Uiso   1.00
C125   C     0.88626   0.17906   0.09858   0.00000  Uiso   1.00
C126   C     0.71778   0.13924   0.42082   0.00000  Uiso   1.00
C127   C     0.69746   0.13057   0.47173   0.00000  Uiso   1.00
C128   C     0.73866   0.14328   0.00570   0.00000  Uiso   1.00
Cu129  Cu    0.77377   0.16105   0.24436   0.00000  Uiso   1.00
Cu130  Cu    0.89290   0.17228   0.25565   0.00000  Uiso   1.00
H131   H     0.97613   0.22897   0.10428   0.00000  Uiso   1.00
H132   H     0.76782   0.32003   0.23568   0.00000  Uiso   1.00
H133   H     0.66953   0.20498   0.29109   0.00000  Uiso   1.00
H134   H     0.96342   0.26351   0.43914   0.00000  Uiso   1.00
H135   H     0.99768   0.25804   0.01739   0.00000  Uiso   1.00
H136   H     0.80524   0.12799   0.08007   0.00000  Uiso   1.00
H137   H     0.68489   0.12552   0.39566   0.00000  Uiso   1.00
H138   H     0.98194   0.11303   0.48501   0.00000  Uiso   1.00
H139   H     0.88855   0.23823   0.38497   0.00000  Uiso   1.00
H140   H     0.89537   0.01294   0.26950   0.00000  Uiso   1.00
N141   N     0.98241   0.18074   0.26416   0.00000  Uiso   1.00
N142   N     0.68426   0.15259   0.23584   0.00000  Uiso   1.00
O143   O     0.79464   0.23807   0.24633   0.00000  Uiso   1.00
O144   O     0.89524   0.24755   0.25587   0.00000  Uiso   1.00
O145   O     0.75848   0.15960   0.31840   0.00000  Uiso   1.00
O146   O     0.85908   0.16908   0.32793   0.00000  Uiso   1.00
O147   O     0.77142   0.08578   0.24414   0.00000  Uiso   1.00
O148   O     0.87203   0.09526   0.25367   0.00000  Uiso   1.00
O149   O     0.80758   0.16425   0.17207   0.00000  Uiso   1.00
O150   O     0.90819   0.17373   0.18161   0.00000  Uiso   1.00
N151   N     0.99168   0.12117   0.19882   0.00000  Uiso   1.00
H152   H     0.67312   0.13794   0.16412   0.00000  Uiso   1.00
C153   C     0.99887   0.06736   0.19672   0.00000  Uiso   1.00
H154   H     0.96333   0.04170   0.17705   0.00000  Uiso   1.00
H155   H     0.99214   0.05327   0.23551   0.00000  Uiso   1.00
H156   H     0.71260   0.06412   0.17545   0.00000  Uiso   1.00
N157   N     0.71165   0.13469   0.05746   0.00000  Uiso   1.00
H158   H     0.72334   0.16307   0.08500   0.00000  Uiso   1.00
C159   C     0.67939   0.08151   0.07115   0.00000  Uiso   1.00
H160   H     0.96598   0.08234   0.09461   0.00000  Uiso   1.00
H161   H     0.70724   0.06484   0.09238   0.00000  Uiso   1.00
H162   H     0.67300   0.05458   0.03738   0.00000  Uiso   1.00
C163   C     0.18119   0.60000   0.25281   0.00000  Uiso   1.00
C164   C     0.13605   0.50230   0.48837   0.00000  Uiso   1.00
C165   C     0.15354   0.51757   0.43688   0.00000  Uiso   1.00
C166   C     0.18341   0.51472   0.01910   0.00000  Uiso   1.00
C167   C     0.24143   0.54940   0.00087   0.00000  Uiso   1.00
C168   C     0.25342   0.56929   0.45280   0.00000  Uiso   1.00
C169   C     0.21054   0.55348   0.42124   0.00000  Uiso   1.00
C170   C     0.17656   0.49328   0.06665   0.00000  Uiso   1.00
C171   C     0.27563   0.54716   0.08020   0.00000  Uiso   1.00
C172   C     0.11261   0.49792   0.40245   0.00000  Uiso   1.00
C173   C     0.18767   0.65590   0.25705   0.00000  Uiso   1.00
C174   C     0.13355   0.49934   0.34697   0.00000  Uiso   1.00
C175   C     0.14337   0.34386   0.24662   0.00000  Uiso   1.00
C176   C     0.15150   0.39994   0.24851   0.00000  Uiso   1.00
C177   C     0.20005   0.50317   0.15308   0.00000  Uiso   1.00
C178   C     0.28713   0.56455   0.03113   0.00000  Uiso   1.00
C179   C     0.21959   0.51240   0.09858   0.00000  Uiso   1.00
C180   C     0.05111   0.47257   0.42082   0.00000  Uiso   1.00
C181   C     0.03080   0.46390   0.47173   0.00000  Uiso   1.00
C182   C     0.07199   0.47661   0.00570   0.00000  Uiso   1.00
Cu183  Cu    0.10710   0.49439   0.24436   0.00000  Uiso   1.00
Cu184  Cu    0.22623   0.50561   0.25565   0.00000  Uiso   1.00
H185   H     0.30947   0.56230   0.10428   0.00000  Uiso   1.00
H186   H     0.10115   0.65336   0.23568   0.00000  Uiso   1.00
H187   H     0.00287   0.53831   0.29109   0.00000  Uiso   1.00
H188   H     0.29675   0.59685   0.43914   0.00000  Uiso   1.00
H189   H     0.33102   0.59137   0.01739   0.00000  Uiso   1.00
H190   H     0.13857   0.46133   0.08007   0.00000  Uiso   1.00
H191   H     0.01823   0.45885   0.39566   0.00000  Uiso   1.00
H192   H     0.31527   0.44636   0.48501   0.00000  Uiso   1.00
H193   H     0.22188   0.57156   0.38497   0.00000  Uiso   1.00
H194   H     0.22870   0.34627   0.26950   0.00000  Uiso   1.00
N195   N     0.31574   0.51407   0.26416   0.00000  Uiso   1.00
N196   N     0.01759   0.48593   0.23584   0.00000  Uiso   1.00
O197   O     0.12797   0.57141   0.24633   0.00000  Uiso   1.00
O198   O     0.22858   0.58089   0.25587   0.00000  Uiso   1.00
O199   O     0.09181   0.49293   0.31840   0.00000  Uiso   1.00
O200   O     0.19242   0.50241   0.32793   0.00000  Uiso   1.00
O201   O     0.10476   0.41911   0.24414   0.00000  Uiso   1.00
O202   O     0.20536   0.42859   0.25367   0.00000  Uiso   1.00
O203   O     0.14092   0.49759   0.17207   0.00000  Uiso   1.00
O204   O     0.24152   0.50707   0.18161   0.00000  Uiso   1.00
N205   N     0.32502   0.45451   0.19882   0.00000  Uiso   1.00
H206   H     0.00646   0.47127   0.16412   0.00000  Uiso   1.00
C207   C     0.33220   0.40069   0.19672   0.00000  Uiso   1.00
H208   H     0.29667   0.37503   0.17705   0.00000  Uiso   1.00
H209   H     0.32548   0.38660   0.23551   0.00000  Uiso   1.00
H210   H     0.04593   0.39746   0.17545   0.00000  Uiso   1.00
N211   N     0.04498   0.46802   0.05746   0.00000  Uiso   1.00
H212   H     0.05668   0.49640   0.08500   0.00000  Uiso   1.00
C213   C     0.01272   0.41484   0.07115   0.00000  Uiso   1.00
H214   H     0.29931   0.41567   0.09461   0.00000  Uiso   1.00
H215   H     0.04057   0.39818   0.09238   0.00000  Uiso   1.00
H216   H     0.00633   0.38791   0.03738   0.00000  Uiso   1.00
C217   C     0.51452   0.60000   0.25281   0.00000  Uiso   1.00
C218   C     0.46939   0.50230   0.48837   0.00000  Uiso   1.00
C219   C     0.48688   0.51757   0.43688   0.00000  Uiso   1.00
C220   C     0.51675   0.51472   0.01910   0.00000  Uiso   1.00
C221   C     0.57477   0.54940   0.00087   0.00000  Uiso   1.00
C222   C     0.58675   0.56929   0.45280   0.00000  Uiso   1.00
C223   C     0.54387   0.55348   0.42124   0.00000  Uiso   1.00
C224   C     0.50990   0.49328   0.06665   0.00000  Uiso   1.00
C225   C     0.60897   0.54716   0.08020   0.00000  Uiso   1.00
C226   C     0.44594   0.49792   0.40245   0.00000  Uiso   1.00
C227   C     0.52100   0.65590   0.25705   0.00000  Uiso   1.00
C228   C     0.46689   0.49934   0.34697   0.00000  Uiso   1.00
C229   C     0.47671   0.34386   0.24662   0.00000  Uiso   1.00
C230   C     0.48483   0.39994   0.24851   0.00000  Uiso   1.00
C231   C     0.53338   0.50317   0.15308   0.00000  Uiso   1.00
C232   C     0.62047   0.56455   0.03113   0.00000  Uiso   1.00
C233   C     0.55293   0.51240   0.09858   0.00000  Uiso   1.00
C234   C     0.38444   0.47257   0.42082   0.00000  Uiso   1.00
C235   C     0.36413   0.46390   0.47173   0.00000  Uiso   1.00
C236   C     0.40532   0.47661   0.00570   0.00000  Uiso   1.00
Cu237  Cu    0.44043   0.49439   0.24436   0.00000  Uiso   1.00
Cu238  Cu    0.55957   0.50561   0.25565   0.00000  Uiso   1.00
H239   H     0.64280   0.56230   0.10428   0.00000  Uiso   1.00
H240   H     0.43449   0.65336   0.23568   0.00000  Uiso   1.00
H241   H     0.33620   0.53831   0.29109   0.00000  Uiso   1.00
H242   H     0.63008   0.59685   0.43914   0.00000  Uiso   1.00
H243   H     0.66435   0.59137   0.01739   0.00000  Uiso   1.00
H244   H     0.47190   0.46133   0.08007   0.00000  Uiso   1.00
H245   H     0.35156   0.45885   0.39566   0.00000  Uiso   1.00
H246   H     0.64861   0.44636   0.48501   0.00000  Uiso   1.00
H247   H     0.55522   0.57156   0.38497   0.00000  Uiso   1.00
H248   H     0.56203   0.34627   0.26950   0.00000  Uiso   1.00
N249   N     0.64908   0.51407   0.26416   0.00000  Uiso   1.00
N250   N     0.35092   0.48593   0.23584   0.00000  Uiso   1.00
O251   O     0.46131   0.57141   0.24633   0.00000  Uiso   1.00
O252   O     0.56191   0.58089   0.25587   0.00000  Uiso   1.00
O253   O     0.42515   0.49293   0.31840   0.00000  Uiso   1.00
O254   O     0.52575   0.50241   0.32793   0.00000  Uiso   1.00
O255   O     0.43809   0.41911   0.24414   0.00000  Uiso   1.00
O256   O     0.53869   0.42859   0.25367   0.00000  Uiso   1.00
O257   O     0.47425   0.49759   0.17207   0.00000  Uiso   1.00
O258   O     0.57485   0.50707   0.18161   0.00000  Uiso   1.00
N259   N     0.65835   0.45451   0.19882   0.00000  Uiso   1.00
H260   H     0.33979   0.47127   0.16412   0.00000  Uiso   1.00
C261   C     0.66553   0.40069   0.19672   0.00000  Uiso   1.00
H262   H     0.63000   0.37503   0.17705   0.00000  Uiso   1.00
H263   H     0.65881   0.38660   0.23551   0.00000  Uiso   1.00
H264   H     0.37927   0.39746   0.17545   0.00000  Uiso   1.00
N265   N     0.37831   0.46802   0.05746   0.00000  Uiso   1.00
H266   H     0.39001   0.49640   0.08500   0.00000  Uiso   1.00
C267   C     0.34606   0.41484   0.07115   0.00000  Uiso   1.00
H268   H     0.63265   0.41567   0.09461   0.00000  Uiso   1.00
H269   H     0.37390   0.39818   0.09238   0.00000  Uiso   1.00
H270   H     0.33966   0.38791   0.03738   0.00000  Uiso   1.00
C271   C     0.84786   0.60000   0.25281   0.00000  Uiso   1.00
C272   C     0.80272   0.50230   0.48837   0.00000  Uiso   1.00
C273   C     0.82021   0.51757   0.43688   0.00000  Uiso   1.00
C274   C     0.85008   0.51472   0.01910   0.00000  Uiso   1.00
C275   C     0.90810   0.54940   0.00087   0.00000  Uiso   1.00
C276   C     0.92008   0.56929   0.45280   0.00000  Uiso   1.00
C277   C     0.87720   0.55348   0.42124   0.00000  Uiso   1.00
C278   C     0.84323   0.49328   0.06665   0.00000  Uiso   1.00
C279   C     0.94230   0.54716   0.08020   0.00000  Uiso   1.00
C280   C     0.77928   0.49792   0.40245   0.00000  Uiso   1.00
C281   C     0.85433   0.65590   0.25705   0.00000  Uiso   1.00
C282   C     0.80022   0.49934   0.34697   0.00000  Uiso   1.00
C283   C     0.81004   0.34386   0.24662   0.00000  Uiso   1.00
C284   C     0.81816   0.39994   0.24851   0.00000  Uiso   1.00
C285   C     0.86671   0.50317   0.15308   0.00000  Uiso   1.00
C286   C     0.95380   0.56455   0.03113   0.00000  Uiso   1.00
C287   C     0.88626   0.51240   0.09858   0.00000  Uiso   1.00
C288   C     0.71778   0.47257   0.42082   0.00000  Uiso   1.00
C289   C     0.69746   0.46390   0.47173   0.00000  Uiso   1.00
C290   C     0.73866   0.47661   0.00570   0.00000  Uiso   1.00
Cu291  Cu    0.77377   0.49439   0.24436   0.00000  Uiso   1.00
Cu292  Cu    0.89290   0.50561   0.25565   0.00000  Uiso   1.00
H293   H     0.97613   0.56230   0.10428   0.00000  Uiso   1.00
H294   H     0.76782   0.65336   0.23568   0.00000  Uiso   1.00
H295   H     0.66953   0.53831   0.29109   0.00000  Uiso   1.00
H296   H     0.96342   0.59685   0.43914   0.00000  Uiso   1.00
H297   H     0.99768   0.59137   0.01739   0.00000  Uiso   1.00
H298   H     0.80524   0.46133   0.08007   0.00000  Uiso   1.00
H299   H     0.68489   0.45885   0.39566   0.00000  Uiso   1.00
H300   H     0.98194   0.44636   0.48501   0.00000  Uiso   1.00
H301   H     0.88855   0.57156   0.38497   0.00000  Uiso   1.00
H302   H     0.89537   0.34627   0.26950   0.00000  Uiso   1.00
N303   N     0.98241   0.51407   0.26416   0.00000  Uiso   1.00
N304   N     0.68426   0.48593   0.23584   0.00000  Uiso   1.00
O305   O     0.79464   0.57141   0.24633   0.00000  Uiso   1.00
O306   O     0.89524   0.58089   0.25587   0.00000  Uiso   1.00
O307   O     0.75848   0.49293   0.31840   0.00000  Uiso   1.00
O308   O     0.85908   0.50241   0.32793   0.00000  Uiso   1.00
O309   O     0.77142   0.41911   0.24414   0.00000  Uiso   1.00
O310   O     0.87203   0.42859   0.25367   0.00000  Uiso   1.00
O311   O     0.80758   0.49759   0.17207   0.00000  Uiso   1.00
O312   O     0.90819   0.50707   0.18161   0.00000  Uiso   1.00
N313   N     0.99168   0.45451   0.19882   0.00000  Uiso   1.00
H314   H     0.67312   0.47127   0.16412   0.00000  Uiso   1.00
C315   C     0.99887   0.40069   0.19672   0.00000  Uiso   1.00
H316   H     0.96333   0.37503   0.17705   0.00000  Uiso   1.00
H317   H     0.99214   0.38660   0.23551   0.00000  Uiso   1.00
H318   H     0.71260   0.39746   0.17545   0.00000  Uiso   1.00
N319   N     0.71165   0.46802   0.05746   0.00000  Uiso   1.00
H320   H     0.72334   0.49640   0.08500   0.00000  Uiso   1.00
C321   C     0.67939   0.41484   0.07115   0.00000  Uiso   1.00
H322   H     0.96598   0.41567   0.09461   0.00000  Uiso   1.00
H323   H     0.70724   0.39818   0.09238   0.00000  Uiso   1.00
H324   H     0.67300   0.38791   0.03738   0.00000  Uiso   1.00
C325   C     0.18119   0.93334   0.25281   0.00000  Uiso   1.00
C326   C     0.13605   0.83563   0.48837   0.00000  Uiso   1.00
C327   C     0.15354   0.85090   0.43688   0.00000  Uiso   1.00
C328   C     0.18341   0.84806   0.01910   0.00000  Uiso   1.00
C329   C     0.24143   0.88274   0.00087   0.00000  Uiso   1.00
C330   C     0.25342   0.90263   0.45280   0.00000  Uiso   1.00
C331   C     0.21054   0.88681   0.42124   0.00000  Uiso   1.00
C332   C     0.17656   0.82662   0.06665   0.00000  Uiso   1.00
C333   C     0.27563   0.88050   0.08020   0.00000  Uiso   1.00
C334   C     0.11261   0.83125   0.40245   0.00000  Uiso   1.00
C335   C     0.18767   0.98923   0.25705   0.00000  Uiso   1.00
C336   C     0.13355   0.83267   0.34697   0.00000  Uiso   1.00
C337   C     0.14337   0.67719   0.24662   0.00000  Uiso   1.00
C338   C     0.15150   0.73327   0.24851   0.00000  Uiso   1.00
C339   C     0.20005   0.83651   0.15308   0.00000  Uiso   1.00
C340   C     0.28713   0.89788   0.03113   0.00000  Uiso   1.00
C341   C     0.21959   0.84573   0.09858   0.00000  Uiso   1.00
C342   C     0.05111   0.80591   0.42082   0.00000  Uiso   1.00
C343   C     0.03080   0.79723   0.47173   0.00000  Uiso   1.00
C344   C     0.07199   0.80994   0.00570   0.00000  Uiso   1.00
Cu345  Cu    0.10710   0.82772   0.24436   0.00000  Uiso   1.00
Cu346  Cu    0.22623   0.83895   0.25565   0.00000  Uiso   1.00
H347   H     0.30947   0.89564   0.10428   0.00000  Uiso   1.00
H348   H     0.10115   0.98669   0.23568   0.00000  Uiso   1.00
H349   H     0.00287   0.87164   0.29109   0.00000  Uiso   1.00
H350   H     0.29675   0.93018   0.43914   0.00000  Uiso   1.00
H351   H     0.33102   0.92470   0.01739   0.00000  Uiso   1.00
H352   H     0.13857   0.79466   0.08007   0.00000  Uiso   1.00
H353   H     0.01823   0.79218   0.39566   0.00000  Uiso   1.00
H354   H     0.31527   0.77970   0.48501   0.00000  Uiso   1.00
H355   H     0.22188   0.90490   0.38497   0.00000  Uiso   1.00
H356   H     0.22870   0.67961   0.26950   0.00000  Uiso   1.00
N357   N     0.31574   0.84741   0.26416   0.00000  Uiso   1.00
N358   N     0.01759   0.81926   0.23584   0.00000  Uiso   1.00
O359   O     0.12797   0.90474   0.24633   0.00000  Uiso   1.00
O360   O     0.22858   0.91422   0.25587   0.00000  Uiso   1.00
O361   O     0.09181   0.82627   0.31840   0.00000  Uiso   1.00
O362   O     0.19242   0.83575   0.32793   0.00000  Uiso   1.00
O363   O     0.10476   0.75245   0.24414   0.00000  Uiso   1.00
O364   O     0.20536   0.76193   0.25367   0.00000  Uiso   1.00
O365   O     0.14092   0.83092   0.17207   0.00000  Uiso   1.00
O366   O     0.24152   0.84040   0.18161   0.00000  Uiso   1.00
N367   N     0.32502   0.78784   0.19882   0.00000  Uiso   1.00
H368   H     0.00646   0.80461   0.16412   0.00000  Uiso   1.00
C369   C     0.33220   0.73402   0.19672   0.00000  Uiso   1.00
H370   H     0.29667   0.70837   0.17705   0.00000  Uiso   1.00
H371   H     0.32548   0.71993   0.23551   0.00000  Uiso   1.00
H372   H     0.04593   0.73079   0.17545   0.00000  Uiso   1.00
N373   N     0.04498   0.80136   0.05746   0.00000  Uiso   1.00
H374   H     0.05668   0.82974   0.08500   0.00000  Uiso   1.00
C375   C     0.01272   0.74818   0.07115   0.00000  Uiso   1.00
H376   H     0.29931   0.74901   0.09461   0.00000  Uiso   1.00
H377   H     0.04057   0.73151   0.09238   0.00000  Uiso   1.00
H378   H     0.00633   0.72124   0.03738   0.00000  Uiso   1.00
C379   C     0.51452   0.93334   0.25281   0.00000  Uiso   1.00
C380   C     0.46939   0.83563   0.48837   0.00000  Uiso   1.00
C381   C     0.48688   0.85090   0.43688   0.00000  Uiso   1.00
C382   C     0.51675   0.84806   0.01910   0.00000  Uiso   1.00
C383   C     0.57477   0.88274   0.00087   0.00000  Uiso   1.00
C384   C     0.58675   0.90263   0.45280   0.00000  Uiso   1.00
C385   C     0.54387   0.88681   0.42124   0.00000  Uiso   1.00
C386   C     0.50990   0.82662   0.06665   0.00000  Uiso   1.00
C387   C     0.60897   0.88050   0.08020   0.00000  Uiso   1.00
C388   C     0.44594   0.83125   0.40245   0.00000  Uiso   1.00
C389   C     0.52100   0.98923   0.25705   0.00000  Uiso   1.00
C390   C     0.46689   0.83267   0.34697   0.00000  Uiso   1.00
C391   C     0.47671   0.67719   0.24662   0.00000  Uiso   1.00
C392   C     0.48483   0.73327   0.24851   0.00000  Uiso   1.00
C393   C     0.53338   0.83651   0.15308   0.00000  Uiso   1.00
C394   C     0.62047   0.89788   0.03113   0.00000  Uiso   1.00
C395   C     0.55293   0.84573   0.09858   0.00000  Uiso   1.00
C396   C     0.38444   0.80591   0.42082   0.00000  Uiso   1.00
C397   C     0.36413   0.79723   0.47173   0.00000  Uiso   1.00
C398   C     0.40532   0.80994   0.00570   0.00000  Uiso   1.00
Cu399  Cu    0.44043   0.82772   0.24436   0.00000  Uiso   1.00
Cu400  Cu    0.55957   0.83895   0.25565   0.00000  Uiso   1.00
H401   H     0.64280   0.89564   0.10428   0.00000  Uiso   1.00
H402   H     0.43449   0.98669   0.23568   0.00000  Uiso   1.00
H403   H     0.33620   0.87164   0.29109   0.00000  Uiso   1.00
H404   H     0.63008   0.93018   0.43914   0.00000  Uiso   1.00
H405   H     0.66435   0.92470   0.01739   0.00000  Uiso   1.00
H406   H     0.47190   0.79466   0.08007   0.00000  Uiso   1.00
H407   H     0.35156   0.79218   0.39566   0.00000  Uiso   1.00
H408   H     0.64861   0.77970   0.48501   0.00000  Uiso   1.00
H409   H     0.55522   0.90490   0.38497   0.00000  Uiso   1.00
H410   H     0.56203   0.67961   0.26950   0.00000  Uiso   1.00
N411   N     0.64908   0.84741   0.26416   0.00000  Uiso   1.00
N412   N     0.35092   0.81926   0.23584   0.00000  Uiso   1.00
O413   O     0.46131   0.90474   0.24633   0.00000  Uiso   1.00
O414   O     0.56191   0.91422   0.25587   0.00000  Uiso   1.00
O415   O     0.42515   0.82627   0.31840   0.00000  Uiso   1.00
O416   O     0.52575   0.83575   0.32793   0.00000  Uiso   1.00
O417   O     0.43809   0.75245   0.24414   0.00000  Uiso   1.00
O418   O     0.53869   0.76193   0.25367   0.00000  Uiso   1.00
O419   O     0.47425   0.83092   0.17207   0.00000  Uiso   1.00
O420   O     0.57485   0.84040   0.18161   0.00000  Uiso   1.00
N421   N     0.65835   0.78784   0.19882   0.00000  Uiso   1.00
H422   H     0.33979   0.80461   0.16412   0.00000  Uiso   1.00
C423   C     0.66553   0.73402   0.19672   0.00000  Uiso   1.00
H424   H     0.63000   0.70837   0.17705   0.00000  Uiso   1.00
H425   H     0.65881   0.71993   0.23551   0.00000  Uiso   1.00
H426   H     0.37927   0.73079   0.17545   0.00000  Uiso   1.00
N427   N     0.37831   0.80136   0.05746   0.00000  Uiso   1.00
H428   H     0.39001   0.82974   0.08500   0.00000  Uiso   1.00
C429   C     0.34606   0.74818   0.07115   0.00000  Uiso   1.00
H430   H     0.63265   0.74901   0.09461   0.00000  Uiso   1.00
H431   H     0.37390   0.73151   0.09238   0.00000  Uiso   1.00
H432   H     0.33966   0.72124   0.03738   0.00000  Uiso   1.00
C433   C     0.84786   0.93334   0.25281   0.00000  Uiso   1.00
C434   C     0.80272   0.83563   0.48837   0.00000  Uiso   1.00
C435   C     0.82021   0.85090   0.43688   0.00000  Uiso   1.00
C436   C     0.85008   0.84806   0.01910   0.00000  Uiso   1.00
C437   C     0.90810   0.88274   0.00087   0.00000  Uiso   1.00
C438   C     0.92008   0.90263   0.45280   0.00000  Uiso   1.00
C439   C     0.87720   0.88681   0.42124   0.00000  Uiso   1.00
C440   C     0.84323   0.82662   0.06665   0.00000  Uiso   1.00
C441   C     0.94230   0.88050   0.08020   0.00000  Uiso   1.00
C442   C     0.77928   0.83125   0.40245   0.00000  Uiso   1.00
C443   C     0.85433   0.98923   0.25705   0.00000  Uiso   1.00
C444   C     0.80022   0.83267   0.34697   0.00000  Uiso   1.00
C445   C     0.81004   0.67719   0.24662   0.00000  Uiso   1.00
C446   C     0.81816   0.73327   0.24851   0.00000  Uiso   1.00
C447   C     0.86671   0.83651   0.15308   0.00000  Uiso   1.00
C448   C     0.95380   0.89788   0.03113   0.00000  Uiso   1.00
C449   C     0.88626   0.84573   0.09858   0.00000  Uiso   1.00
C450   C     0.71778   0.80591   0.42082   0.00000  Uiso   1.00
C451   C     0.69746   0.79723   0.47173   0.00000  Uiso   1.00
C452   C     0.73866   0.80994   0.00570   0.00000  Uiso   1.00
Cu453  Cu    0.77377   0.82772   0.24436   0.00000  Uiso   1.00
Cu454  Cu    0.89290   0.83895   0.25565   0.00000  Uiso   1.00
H455   H     0.97613   0.89564   0.10428   0.00000  Uiso   1.00
H456   H     0.76782   0.98669   0.23568   0.00000  Uiso   1.00
H457   H     0.66953   0.87164   0.29109   0.00000  Uiso   1.00
H458   H     0.96342   0.93018   0.43914   0.00000  Uiso   1.00
H459   H     0.99768   0.92470   0.01739   0.00000  Uiso   1.00
H460   H     0.80524   0.79466   0.08007   0.00000  Uiso   1.00
H461   H     0.68489   0.79218   0.39566   0.00000  Uiso   1.00
H462   H     0.98194   0.77970   0.48501   0.00000  Uiso   1.00
H463   H     0.88855   0.90490   0.38497   0.00000  Uiso   1.00
H464   H     0.89537   0.67961   0.26950   0.00000  Uiso   1.00
N465   N     0.98241   0.84741   0.26416   0.00000  Uiso   1.00
N466   N     0.68426   0.81926   0.23584   0.00000  Uiso   1.00
O467   O     0.79464   0.90474   0.24633   0.00000  Uiso   1.00
O468   O     0.89524   0.91422   0.25587   0.00000  Uiso   1.00
O469   O     0.75848   0.82627   0.31840   0.00000  Uiso   1.00
O470   O     0.85908   0.83575   0.32793   0.00000  Uiso   1.00
O471   O     0.77142   0.75245   0.24414   0.00000  Uiso   1.00
O472   O     0.87203   0.76193   0.25367   0.00000  Uiso   1.00
O473   O     0.80758   0.83092   0.17207   0.00000  Uiso   1.00
O474   O     0.90819   0.84040   0.18161   0.00000  Uiso   1.00
N475   N     0.99168   0.78784   0.19882   0.00000  Uiso   1.00
H476   H     0.67312   0.80461   0.16412   0.00000  Uiso   1.00
C477   C     0.99887   0.73402   0.19672   0.00000  Uiso   1.00
H478   H     0.96333   0.70837   0.17705   0.00000  Uiso   1.00
H479   H     0.99214   0.71993   0.23551   0.00000  Uiso   1.00
H480   H     0.71260   0.73079   0.17545   0.00000  Uiso   1.00
N481   N     0.71165   0.80136   0.05746   0.00000  Uiso   1.00
H482   H     0.72334   0.82974   0.08500   0.00000  Uiso   1.00
C483   C     0.67939   0.74818   0.07115   0.00000  Uiso   1.00
H484   H     0.96598   0.74901   0.09461   0.00000  Uiso   1.00
H485   H     0.70724   0.73151   0.09238   0.00000  Uiso   1.00
H486   H     0.67300   0.72124   0.03738   0.00000  Uiso   1.00
C487   C     0.18119   0.26667   0.75281   0.00000  Uiso   1.00
C488   C     0.13605   0.16897   0.98837   0.00000  Uiso   1.00
C489   C     0.15354   0.18424   0.93688   0.00000  Uiso   1.00
C490   C     0.18341   0.18139   0.51910   0.00000  Uiso   1.00
C491   C     0.24143   0.21607   0.50087   0.00000  Uiso   1.00
C492   C     0.25342   0.23596   0.95280   0.00000  Uiso   1.00
C493   C     0.21054   0.22015   0.92124   0.00000  Uiso   1.00
C494   C     0.17656   0.15995   0.56665   0.00000  Uiso   1.00
C495   C     0.27563   0.21383   0.58020   0.00000  Uiso   1.00
C496   C     0.11261   0.16458   0.90245   0.00000  Uiso   1.00
C497   C     0.18767   0.32256   0.75705   0.00000  Uiso   1.00
C498   C     0.13355   0.16601   0.84697   0.00000  Uiso   1.00
C499   C     0.14337   0.01052   0.74662   0.00000  Uiso   1.00
C500   C     0.15150   0.06660   0.74851   0.00000  Uiso   1.00
C501   C     0.20005   0.16984   0.65308   0.00000  Uiso   1.00
C502   C     0.28713   0.23122   0.53113   0.00000  Uiso   1.00
C503   C     0.21959   0.17906   0.59858   0.00000  Uiso   1.00
C504   C     0.05111   0.13924   0.92082   0.00000  Uiso   1.00
C505   C     0.03080   0.13057   0.97173   0.00000  Uiso   1.00
C506   C     0.07199   0.14328   0.50570   0.00000  Uiso   1.00
Cu507  Cu    0.10710   0.16105   0.74436   0.00000  Uiso   1.00
Cu508  Cu    0.22623   0.17228   0.75565   0.00000  Uiso   1.00
H509   H     0.30947   0.22897   0.60428   0.00000  Uiso   1.00
H510   H     0.10115   0.32003   0.73568   0.00000  Uiso   1.00
H511   H     0.00287   0.20498   0.79109   0.00000  Uiso   1.00
H512   H     0.29675   0.26351   0.93914   0.00000  Uiso   1.00
H513   H     0.33102   0.25804   0.51739   0.00000  Uiso   1.00
H514   H     0.13857   0.12799   0.58007   0.00000  Uiso   1.00
H515   H     0.01823   0.12552   0.89566   0.00000  Uiso   1.00
H516   H     0.31527   0.11303   0.98501   0.00000  Uiso   1.00
H517   H     0.22188   0.23823   0.88497   0.00000  Uiso   1.00
H518   H     0.22870   0.01294   0.76950   0.00000  Uiso   1.00
N519   N     0.31574   0.18074   0.76416   0.00000  Uiso   1.00
N520   N     0.01759   0.15259   0.73584   0.00000  Uiso   1.00
O521   O     0.12797   0.23807   0.74633   0.00000  Uiso   1.00
O522   O     0.22858   0.24755   0.75587   0.00000  Uiso   1.00
O523   O     0.09181   0.15960   0.81840   0.00000  Uiso   1.00
O524   O     0.19242   0.16908   0.82793   0.00000  Uiso   1.00
O525   O     0.10476   0.08578   0.74414   0.00000  Uiso   1.00
O526   O     0.20536   0.09526   0.75367   0.00000  Uiso   1.00
O527   O     0.14092   0.16425   0.67207   0.00000  Uiso   1.00
O528   O     0.24152   0.17373   0.68161   0.00000  Uiso   1.00
N529   N     0.32502   0.12117   0.69882   0.00000  Uiso   1.00
H530   H     0.00646   0.13794   0.66412   0.00000  Uiso   1.00
C531   C     0.33220   0.06736   0.69672   0.00000  Uiso   1.00
H532   H     0.29667   0.04170   0.67705   0.00000  Uiso   1.00
H533   H     0.32548   0.05327   0.73551   0.00000  Uiso   1.00
H534   H     0.04593   0.06412   0.67545   0.00000  Uiso   1.00
N535   N     0.04498   0.13469   0.55746   0.00000  Uiso   1.00
H536   H     0.05668   0.16307   0.58500   0.00000  Uiso   1.00
C537   C     0.01272   0.08151   0.57115   0.00000  Uiso   1.00
H538   H     0.29931   0.08234   0.59461   0.00000  Uiso   1.00
H539   H     0.04057   0.06484   0.59238   0.00000  Uiso   1.00
H540   H     0.00633   0.05458   0.53738   0.00000  Uiso   1.00
C541   C     0.51452   0.26667   0.75281   0.00000  Uiso   1.00
C542   C     0.46939   0.16897   0.98837   0.00000  Uiso   1.00
C543   C     0.48688   0.18424   0.93688   0.00000  Uiso   1.00
C544   C     0.51675   0.18139   0.51910   0.00000  Uiso   1.00
C545   C     0.57477   0.21607   0.50087   0.00000  Uiso   1.00
C546   C     0.58675   0.23596   0.95280   0.00000  Uiso   1.00
C547   C     0.54387   0.22015   0.92124   0.00000  Uiso   1.00
C548   C     0.50990   0.15995   0.56665   0.00000  Uiso   1.00
C549   C     0.60897   0.21383   0.58020   0.00000  Uiso   1.00
C550   C     0.44594   0.16458   0.90245   0.00000  Uiso   1.00
C551   C     0.52100   0.32256   0.75705   0.00000  Uiso   1.00
C552   C     0.46689   0.16601   0.84697   0.00000  Uiso   1.00
C553   C     0.47671   0.01052   0.74662   0.00000  Uiso   1.00
C554   C     0.48483   0.06660   0.74851   0.00000  Uiso   1.00
C555   C     0.53338   0.16984   0.65308   0.00000  Uiso   1.00
C556   C     0.62047   0.23122   0.53113   0.00000  Uiso   1.00
C557   C     0.55293   0.17906   0.59858   0.00000  Uiso   1.00
C558   C     0.38444   0.13924   0.92082   0.00000  Uiso   1.00
C559   C     0.36413   0.13057   0.97173   0.00000  Uiso   1.00
C560   C     0.40532   0.14328   0.50570   0.00000  Uiso   1.00
Cu561  Cu    0.44043   0.16105   0.74436   0.00000  Uiso   1.00
Cu562  Cu    0.55957   0.17228   0.75565   0.00000  Uiso   1.00
H563   H     0.64280   0.22897   0.60428   0.00000  Uiso   1.00
H564   H     0.43449   0.32003   0.73568   0.00000  Uiso   1.00
H565   H     0.33620   0.20498   0.79109   0.00000  Uiso   1.00
H566   H     0.63008   0.26351   0.93914   0.00000  Uiso   1.00
H567   H     0.66435   0.25804   0.51739   0.00000  Uiso   1.00
H568   H     0.47190   0.12799   0.58007   0.00000  Uiso   1.00
H569   H     0.35156   0.12552   0.89566   0.00000  Uiso   1.00
H570   H     0.64861   0.11303   0.98501   0.00000  Uiso   1.00
H571   H     0.55522   0.23823   0.88497   0.00000  Uiso   1.00
H572   H     0.56203   0.01294   0.76950   0.00000  Uiso   1.00
N573   N     0.64908   0.18074   0.76416   0.00000  Uiso   1.00
N574   N     0.35092   0.15259   0.73584   0.00000  Uiso   1.00
O575   O     0.46131   0.23807   0.74633   0.00000  Uiso   1.00
O576   O     0.56191   0.24755   0.75587   0.00000  Uiso   1.00
O577   O     0.42515   0.15960   0.81840   0.00000  Uiso   1.00
O578   O     0.52575   0.16908   0.82793   0.00000  Uiso   1.00
O579   O     0.43809   0.08578   0.74414   0.00000  Uiso   1.00
O580   O     0.53869   0.09526   0.75367   0.00000  Uiso   1.00
O581   O     0.47425   0.16425   0.67207   0.00000  Uiso   1.00
O582   O     0.57485   0.17373   0.68161   0.00000  Uiso   1.00
N583   N     0.65835   0.12117   0.69882   0.00000  Uiso   1.00
H584   H     0.33979   0.13794   0.66412   0.00000  Uiso   1.00
C585   C     0.66553   0.06736   0.69672   0.00000  Uiso   1.00
H586   H     0.63000   0.04170   0.67705   0.00000  Uiso   1.00
H587   H     0.65881   0.05327   0.73551   0.00000  Uiso   1.00
H588   H     0.37927   0.06412   0.67545   0.00000  Uiso   1.00
N589   N     0.37831   0.13469   0.55746   0.00000  Uiso   1.00
H590   H     0.39001   0.16307   0.58500   0.00000  Uiso   1.00
C591   C     0.34606   0.08151   0.57115   0.00000  Uiso   1.00
H592   H     0.63265   0.08234   0.59461   0.00000  Uiso   1.00
H593   H     0.37390   0.06484   0.59238   0.00000  Uiso   1.00
H594   H     0.33966   0.05458   0.53738   0.00000  Uiso   1.00
C595   C     0.84786   0.26667   0.75281   0.00000  Uiso   1.00
C596   C     0.80272   0.16897   0.98837   0.00000  Uiso   1.00
C597   C     0.82021   0.18424   0.93688   0.00000  Uiso   1.00
C598   C     0.85008   0.18139   0.51910   0.00000  Uiso   1.00
C599   C     0.90810   0.21607   0.50087   0.00000  Uiso   1.00
C600   C     0.92008   0.23596   0.95280   0.00000  Uiso   1.00
C601   C     0.87720   0.22015   0.92124   0.00000  Uiso   1.00
C602   C     0.84323   0.15995   0.56665   0.00000  Uiso   1.00
C603   C     0.94230   0.21383   0.58020   0.00000  Uiso   1.00
C604   C     0.77928   0.16458   0.90245   0.00000  Uiso   1.00
C605   C     0.85433   0.32256   0.75705   0.00000  Uiso   1.00
C606   C     0.80022   0.16601   0.84697   0.00000  Uiso   1.00
C607   C     0.81004   0.01052   0.74662   0.00000  Uiso   1.00
C608   C     0.81816   0.06660   0.74851   0.00000  Uiso   1.00
C609   C     0.86671   0.16984   0.65308   0.00000  Uiso   1.00
C610   C     0.95380   0.23122   0.53113   0.00000  Uiso   1.00
C611   C     0.88626   0.17906   0.59858   0.00000  Uiso   1.00
C612   C     0.71778   0.13924   0.92082   0.00000  Uiso   1.00
C613   C     0.69746   0.13057   0.97173   0.00000  Uiso   1.00
C614   C     0.73866   0.14328   0.50570   0.00000  Uiso   1.00
Cu615  Cu    0.77377   0.16105   0.74436   0.00000  Uiso   1.00
Cu616  Cu    0.89290   0.17228   0.75565   0.00000  Uiso   1.00
H617   H     0.97613   0.22897   0.60428   0.00000  Uiso   1.00
H618   H     0.76782   0.32003   0.73568   0.00000  Uiso   1.00
H619   H     0.66953   0.20498   0.79109   0.00000  Uiso   1.00
H620   H     0.96342   0.26351   0.93914   0.00000  Uiso   1.00
H621   H     0.99768   0.25804   0.51739   0.00000  Uiso   1.00
H622   H     0.80524   0.12799   0.58007   0.00000  Uiso   1.00
H623   H     0.68489   0.12552   0.89566   0.00000  Uiso   1.00
H624   H     0.98194   0.11303   0.98501   0.00000  Uiso   1.00
H625   H     0.88855   0.23823   0.88497   0.00000  Uiso   1.00
H626   H     0.89537   0.01294   0.76950   0.00000  Uiso   1.00
N627   N     0.98241   0.18074   0.76416   0.00000  Uiso   1.00
N628   N     0.68426   0.15259   0.73584   0.00000  Uiso   1.00
O629   O     0.79464   0.23807   0.74633   0.00000  Uiso   1.00
O630   O     0.89524   0.24755   0.75587   0.00000  Uiso   1.00
O631   O     0.75848   0.15960   0.81840   0.00000  Uiso   1.00
O632   O     0.85908   0.16908   0.82793   0.00000  Uiso   1.00
O633   O     0.77142   0.08578   0.74414   0.00000  Uiso   1.00
O634   O     0.87203   0.09526   0.75367   0.00000  Uiso   1.00
O635   O     0.80758   0.16425   0.67207   0.00000  Uiso   1.00
O636   O     0.90819   0.17373   0.68161   0.00000  Uiso   1.00
N637   N     0.99168   0.12117   0.69882   0.00000  Uiso   1.00
H638   H     0.67312   0.13794   0.66412   0.00000  Uiso   1.00
C639   C     0.99887   0.06736   0.69672   0.00000  Uiso   1.00
H640   H     0.96333   0.04170   0.67705   0.00000  Uiso   1.00
H641   H     0.99214   0.05327   0.73551   0.00000  Uiso   1.00
H642   H     0.71260   0.06412   0.67545   0.00000  Uiso   1.00
N643   N     0.71165   0.13469   0.55746   0.00000  Uiso   1.00
H644   H     0.72334   0.16307   0.58500   0.00000  Uiso   1.00
C645   C     0.67939   0.08151   0.57115   0.00000  Uiso   1.00
H646   H     0.96598   0.08234   0.59461   0.00000  Uiso   1.00
H647   H     0.70724   0.06484   0.59238   0.00000  Uiso   1.00
H648   H     0.67300   0.05458   0.53738   0.00000  Uiso   1.00
C649   C     0.18119   0.60000   0.75281   0.00000  Uiso   1.00
C650   C     0.13605   0.50230   0.98837   0.00000  Uiso   1.00
C651   C     0.15354   0.51757   0.93688   0.00000  Uiso   1.00
C652   C     0.18341   0.51472   0.51910   0.00000  Uiso   1.00
C653   C     0.24143   0.54940   0.50087   0.00000  Uiso   1.00
C654   C     0.25342   0.56929   0.95280   0.00000  Uiso   1.00
C655   C     0.21054   0.55348   0.92124   0.00000  Uiso   1.00
C656   C     0.17656   0.49328   0.56665   0.00000  Uiso   1.00
C657   C     0.27563   0.54716   0.58020   0.00000  Uiso   1.00
C658   C     0.11261   0.49792   0.90245   0.00000  Uiso   1.00
C659   C     0.18767   0.65590   0.75705   0.00000  Uiso   1.00
C660   C     0.13355   0.49934   0.84697   0.00000  Uiso   1.00
C661   C     0.14337   0.34386   0.74662   0.00000  Uiso   1.00
C662   C     0.15150   0.39994   0.74851   0.00000  Uiso   1.00
C663   C     0.20005   0.50317   0.65308   0.00000  Uiso   1.00
C664   C     0.28713   0.56455   0.53113   0.00000  Uiso   1.00
C665   C     0.21959   0.51240   0.59858   0.00000  Uiso   1.00
C666   C     0.05111   0.47257   0.92082   0.00000  Uiso   1.00
C667   C     0.03080   0.46390   0.97173   0.00000  Uiso   1.00
C668   C     0.07199   0.47661   0.50570   0.00000  Uiso   1.00
Cu669  Cu    0.10710   0.49439   0.74436   0.00000  Uiso   1.00
Cu670  Cu    0.22623   0.50561   0.75565   0.00000  Uiso   1.00
H671   H     0.30947   0.56230   0.60428   0.00000  Uiso   1.00
H672   H     0.10115   0.65336   0.73568   0.00000  Uiso   1.00
H673   H     0.00287   0.53831   0.79109   0.00000  Uiso   1.00
H674   H     0.29675   0.59685   0.93914   0.00000  Uiso   1.00
H675   H     0.33102   0.59137   0.51739   0.00000  Uiso   1.00
H676   H     0.13857   0.46133   0.58007   0.00000  Uiso   1.00
H677   H     0.01823   0.45885   0.89566   0.00000  Uiso   1.00
H678   H     0.31527   0.44636   0.98501   0.00000  Uiso   1.00
H679   H     0.22188   0.57156   0.88497   0.00000  Uiso   1.00
H680   H     0.22870   0.34627   0.76950   0.00000  Uiso   1.00
N681   N     0.31574   0.51407   0.76416   0.00000  Uiso   1.00
N682   N     0.01759   0.48593   0.73584   0.00000  Uiso   1.00
O683   O     0.12797   0.57141   0.74633   0.00000  Uiso   1.00
O684   O     0.22858   0.58089   0.75587   0.00000  Uiso   1.00
O685   O     0.09181   0.49293   0.81840   0.00000  Uiso   1.00
O686   O     0.19242   0.50241   0.82793   0.00000  Uiso   1.00
O687   O     0.10476   0.41911   0.74414   0.00000  Uiso   1.00
O688   O     0.20536   0.42859   0.75367   0.00000  Uiso   1.00
O689   O     0.14092   0.49759   0.67207   0.00000  Uiso   1.00
O690   O     0.24152   0.50707   0.68161   0.00000  Uiso   1.00
N691   N     0.32502   0.45451   0.69882   0.00000  Uiso   1.00
H692   H     0.00646   0.47127   0.66412   0.00000  Uiso   1.00
C693   C     0.33220   0.40069   0.69672   0.00000  Uiso   1.00
H694   H     0.29667   0.37503   0.67705   0.00000  Uiso   1.00
H695   H     0.32548   0.38660   0.73551   0.00000  Uiso   1.00
H696   H     0.04593   0.39746   0.67545   0.00000  Uiso   1.00
N697   N     0.04498   0.46802   0.55746   0.00000  Uiso   1.00
H698   H     0.05668   0.49640   0.58500   0.00000  Uiso   1.00
C699   C     0.01272   0.41484   0.57115   0.00000  Uiso   1.00
H700   H     0.29931   0.41567   0.59461   0.00000  Uiso   1.00
H701   H     0.04057   0.39818   0.59238   0.00000  Uiso   1.00
H702   H     0.00633   0.38791   0.53738   0.00000  Uiso   1.00
C703   C     0.51452   0.60000   0.75281   0.00000  Uiso   1.00
C704   C     0.46939   0.50230   0.98837   0.00000  Uiso   1.00
C705   C     0.48688   0.51757   0.93688   0.00000  Uiso   1.00
C706   C     0.51675   0.51472   0.51910   0.00000  Uiso   1.00
C707   C     0.57477   0.54940   0.50087   0.00000  Uiso   1.00
C708   C     0.58675   0.56929   0.95280   0.00000  Uiso   1.00
C709   C     0.54387   0.55348   0.92124   0.00000  Uiso   1.00
C710   C     0.50990   0.49328   0.56665   0.00000  Uiso   1.00
C711   C     0.60897   0.54716   0.58020   0.00000  Uiso   1.00
C712   C     0.44594   0.49792   0.90245   0.00000  Uiso   1.00
C713   C     0.52100   0.65590   0.75705   0.00000  Uiso   1.00
C714   C     0.46689   0.49934   0.84697   0.00000  Uiso   1.00
C715   C     0.47671   0.34386   0.74662   0.00000  Uiso   1.00
C716   C     0.48483   0.39994   0.74851   0.00000  Uiso   1.00
C717   C     0.53338   0.50317   0.65308   0.00000  Uiso   1.00
C718   C     0.62047   0.56455   0.53113   0.00000  Uiso   1.00
C719   C     0.55293   0.51240   0.59858   0.00000  Uiso   1.00
C720   C     0.38444   0.47257   0.92082   0.00000  Uiso   1.00
C721   C     0.36413   0.46390   0.97173   0.00000  Uiso   1.00
C722   C     0.40532   0.47661   0.50570   0.00000  Uiso   1.00
Cu723  Cu    0.44043   0.49439   0.74436   0.00000  Uiso   1.00
Cu724  Cu    0.55957   0.50561   0.75565   0.00000  Uiso   1.00
H725   H     0.64280   0.56230   0.60428   0.00000  Uiso   1.00
H726   H     0.43449   0.65336   0.73568   0.00000  Uiso   1.00
H727   H     0.33620   0.53831   0.79109   0.00000  Uiso   1.00
H728   H     0.63008   0.59685   0.93914   0.00000  Uiso   1.00
H729   H     0.66435   0.59137   0.51739   0.00000  Uiso   1.00
H730   H     0.47190   0.46133   0.58007   0.00000  Uiso   1.00
H731   H     0.35156   0.45885   0.89566   0.00000  Uiso   1.00
H732   H     0.64861   0.44636   0.98501   0.00000  Uiso   1.00
H733   H     0.55522   0.57156   0.88497   0.00000  Uiso   1.00
H734   H     0.56203   0.34627   0.76950   0.00000  Uiso   1.00
N735   N     0.64908   0.51407   0.76416   0.00000  Uiso   1.00
N736   N     0.35092   0.48593   0.73584   0.00000  Uiso   1.00
O737   O     0.46131   0.57141   0.74633   0.00000  Uiso   1.00
O738   O     0.56191   0.58089   0.75587   0.00000  Uiso   1.00
O739   O     0.42515   0.49293   0.81840   0.00000  Uiso   1.00
O740   O     0.52575   0.50241   0.82793   0.00000  Uiso   1.00
O741   O     0.43809   0.41911   0.74414   0.00000  Uiso   1.00
O742   O     0.53869   0.42859   0.75367   0.00000  Uiso   1.00
O743   O     0.47425   0.49759   0.67207   0.00000  Uiso   1.00
O744   O     0.57485   0.50707   0.68161   0.00000  Uiso   1.00
N745   N     0.65835   0.45451   0.69882   0.00000  Uiso   1.00
H746   H     0.33979   0.47127   0.66412   0.00000  Uiso   1.00
C747   C     0.66553   0.40069   0.69672   0.00000  Uiso   1.00
H748   H     0.63000   0.37503   0.67705   0.00000  Uiso   1.00
H749   H     0.65881   0.38660   0.73551   0.00000  Uiso   1.00
H750   H     0.37927   0.39746   0.67545   0.00000  Uiso   1.00
N751   N     0.37831   0.46802   0.55746   0.00000  Uiso   1.00
H752   H     0.39001   0.49640   0.58500   0.00000  Uiso   1.00
C753   C     0.34606   0.41484   0.57115   0.00000  Uiso   1.00
H754   H     0.63265   0.41567   0.59461   0.00000  Uiso   1.00
H755   H     0.37390   0.39818   0.59238   0.00000  Uiso   1.00
H756   H     0.33966   0.38791   0.53738   0.00000  Uiso   1.00
C757   C     0.84786   0.60000   0.75281   0.00000  Uiso   1.00
C758   C     0.80272   0.50230   0.98837   0.00000  Uiso   1.00
C759   C     0.82021   0.51757   0.93688   0.00000  Uiso   1.00
C760   C     0.85008   0.51472   0.51910   0.00000  Uiso   1.00
C761   C     0.90810   0.54940   0.50087   0.00000  Uiso   1.00
C762   C     0.92008   0.56929   0.95280   0.00000  Uiso   1.00
C763   C     0.87720   0.55348   0.92124   0.00000  Uiso   1.00
C764   C     0.84323   0.49328   0.56665   0.00000  Uiso   1.00
C765   C     0.94230   0.54716   0.58020   0.00000  Uiso   1.00
C766   C     0.77928   0.49792   0.90245   0.00000  Uiso   1.00
C767   C     0.85433   0.65590   0.75705   0.00000  Uiso   1.00
C768   C     0.80022   0.49934   0.84697   0.00000  Uiso   1.00
C769   C     0.81004   0.34386   0.74662   0.00000  Uiso   1.00
C770   C     0.81816   0.39994   0.74851   0.00000  Uiso   1.00
C771   C     0.86671   0.50317   0.65308   0.00000  Uiso   1.00
C772   C     0.95380   0.56455   0.53113   0.00000  Uiso   1.00
C773   C     0.88626   0.51240   0.59858   0.00000  Uiso   1.00
C774   C     0.71778   0.47257   0.92082   0.00000  Uiso   1.00
C775   C     0.69746   0.46390   0.97173   0.00000  Uiso   1.00
C776   C     0.73866   0.47661   0.50570   0.00000  Uiso   1.00
Cu777  Cu    0.77377   0.49439   0.74436   0.00000  Uiso   1.00
Cu778  Cu    0.89290   0.50561   0.75565   0.00000  Uiso   1.00
H779   H     0.97613   0.56230   0.60428   0.00000  Uiso   1.00
H780   H     0.76782   0.65336   0.73568   0.00000  Uiso   1.00
H781   H     0.66953   0.53831   0.79109   0.00000  Uiso   1.00
H782   H     0.96342   0.59685   0.93914   0.00000  Uiso   1.00
H783   H     0.99768   0.59137   0.51739   0.00000  Uiso   1.00
H784   H     0.80524   0.46133   0.58007   0.00000  Uiso   1.00
H785   H     0.68489   0.45885   0.89566   0.00000  Uiso   1.00
H786   H     0.98194   0.44636   0.98501   0.00000  Uiso   1.00
H787   H     0.88855   0.57156   0.88497   0.00000  Uiso   1.00
H788   H     0.89537   0.34627   0.76950   0.00000  Uiso   1.00
N789   N     0.98241   0.51407   0.76416   0.00000  Uiso   1.00
N790   N     0.68426   0.48593   0.73584   0.00000  Uiso   1.00
O791   O     0.79464   0.57141   0.74633   0.00000  Uiso   1.00
O792   O     0.89524   0.58089   0.75587   0.00000  Uiso   1.00
O793   O     0.75848   0.49293   0.81840   0.00000  Uiso   1.00
O794   O     0.85908   0.50241   0.82793   0.00000  Uiso   1.00
O795   O     0.77142   0.41911   0.74414   0.00000  Uiso   1.00
O796   O     0.87203   0.42859   0.75367   0.00000  Uiso   1.00
O797   O     0.80758   0.49759   0.67207   0.00000  Uiso   1.00
O798   O     0.90819   0.50707   0.68161   0.00000  Uiso   1.00
N799   N     0.99168   0.45451   0.69882   0.00000  Uiso   1.00
H800   H     0.67312   0.47127   0.66412   0.00000  Uiso   1.00
C801   C     0.99887   0.40069   0.69672   0.00000  Uiso   1.00
H802   H     0.96333   0.37503   0.67705   0.00000  Uiso   1.00
H803   H     0.99214   0.38660   0.73551   0.00000  Uiso   1.00
H804   H     0.71260   0.39746   0.67545   0.00000  Uiso   1.00
N805   N     0.71165   0.46802   0.55746   0.00000  Uiso   1.00
H806   H     0.72334   0.49640   0.58500   0.00000  Uiso   1.00
C807   C     0.67939   0.41484   0.57115   0.00000  Uiso   1.00
H808   H     0.96598   0.41567   0.59461   0.00000  Uiso   1.00
H809   H     0.70724   0.39818   0.59238   0.00000  Uiso   1.00
H810   H     0.67300   0.38791   0.53738   0.00000  Uiso   1.00
C811   C     0.18119   0.93334   0.75281   0.00000  Uiso   1.00
C812   C     0.13605   0.83563   0.98837   0.00000  Uiso   1.00
C813   C     0.15354   0.85090   0.93688   0.00000  Uiso   1.00
C814   C     0.18341   0.84806   0.51910   0.00000  Uiso   1.00
C815   C     0.24143   0.88274   0.50087   0.00000  Uiso   1.00
C816   C     0.25342   0.90263   0.95280   0.00000  Uiso   1.00
C817   C     0.21054   0.88681   0.92124   0.00000  Uiso   1.00
C818   C     0.17656   0.82662   0.56665   0.00000  Uiso   1.00
C819   C     0.27563   0.88050   0.58020   0.00000  Uiso   1.00
C820   C     0.11261   0.83125   0.90245   0.00000  Uiso   1.00
C821   C     0.18767   0.98923   0.75705   0.00000  Uiso   1.00
C822   C     0.13355   0.83267   0.84697   0.00000  Uiso   1.00
C823   C     0.14337   0.67719   0.74662   0.00000  Uiso   1.00
C824   C     0.15150   0.73327   0.74851   0.00000  Uiso   1.00
C825   C     0.20005   0.83651   0.65308   0.00000  Uiso   1.00
C826   C     0.28713   0.89788   0.53113   0.00000  Uiso   1.00
C827   C     0.21959   0.84573   0.59858   0.00000  Uiso   1.00
C828   C     0.05111   0.80591   0.92082   0.00000  Uiso   1.00
C829   C     0.03080   0.79723   0.97173   0.00000  Uiso   1.00
C830   C     0.07199   0.80994   0.50570   0.00000  Uiso   1.00
Cu831  Cu    0.10710   0.82772   0.74436   0.00000  Uiso   1.00
Cu832  Cu    0.22623   0.83895   0.75565   0.00000  Uiso   1.00
H833   H     0.30947   0.89564   0.60428   0.00000  Uiso   1.00
H834   H     0.10115   0.98669   0.73568   0.00000  Uiso   1.00
H835   H     0.00287   0.87164   0.79109   0.00000  Uiso   1.00
H836   H     0.29675   0.93018   0.93914   0.00000  Uiso   1.00
H837   H     0.33102   0.92470   0.51739   0.00000  Uiso   1.00
H838   H     0.13857   0.79466   0.58007   0.00000  Uiso   1.00
H839   H     0.01823   0.79218   0.89566   0.00000  Uiso   1.00
H840   H     0.31527   0.77970   0.98501   0.00000  Uiso   1.00
H841   H     0.22188   0.90490   0.88497   0.00000  Uiso   1.00
H842   H     0.22870   0.67961   0.76950   0.00000  Uiso   1.00
N843   N     0.31574   0.84741   0.76416   0.00000  Uiso   1.00
N844   N     0.01759   0.81926   0.73584   0.00000  Uiso   1.00
O845   O     0.12797   0.90474   0.74633   0.00000  Uiso   1.00
O846   O     0.22858   0.91422   0.75587   0.00000  Uiso   1.00
O847   O     0.09181   0.82627   0.81840   0.00000  Uiso   1.00
O848   O     0.19242   0.83575   0.82793   0.00000  Uiso   1.00
O849   O     0.10476   0.75245   0.74414   0.00000  Uiso   1.00
O850   O     0.20536   0.76193   0.75367   0.00000  Uiso   1.00
O851   O     0.14092   0.83092   0.67207   0.00000  Uiso   1.00
O852   O     0.24152   0.84040   0.68161   0.00000  Uiso   1.00
N853   N     0.32502   0.78784   0.69882   0.00000  Uiso   1.00
H854   H     0.00646   0.80461   0.66412   0.00000  Uiso   1.00
C855   C     0.33220   0.73402   0.69672   0.00000  Uiso   1.00
H856   H     0.29667   0.70837   0.67705   0.00000  Uiso   1.00
H857   H     0.32548   0.71993   0.73551   0.00000  Uiso   1.00
H858   H     0.04593   0.73079   0.67545   0.00000  Uiso   1.00
N859   N     0.04498   0.80136   0.55746   0.00000  Uiso   1.00
H860   H     0.05668   0.82974   0.58500   0.00000  Uiso   1.00
C861   C     0.01272   0.74818   0.57115   0.00000  Uiso   1.00
H862   H     0.29931   0.74901   0.59461   0.00000  Uiso   1.00
H863   H     0.04057   0.73151   0.59238   0.00000  Uiso   1.00
H864   H     0.00633   0.72124   0.53738   0.00000  Uiso   1.00
C865   C     0.51452   0.93334   0.75281   0.00000  Uiso   1.00
C866   C     0.46939   0.83563   0.98837   0.00000  Uiso   1.00
C867   C     0.48688   0.85090   0.93688   0.00000  Uiso   1.00
C868   C     0.51675   0.84806   0.51910   0.00000  Uiso   1.00
C869   C     0.57477   0.88274   0.50087   0.00000  Uiso   1.00
C870   C     0.58675   0.90263   0.95280   0.00000  Uiso   1.00
C871   C     0.54387   0.88681   0.92124   0.00000  Uiso   1.00
C872   C     0.50990   0.82662   0.56665   0.00000  Uiso   1.00
C873   C     0.60897   0.88050   0.58020   0.00000  Uiso   1.00
C874   C     0.44594   0.83125   0.90245   0.00000  Uiso   1.00
C875   C     0.52100   0.98923   0.75705   0.00000  Uiso   1.00
C876   C     0.46689   0.83267   0.84697   0.00000  Uiso   1.00
C877   C     0.47671   0.67719   0.74662   0.00000  Uiso   1.00
C878   C     0.48483   0.73327   0.74851   0.00000  Uiso   1.00
C879   C     0.53338   0.83651   0.65308   0.00000  Uiso   1.00
C880   C     0.62047   0.89788   0.53113   0.00000  Uiso   1.00
C881   C     0.55293   0.84573   0.59858   0.00000  Uiso   1.00
C882   C     0.38444   0.80591   0.92082   0.00000  Uiso   1.00
C883   C     0.36413   0.79723   0.97173   0.00000  Uiso   1.00
C884   C     0.40532   0.80994   0.50570   0.00000  Uiso   1.00
Cu885  Cu    0.44043   0.82772   0.74436   0.00000  Uiso   1.00
Cu886  Cu    0.55957   0.83895   0.75565   0.00000  Uiso   1.00
H887   H     0.64280   0.89564   0.60428   0.00000  Uiso   1.00
H888   H     0.43449   0.98669   0.73568   0.00000  Uiso   1.00
H889   H     0.33620   0.87164   0.79109   0.00000  Uiso   1.00
H890   H     0.63008   0.93018   0.93914   0.00000  Uiso   1.00
H891   H     0.66435   0.92470   0.51739   0.00000  Uiso   1.00
H892   H     0.47190   0.79466   0.58007   0.00000  Uiso   1.00
H893   H     0.35156   0.79218   0.89566   0.00000  Uiso   1.00
H894   H     0.64861   0.77970   0.98501   0.00000  Uiso   1.00
H895   H     0.55522   0.90490   0.88497   0.00000  Uiso   1.00
H896   H     0.56203   0.67961   0.76950   0.00000  Uiso   1.00
N897   N     0.64908   0.84741   0.76416   0.00000  Uiso   1.00
N898   N     0.35092   0.81926   0.73584   0.00000  Uiso   1.00
O899   O     0.46131   0.90474   0.74633   0.00000  Uiso   1.00
O900   O     0.56191   0.91422   0.75587   0.00000  Uiso   1.00
O901   O     0.42515   0.82627   0.81840   0.00000  Uiso   1.00
O902   O     0.52575   0.83575   0.82793   0.00000  Uiso   1.00
O903   O     0.43809   0.75245   0.74414   0.00000  Uiso   1.00
O904   O     0.53869   0.76193   0.75367   0.00000  Uiso   1.00
O905   O     0.47425   0.83092   0.67207   0.00000  Uiso   1.00
O906   O     0.57485   0.84040   0.68161   0.00000  Uiso   1.00
N907   N     0.65835   0.78784   0.69882   0.00000  Uiso   1.00
H908   H     0.33979   0.80461   0.66412   0.00000  Uiso   1.00
C909   C     0.66553   0.73402   0.69672   0.00000  Uiso   1.00
H910   H     0.63000   0.70837   0.67705   0.00000  Uiso   1.00
H911   H     0.65881   0.71993   0.73551   0.00000  Uiso   1.00
H912   H     0.37927   0.73079   0.67545   0.00000  Uiso   1.00
N913   N     0.37831   0.80136   0.55746   0.00000  Uiso   1.00
H914   H     0.39001   0.82974   0.58500   0.00000  Uiso   1.00
C915   C     0.34606   0.74818   0.57115   0.00000  Uiso   1.00
H916   H     0.63265   0.74901   0.59461   0.00000  Uiso   1.00
H917   H     0.37390   0.73151   0.59238   0.00000  Uiso   1.00
H918   H     0.33966   0.72124   0.53738   0.00000  Uiso   1.00
C919   C     0.84786   0.93334   0.75281   0.00000  Uiso   1.00
C920   C     0.80272   0.83563   0.98837   0.00000  Uiso   1.00
C921   C     0.82021   0.85090   0.93688   0.00000  Uiso   1.00
C922   C     0.85008   0.84806   0.51910   0.00000  Uiso   1.00
C923   C     0.90810   0.88274   0.50087   0.00000  Uiso   1.00
C924   C     0.92008   0.90263   0.95280   0.00000  Uiso   1.00
C925   C     0.87720   0.88681   0.92124   0.00000  Uiso   1.00
C926   C     0.84323   0.82662   0.56665   0.00000  Uiso   1.00
C927   C     0.94230   0.88050   0.58020   0.00000  Uiso   1.00
C928   C     0.77928   0.83125   0.90245   0.00000  Uiso   1.00
C929   C     0.85433   0.98923   0.75705   0.00000  Uiso   1.00
C930   C     0.80022   0.83267   0.84697   0.00000  Uiso   1.00
C931   C     0.81004   0.67719   0.74662   0.00000  Uiso   1.00
C932   C     0.81816   0.73327   0.74851   0.00000  Uiso   1.00
C933   C     0.86671   0.83651   0.65308   0.00000  Uiso   1.00
C934   C     0.95380   0.89788   0.53113   0.00000  Uiso   1.00
C935   C     0.88626   0.84573   0.59858   0.00000  Uiso   1.00
C936   C     0.71778   0.80591   0.92082   0.00000  Uiso   1.00
C937   C     0.69746   0.79723   0.97173   0.00000  Uiso   1.00
C938   C     0.73866   0.80994   0.50570   0.00000  Uiso   1.00
Cu939  Cu    0.77377   0.82772   0.74436   0.00000  Uiso   1.00
Cu940  Cu    0.89290   0.83895   0.75565   0.00000  Uiso   1.00
H941   H     0.97613   0.89564   0.60428   0.00000  Uiso   1.00
H942   H     0.76782   0.98669   0.73568   0.00000  Uiso   1.00
H943   H     0.66953   0.87164   0.79109   0.00000  Uiso   1.00
H944   H     0.96342   0.93018   0.93914   0.00000  Uiso   1.00
H945   H     0.99768   0.92470   0.51739   0.00000  Uiso   1.00
H946   H     0.80524   0.79466   0.58007   0.00000  Uiso   1.00
H947   H     0.68489   0.79218   0.89566   0.00000  Uiso   1.00
H948   H     0.98194   0.77970   0.98501   0.00000  Uiso   1.00
H949   H     0.88855   0.90490   0.88497   0.00000  Uiso   1.00
H950   H     0.89537   0.67961   0.76950   0.00000  Uiso   1.00
N951   N     0.98241   0.84741   0.76416   0.00000  Uiso   1.00
N952   N     0.68426   0.81926   0.73584   0.00000  Uiso   1.00
O953   O     0.79464   0.90474   0.74633   0.00000  Uiso   1.00
O954   O     0.89524   0.91422   0.75587   0.00000  Uiso   1.00
O955   O     0.75848   0.82627   0.81840   0.00000  Uiso   1.00
O956   O     0.85908   0.83575   0.82793   0.00000  Uiso   1.00
O957   O     0.77142   0.75245   0.74414   0.00000  Uiso   1.00
O958   O     0.87203   0.76193   0.75367   0.00000  Uiso   1.00
O959   O     0.80758   0.83092   0.67207   0.00000  Uiso   1.00
O960   O     0.90819   0.84040   0.68161   0.00000  Uiso   1.00
N961   N     0.99168   0.78784   0.69882   0.00000  Uiso   1.00
H962   H     0.67312   0.80461   0.66412   0.00000  Uiso   1.00
C963   C     0.99887   0.73402   0.69672   0.00000  Uiso   1.00
H964   H     0.96333   0.70837   0.67705   0.00000  Uiso   1.00
H965   H     0.99214   0.71993   0.73551   0.00000  Uiso   1.00
H966   H     0.71260   0.73079   0.67545   0.00000  Uiso   1.00
N967   N     0.71165   0.80136   0.55746   0.00000  Uiso   1.00
H968   H     0.72334   0.82974   0.58500   0.00000  Uiso   1.00
C969   C     0.67939   0.74818   0.57115   0.00000  Uiso   1.00
H970   H     0.96598   0.74901   0.59461   0.00000  Uiso   1.00
H971   H     0.70724   0.73151   0.59238   0.00000  Uiso   1.00
H972   H     0.67300   0.72124   0.53738   0.00000  Uiso   1.00
loop_
_geom_bond_atom_site_label_1
_geom_bond_atom_site_label_2
_geom_bond_distance
_geom_bond_site_symmetry_2
_ccdc_geom_bond_type
C1     O36     1.291   .     A
C1     O35     1.291   .     A
C1     C11     1.427   .     S
C2     C3      1.428   .     A
C2     C490    1.441   .     S
C2     C506    1.438   .     S
C3     C7      1.410   .     A
C3     C10     1.421   .     A
C4     C8      1.409   .     A
C4     C5      1.424   .     A
C4     C488    1.441   1_554 S
C5     C16     1.405   .     A
C5     C492    1.390   1_554 S
C6     C7      1.383   .     A
C6     H26     1.084   .     S
C6     C491    1.390   .     S
C7     H31     1.080   .     S
C8     H28     1.074   .     S
C8     C17     1.402   .     A
C9     C17     1.396   .     A
C9     C16     1.390   .     A
C9     H23     1.083   .     S
C10    C12     1.472   .     S
C10    C18     1.394   .     A
C11    C175    1.329   .     S
C11    H194    1.083   .     S
C12    O38     1.300   .     A
C12    O37     1.304   .     A
C13    C14     1.429   .     S
C13    C335    1.329   1_545 S
C13    H348    1.088   1_545 S
C14    O40     1.294   .     A
C14    O39     1.289   .     A
C15    O42     1.305   .     A
C15    O41     1.298   .     A
C15    C17     1.468   .     S
C16    H27     1.084   .     S
C18    H29     1.084   .     S
C18    C19     1.375   .     A
C19    C506    1.399   .     S
C19    H138    1.084   1_455 S
C20    N49     1.416   .     S
C20    C505    1.399   1_554 S
C20    C488    1.438   1_554 S
Cu21   O35     1.953   .     S
Cu21   O39     1.950   .     S
Cu21   O41     1.940   .     S
Cu21   O37     1.955   .     S
Cu21   N34     2.026   .     S
Cu21   Cu22    2.697   .     S
Cu22   O40     1.953   .     S
Cu22   O42     1.955   .     S
Cu22   O36     1.950   .     S
Cu22   O38     1.940   .     S
Cu22   N33     2.026   .     S
H24    C175    1.088   .     S
H25    N141    1.029   1_455 S
H30    C73     1.084   .     S
H32    C335    1.083   1_545 S
N33    H79     1.029   .     S
N33    N88     1.287   .     S
N34    N141    1.287   1_455 S
N34    N151    1.371   1_455 S
N43    C45     1.442   .     S
N43    N88     1.371   .     S
N43    H98     1.027   .     S
H44    N151    1.027   1_455 S
C45    H46     1.110   .     S
C45    H47     1.108   .     S
C45    H102    1.109   .     S
H48    C153    1.109   1_455 S
N49    H50     1.030   .     S
N49    C51     1.451   .     S
C51    H54     1.111   .     S
C51    H53     1.105   .     S
C51    H160    1.109   1_455 S
H52    C105    1.109   .     S
C55    O90     1.291   .     A
C55    O89     1.291   .     A
C55    C65     1.427   .     S
C56    C57     1.428   .     A
C56    C544    1.441   .     S
C56    C560    1.438   .     S
C57    C61     1.410   .     A
C57    C64     1.421   .     A
C58    C62     1.409   .     A
C58    C59     1.424   .     A
C58    C542    1.441   1_554 S
C59    C70     1.405   .     A
C59    C546    1.390   1_554 S
C60    C61     1.383   .     A
C60    H80     1.084   .     S
C60    C545    1.390   .     S
C61    H85     1.080   .     S
C62    H82     1.074   .     S
C62    C71     1.402   .     A
C63    C71     1.396   .     A
C63    C70     1.390   .     A
C63    H77     1.083   .     S
C64    C66     1.472   .     S
C64    C72     1.394   .     A
C65    C229    1.329   .     S
C65    H248    1.083   .     S
C66    O92     1.300   .     A
C66    O91     1.304   .     A
C67    C68     1.429   .     S
C67    C389    1.329   1_545 S
C67    H402    1.088   1_545 S
C68    O94     1.294   .     A
C68    O93     1.289   .     A
C69    O96     1.305   .     A
C69    O95     1.298   .     A
C69    C71     1.468   .     S
C70    H81     1.084   .     S
C72    H83     1.084   .     S
C72    C73     1.375   .     A
C73    C560    1.399   .     S
C74    N103    1.416   .     S
C74    C559    1.399   1_554 S
C74    C542    1.438   1_554 S
Cu75   O89     1.953   .     S
Cu75   O93     1.950   .     S
Cu75   O95     1.940   .     S
Cu75   O91     1.955   .     S
Cu75   N88     2.026   .     S
Cu75   Cu76    2.697   .     S
Cu76   O94     1.953   .     S
Cu76   O96     1.955   .     S
Cu76   O90     1.950   .     S
Cu76   O92     1.940   .     S
Cu76   N87     2.026   .     S
H78    C229    1.088   .     S
H84    C127    1.084   .     S
H86    C389    1.083   1_545 S
N87    H133    1.029   .     S
N87    N142    1.287   .     S
N97    C99     1.442   .     S
N97    N142    1.371   .     S
N97    H152    1.027   .     S
C99    H100    1.110   .     S
C99    H101    1.108   .     S
C99    H156    1.109   .     S
N103   H104    1.030   .     S
N103   C105    1.451   .     S
C105   H108    1.111   .     S
C105   H107    1.105   .     S
H106   C159    1.109   .     S
C109   O144    1.291   .     A
C109   O143    1.291   .     A
C109   C119    1.427   .     S
C110   C111    1.428   .     A
C110   C598    1.441   .     S
C110   C614    1.438   .     S
C111   C115    1.410   .     A
C111   C118    1.421   .     A
C112   C116    1.409   .     A
C112   C113    1.424   .     A
C112   C596    1.441   1_554 S
C113   C124    1.405   .     A
C113   C600    1.390   1_554 S
C114   C115    1.383   .     A
C114   H134    1.084   .     S
C114   C599    1.390   .     S
C115   H139    1.080   .     S
C116   H136    1.074   .     S
C116   C125    1.402   .     A
C117   C125    1.396   .     A
C117   C124    1.390   .     A
C117   H131    1.083   .     S
C118   C120    1.472   .     S
C118   C126    1.394   .     A
C119   C283    1.329   .     S
C119   H302    1.083   .     S
C120   O146    1.300   .     A
C120   O145    1.304   .     A
C121   C122    1.429   .     S
C121   C443    1.329   1_545 S
C121   H456    1.088   1_545 S
C122   O148    1.294   .     A
C122   O147    1.289   .     A
C123   O150    1.305   .     A
C123   O149    1.298   .     A
C123   C125    1.468   .     S
C124   H135    1.084   .     S
C126   H137    1.084   .     S
C126   C127    1.375   .     A
C127   C614    1.399   .     S
C128   N157    1.416   .     S
C128   C613    1.399   1_554 S
C128   C596    1.438   1_554 S
Cu129  O143    1.953   .     S
Cu129  O147    1.950   .     S
Cu129  O149    1.940   .     S
Cu129  O145    1.955   .     S
Cu129  N142    2.026   .     S
Cu129  Cu130   2.697   .     S
Cu130  O148    1.953   .     S
Cu130  O150    1.955   .     S
Cu130  O144    1.950   .     S
Cu130  O146    1.940   .     S
Cu130  N141    2.026   .     S
H132   C283    1.088   .     S
H138   C19     1.084   1_655 S
H140   C443    1.083   1_545 S
N141   H25     1.029   1_655 S
N141   N34     1.287   1_655 S
N151   C153    1.442   .     S
N151   N34     1.371   1_655 S
N151   H44     1.027   1_655 S
C153   H154    1.110   .     S
C153   H155    1.108   .     S
C153   H48     1.109   1_655 S
N157   H158    1.030   .     S
N157   C159    1.451   .     S
C159   H162    1.111   .     S
C159   H161    1.105   .     S
H160   C51     1.109   1_655 S
C163   O198    1.291   .     A
C163   O197    1.291   .     A
C163   C173    1.427   .     S
C164   C165    1.428   .     A
C164   C652    1.441   .     S
C164   C668    1.438   .     S
C165   C169    1.410   .     A
C165   C172    1.421   .     A
C166   C170    1.409   .     A
C166   C167    1.424   .     A
C166   C650    1.441   1_554 S
C167   C178    1.405   .     A
C167   C654    1.390   1_554 S
C168   C169    1.383   .     A
C168   H188    1.084   .     S
C168   C653    1.390   .     S
C169   H193    1.080   .     S
C170   H190    1.074   .     S
C170   C179    1.402   .     A
C171   C179    1.396   .     A
C171   C178    1.390   .     A
C171   H185    1.083   .     S
C172   C174    1.472   .     S
C172   C180    1.394   .     A
C173   C337    1.329   .     S
C173   H356    1.083   .     S
C174   O200    1.300   .     A
C174   O199    1.304   .     A
C175   C176    1.429   .     S
C176   O202    1.294   .     A
C176   O201    1.289   .     A
C177   O204    1.305   .     A
C177   O203    1.298   .     A
C177   C179    1.468   .     S
C178   H189    1.084   .     S
C180   H191    1.084   .     S
C180   C181    1.375   .     A
C181   C668    1.399   .     S
C181   H300    1.084   1_455 S
C182   N211    1.416   .     S
C182   C667    1.399   1_554 S
C182   C650    1.438   1_554 S
Cu183  O197    1.953   .     S
Cu183  O201    1.950   .     S
Cu183  O203    1.940   .     S
Cu183  O199    1.955   .     S
Cu183  N196    2.026   .     S
Cu183  Cu184   2.697   .     S
Cu184  O202    1.953   .     S
Cu184  O204    1.955   .     S
Cu184  O198    1.950   .     S
Cu184  O200    1.940   .     S
Cu184  N195    2.026   .     S
H186   C337    1.088   .     S
H187   N303    1.029   1_455 S
H192   C235    1.084   .     S
N195   H241    1.029   .     S
N195   N250    1.287   .     S
N196   N303    1.287   1_455 S
N196   N313    1.371   1_455 S
N205   C207    1.442   .     S
N205   N250    1.371   .     S
N205   H260    1.027   .     S
H206   N313    1.027   1_455 S
C207   H208    1.110   .     S
C207   H209    1.108   .     S
C207   H264    1.109   .     S
H210   C315    1.109   1_455 S
N211   H212    1.030   .     S
N211   C213    1.451   .     S
C213   H216    1.111   .     S
C213   H215    1.105   .     S
C213   H322    1.109   1_455 S
H214   C267    1.109   .     S
C217   O252    1.291   .     A
C217   O251    1.291   .     A
C217   C227    1.427   .     S
C218   C219    1.428   .     A
C218   C706    1.441   .     S
C218   C722    1.438   .     S
C219   C223    1.410   .     A
C219   C226    1.421   .     A
C220   C224    1.409   .     A
C220   C221    1.424   .     A
C220   C704    1.441   1_554 S
C221   C232    1.405   .     A
C221   C708    1.390   1_554 S
C222   C223    1.383   .     A
C222   H242    1.084   .     S
C222   C707    1.390   .     S
C223   H247    1.080   .     S
C224   H244    1.074   .     S
C224   C233    1.402   .     A
C225   C233    1.396   .     A
C225   C232    1.390   .     A
C225   H239    1.083   .     S
C226   C228    1.472   .     S
C226   C234    1.394   .     A
C227   C391    1.329   .     S
C227   H410    1.083   .     S
C228   O254    1.300   .     A
C228   O253    1.304   .     A
C229   C230    1.429   .     S
C230   O256    1.294   .     A
C230   O255    1.289   .     A
C231   O258    1.305   .     A
C231   O257    1.298   .     A
C231   C233    1.468   .     S
C232   H243    1.084   .     S
C234   H245    1.084   .     S
C234   C235    1.375   .     A
C235   C722    1.399   .     S
C236   N265    1.416   .     S
C236   C721    1.399   1_554 S
C236   C704    1.438   1_554 S
Cu237  O251    1.953   .     S
Cu237  O255    1.950   .     S
Cu237  O257    1.940   .     S
Cu237  O253    1.955   .     S
Cu237  N250    2.026   .     S
Cu237  Cu238   2.697   .     S
Cu238  O256    1.953   .     S
Cu238  O258    1.955   .     S
Cu238  O252    1.950   .     S
Cu238  O254    1.940   .     S
Cu238  N249    2.026   .     S
H240   C391    1.088   .     S
H246   C289    1.084   .     S
N249   H295    1.029   .     S
N249   N304    1.287   .     S
N259   C261    1.442   .     S
N259   N304    1.371   .     S
N259   H314    1.027   .     S
C261   H262    1.110   .     S
C261   H263    1.108   .     S
C261   H318    1.109   .     S
N265   H266    1.030   .     S
N265   C267    1.451   .     S
C267   H270    1.111   .     S
C267   H269    1.105   .     S
H268   C321    1.109   .     S
C271   O306    1.291   .     A
C271   O305    1.291   .     A
C271   C281    1.427   .     S
C272   C273    1.428   .     A
C272   C760    1.441   .     S
C272   C776    1.438   .     S
C273   C277    1.410   .     A
C273   C280    1.421   .     A
C274   C278    1.409   .     A
C274   C275    1.424   .     A
C274   C758    1.441   1_554 S
C275   C286    1.405   .     A
C275   C762    1.390   1_554 S
C276   C277    1.383   .     A
C276   H296    1.084   .     S
C276   C761    1.390   .     S
C277   H301    1.080   .     S
C278   H298    1.074   .     S
C278   C287    1.402   .     A
C279   C287    1.396   .     A
C279   C286    1.390   .     A
C279   H293    1.083   .     S
C280   C282    1.472   .     S
C280   C288    1.394   .     A
C281   C445    1.329   .     S
C281   H464    1.083   .     S
C282   O308    1.300   .     A
C282   O307    1.304   .     A
C283   C284    1.429   .     S
C284   O310    1.294   .     A
C284   O309    1.289   .     A
C285   O312    1.305   .     A
C285   O311    1.298   .     A
C285   C287    1.468   .     S
C286   H297    1.084   .     S
C288   H299    1.084   .     S
C288   C289    1.375   .     A
C289   C776    1.399   .     S
C290   N319    1.416   .     S
C290   C775    1.399   1_554 S
C290   C758    1.438   1_554 S
Cu291  O305    1.953   .     S
Cu291  O309    1.950   .     S
Cu291  O311    1.940   .     S
Cu291  O307    1.955   .     S
Cu291  N304    2.026   .     S
Cu291  Cu292   2.697   .     S
Cu292  O310    1.953   .     S
Cu292  O312    1.955   .     S
Cu292  O306    1.950   .     S
Cu292  O308    1.940   .     S
Cu292  N303    2.026   .     S
H294   C445    1.088   .     S
H300   C181    1.084   1_655 S
N303   H187    1.029   1_655 S
N303   N196    1.287   1_655 S
N313   C315    1.442   .     S
N313   N196    1.371   1_655 S
N313   H206    1.027   1_655 S
C315   H316    1.110   .     S
C315   H317    1.108   .     S
C315   H210    1.109   1_655 S
N319   H320    1.030   .     S
N319   C321    1.451   .     S
C321   H324    1.111   .     S
C321   H323    1.105   .     S
H322   C213    1.109   1_655 S
C325   O360    1.291   .     A
C325   O359    1.291   .     A
C325   C335    1.427   .     S
C326   C327    1.428   .     A
C326   C814    1.441   .     S
C326   C830    1.438   .     S
C327   C331    1.410   .     A
C327   C334    1.421   .     A
C328   C332    1.409   .     A
C328   C329    1.424   .     A
C328   C812    1.441   1_554 S
C329   C340    1.405   .     A
C329   C816    1.390   1_554 S
C330   C331    1.383   .     A
C330   H350    1.084   .     S
C330   C815    1.390   .     S
C331   H355    1.080   .     S
C332   H352    1.074   .     S
C332   C341    1.402   .     A
C333   C341    1.396   .     A
C333   C340    1.390   .     A
C333   H347    1.083   .     S
C334   C336    1.472   .     S
C334   C342    1.394   .     A
C335   C13     1.329   1_565 S
C335   H32     1.083   1_565 S
C336   O362    1.300   .     A
C336   O361    1.304   .     A
C337   C338    1.429   .     S
C338   O364    1.294   .     A
C338   O363    1.289   .     A
C339   O366    1.305   .     A
C339   O365    1.298   .     A
C339   C341    1.468   .     S
C340   H351    1.084   .     S
C342   H353    1.084   .     S
C342   C343    1.375   .     A
C343   C830    1.399   .     S
C343   H462    1.084   1_455 S
C344   N373    1.416   .     S
C344   C829    1.399   1_554 S
C344   C812    1.438   1_554 S
Cu345  O359    1.953   .     S
Cu345  O363    1.950   .     S
Cu345  O365    1.940   .     S
Cu345  O361    1.955   .     S
Cu345  N358    2.026   .     S
Cu345  Cu346   2.697   .     S
Cu346  O364    1.953   .     S
Cu346  O366    1.955   .     S
Cu346  O360    1.950   .     S
Cu346  O362    1.940   .     S
Cu346  N357    2.026   .     S
H348   C13     1.088   1_565 S
H349   N465    1.029   1_455 S
H354   C397    1.084   .     S
N357   H403    1.029   .     S
N357   N412    1.287   .     S
N358   N465    1.287   1_455 S
N358   N475    1.371   1_455 S
N367   C369    1.442   .     S
N367   N412    1.371   .     S
N367   H422    1.027   .     S
H368   N475    1.027   1_455 S
C369   H370    1.110   .     S
C369   H371    1.108   .     S
C369   H426    1.109   .     S
H372   C477    1.109   1_455 S
N373   H374    1.030   .     S
N373   C375    1.451   .     S
C375   H378    1.111   .     S
C375   H377    1.105   .     S
C375   H484    1.109   1_455 S
H376   C429    1.109   .     S
C379   O414    1.291   .     A
C379   O413    1.291   .     A
C379   C389    1.427   .     S
C380   C381    1.428   .     A
C380   C868    1.441   .     S
C380   C884    1.438   .     S
C381   C385    1.410   .     A
C381   C388    1.421   .     A
C382   C386    1.409   .     A
C382   C383    1.424   .     A
C382   C866    1.441   1_554 S
C383   C394    1.405   .     A
C383   C870    1.390   1_554 S
C384   C385    1.383   .     A
C384   H404    1.084   .     S
C384   C869    1.390   .     S
C385   H409    1.080   .     S
C386   H406    1.074   .     S
C386   C395    1.402   .     A
C387   C395    1.396   .     A
C387   C394    1.390   .     A
C387   H401    1.083   .     S
C388   C390    1.472   .     S
C388   C396    1.394   .     A
C389   C67     1.329   1_565 S
C389   H86     1.083   1_565 S
C390   O416    1.300   .     A
C390   O415    1.304   .     A
C391   C392    1.429   .     S
C392   O418    1.294   .     A
C392   O417    1.289   .     A
C393   O420    1.305   .     A
C393   O419    1.298   .     A
C393   C395    1.468   .     S
C394   H405    1.084   .     S
C396   H407    1.084   .     S
C396   C397    1.375   .     A
C397   C884    1.399   .     S
C398   N427    1.416   .     S
C398   C883    1.399   1_554 S
C398   C866    1.438   1_554 S
Cu399  O413    1.953   .     S
Cu399  O417    1.950   .     S
Cu399  O419    1.940   .     S
Cu399  O415    1.955   .     S
Cu399  N412    2.026   .     S
Cu399  Cu400   2.697   .     S
Cu400  O418    1.953   .     S
Cu400  O420    1.955   .     S
Cu400  O414    1.950   .     S
Cu400  O416    1.940   .     S
Cu400  N411    2.026   .     S
H402   C67     1.088   1_565 S
H408   C451    1.084   .     S
N411   H457    1.029   .     S
N411   N466    1.287   .     S
N421   C423    1.442   .     S
N421   N466    1.371   .     S
N421   H476    1.027   .     S
C423   H424    1.110   .     S
C423   H425    1.108   .     S
C423   H480    1.109   .     S
N427   H428    1.030   .     S
N427   C429    1.451   .     S
C429   H432    1.111   .     S
C429   H431    1.105   .     S
H430   C483    1.109   .     S
C433   O468    1.291   .     A
C433   O467    1.291   .     A
C433   C443    1.427   .     S
C434   C435    1.428   .     A
C434   C922    1.441   .     S
C434   C938    1.438   .     S
C435   C439    1.410   .     A
C435   C442    1.421   .     A
C436   C440    1.409   .     A
C436   C437    1.424   .     A
C436   C920    1.441   1_554 S
C437   C448    1.405   .     A
C437   C924    1.390   1_554 S
C438   C439    1.383   .     A
C438   H458    1.084   .     S
C438   C923    1.390   .     S
C439   H463    1.080   .     S
C440   H460    1.074   .     S
C440   C449    1.402   .     A
C441   C449    1.396   .     A
C441   C448    1.390   .     A
C441   H455    1.083   .     S
C442   C444    1.472   .     S
C442   C450    1.394   .     A
C443   C121    1.329   1_565 S
C443   H140    1.083   1_565 S
C444   O470    1.300   .     A
C444   O469    1.304   .     A
C445   C446    1.429   .     S
C446   O472    1.294   .     A
C446   O471    1.289   .     A
C447   O474    1.305   .     A
C447   O473    1.298   .     A
C447   C449    1.468   .     S
C448   H459    1.084   .     S
C450   H461    1.084   .     S
C450   C451    1.375   .     A
C451   C938    1.399   .     S
C452   N481    1.416   .     S
C452   C937    1.399   1_554 S
C452   C920    1.438   1_554 S
Cu453  O467    1.953   .     S
Cu453  O471    1.950   .     S
Cu453  O473    1.940   .     S
Cu453  O469    1.955   .     S
Cu453  N466    2.026   .     S
Cu453  Cu454   2.697   .     S
Cu454  O472    1.953   .     S
Cu454  O474    1.955   .     S
Cu454  O468    1.950   .     S
Cu454  O470    1.940   .     S
Cu454  N465    2.026   .     S
H456   C121    1.088   1_565 S
H462   C343    1.084   1_655 S
N465   H349    1.029   1_655 S
N465   N358    1.287   1_655 S
N475   C477    1.442   .     S
N475   N358    1.371   1_655 S
N475   H368    1.027   1_655 S
C477   H478    1.110   .     S
C477   H479    1.108   .     S
C477   H372    1.109   1_655 S
N481   H482    1.030   .     S
N481   C483    1.451   .     S
C483   H486    1.111   .     S
C483   H485    1.105   .     S
H484   C375    1.109   1_655 S
C487   O522    1.291   .     A
C487   O521    1.291   .     A
C487   C497    1.427   .     S
C488   C489    1.428   .     A
C488   C4      1.441   1_556 S
C488   C20     1.438   1_556 S
C489   C493    1.410   .     A
C489   C496    1.421   .     A
C490   C494    1.409   .     A
C490   C491    1.424   .     A
C491   C502    1.405   .     A
C492   C493    1.383   .     A
C492   H512    1.084   .     S
C492   C5      1.390   1_556 S
C493   H517    1.080   .     S
C494   H514    1.074   .     S
C494   C503    1.402   .     A
C495   C503    1.396   .     A
C495   C502    1.390   .     A
C495   H509    1.083   .     S
C496   C498    1.472   .     S
C496   C504    1.394   .     A
C497   C661    1.329   .     S
C497   H680    1.083   .     S
C498   O524    1.300   .     A
C498   O523    1.304   .     A
C499   C500    1.429   .     S
C499   C821    1.329   1_545 S
C499   H834    1.088   1_545 S
C500   O526    1.294   .     A
C500   O525    1.289   .     A
C501   O528    1.305   .     A
C501   O527    1.298   .     A
C501   C503    1.468   .     S
C502   H513    1.084   .     S
C504   H515    1.084   .     S
C504   C505    1.375   .     A
C505   C20     1.399   1_556 S
C505   H624    1.084   1_455 S
C506   N535    1.416   .     S
Cu507  O521    1.953   .     S
Cu507  O525    1.950   .     S
Cu507  O527    1.940   .     S
Cu507  O523    1.955   .     S
Cu507  N520    2.026   .     S
Cu507  Cu508   2.697   .     S
Cu508  O526    1.953   .     S
Cu508  O528    1.955   .     S
Cu508  O522    1.950   .     S
Cu508  O524    1.940   .     S
Cu508  N519    2.026   .     S
H510   C661    1.088   .     S
H511   N627    1.029   1_455 S
H516   C559    1.084   .     S
H518   C821    1.083   1_545 S
N519   H565    1.029   .     S
N519   N574    1.287   .     S
N520   N627    1.287   1_455 S
N520   N637    1.371   1_455 S
N529   C531    1.442   .     S
N529   N574    1.371   .     S
N529   H584    1.027   .     S
H530   N637    1.027   1_455 S
C531   H532    1.110   .     S
C531   H533    1.108   .     S
C531   H588    1.109   .     S
H534   C639    1.109   1_455 S
N535   H536    1.030   .     S
N535   C537    1.451   .     S
C537   H540    1.111   .     S
C537   H539    1.105   .     S
C537   H646    1.109   1_455 S
H538   C591    1.109   .     S
C541   O576    1.291   .     A
C541   O575    1.291   .     A
C541   C551    1.427   .     S
C542   C543    1.428   .     A
C542   C58     1.441   1_556 S
C542   C74     1.438   1_556 S
C543   C547    1.410   .     A
C543   C550    1.421   .     A
C544   C548    1.409   .     A
C544   C545    1.424   .     A
C545   C556    1.405   .     A
C546   C547    1.383   .     A
C546   H566    1.084   .     S
C546   C59     1.390   1_556 S
C547   H571    1.080   .     S
C548   H568    1.074   .     S
C548   C557    1.402   .     A
C549   C557    1.396   .     A
C549   C556    1.390   .     A
C549   H563    1.083   .     S
C550   C552    1.472   .     S
C550   C558    1.394   .     A
C551   C715    1.329   .     S
C551   H734    1.083   .     S
C552   O578    1.300   .     A
C552   O577    1.304   .     A
C553   C554    1.429   .     S
C553   C875    1.329   1_545 S
C553   H888    1.088   1_545 S
C554   O580    1.294   .     A
C554   O579    1.289   .     A
C555   O582    1.305   .     A
C555   O581    1.298   .     A
C555   C557    1.468   .     S
C556   H567    1.084   .     S
C558   H569    1.084   .     S
C558   C559    1.375   .     A
C559   C74     1.399   1_556 S
C560   N589    1.416   .     S
Cu561  O575    1.953   .     S
Cu561  O579    1.950   .     S
Cu561  O581    1.940   .     S
Cu561  O577    1.955   .     S
Cu561  N574    2.026   .     S
Cu561  Cu562   2.697   .     S
Cu562  O580    1.953   .     S
Cu562  O582    1.955   .     S
Cu562  O576    1.950   .     S
Cu562  O578    1.940   .     S
Cu562  N573    2.026   .     S
H564   C715    1.088   .     S
H570   C613    1.084   .     S
H572   C875    1.083   1_545 S
N573   H619    1.029   .     S
N573   N628    1.287   .     S
N583   C585    1.442   .     S
N583   N628    1.371   .     S
N583   H638    1.027   .     S
C585   H586    1.110   .     S
C585   H587    1.108   .     S
C585   H642    1.109   .     S
N589   H590    1.030   .     S
N589   C591    1.451   .     S
C591   H594    1.111   .     S
C591   H593    1.105   .     S
H592   C645    1.109   .     S
C595   O630    1.291   .     A
C595   O629    1.291   .     A
C595   C605    1.427   .     S
C596   C597    1.428   .     A
C596   C112    1.441   1_556 S
C596   C128    1.438   1_556 S
C597   C601    1.410   .     A
C597   C604    1.421   .     A
C598   C602    1.409   .     A
C598   C599    1.424   .     A
C599   C610    1.405   .     A
C600   C601    1.383   .     A
C600   H620    1.084   .     S
C600   C113    1.390   1_556 S
C601   H625    1.080   .     S
C602   H622    1.074   .     S
C602   C611    1.402   .     A
C603   C611    1.396   .     A
C603   C610    1.390   .     A
C603   H617    1.083   .     S
C604   C606    1.472   .     S
C604   C612    1.394   .     A
C605   C769    1.329   .     S
C605   H788    1.083   .     S
C606   O632    1.300   .     A
C606   O631    1.304   .     A
C607   C608    1.429   .     S
C607   C929    1.329   1_545 S
C607   H942    1.088   1_545 S
C608   O634    1.294   .     A
C608   O633    1.289   .     A
C609   O636    1.305   .     A
C609   O635    1.298   .     A
C609   C611    1.468   .     S
C610   H621    1.084   .     S
C612   H623    1.084   .     S
C612   C613    1.375   .     A
C613   C128    1.399   1_556 S
C614   N643    1.416   .     S
Cu615  O629    1.953   .     S
Cu615  O633    1.950   .     S
Cu615  O635    1.940   .     S
Cu615  O631    1.955   .     S
Cu615  N628    2.026   .     S
Cu615  Cu616   2.697   .     S
Cu616  O634    1.953   .     S
Cu616  O636    1.955   .     S
Cu616  O630    1.950   .     S
Cu616  O632    1.940   .     S
Cu616  N627    2.026   .     S
H618   C769    1.088   .     S
H624   C505    1.084   1_655 S
H626   C929    1.083   1_545 S
N627   H511    1.029   1_655 S
N627   N520    1.287   1_655 S
N637   C639    1.442   .     S
N637   N520    1.371   1_655 S
N637   H530    1.027   1_655 S
C639   H640    1.110   .     S
C639   H641    1.108   .     S
C639   H534    1.109   1_655 S
N643   H644    1.030   .     S
N643   C645    1.451   .     S
C645   H648    1.111   .     S
C645   H647    1.105   .     S
H646   C537    1.109   1_655 S
C649   O684    1.291   .     A
C649   O683    1.291   .     A
C649   C659    1.427   .     S
C650   C651    1.428   .     A
C650   C166    1.441   1_556 S
C650   C182    1.438   1_556 S
C651   C655    1.410   .     A
C651   C658    1.421   .     A
C652   C656    1.409   .     A
C652   C653    1.424   .     A
C653   C664    1.405   .     A
C654   C655    1.383   .     A
C654   H674    1.084   .     S
C654   C167    1.390   1_556 S
C655   H679    1.080   .     S
C656   H676    1.074   .     S
C656   C665    1.402   .     A
C657   C665    1.396   .     A
C657   C664    1.390   .     A
C657   H671    1.083   .     S
C658   C660    1.472   .     S
C658   C666    1.394   .     A
C659   C823    1.329   .     S
C659   H842    1.083   .     S
C660   O686    1.300   .     A
C660   O685    1.304   .     A
C661   C662    1.429   .     S
C662   O688    1.294   .     A
C662   O687    1.289   .     A
C663   O690    1.305   .     A
C663   O689    1.298   .     A
C663   C665    1.468   .     S
C664   H675    1.084   .     S
C666   H677    1.084   .     S
C666   C667    1.375   .     A
C667   C182    1.399   1_556 S
C667   H786    1.084   1_455 S
C668   N697    1.416   .     S
Cu669  O683    1.953   .     S
Cu669  O687    1.950   .     S
Cu669  O689    1.940   .     S
Cu669  O685    1.955   .     S
Cu669  N682    2.026   .     S
Cu669  Cu670   2.697   .     S
Cu670  O688    1.953   .     S
Cu670  O690    1.955   .     S
Cu670  O684    1.950   .     S
Cu670  O686    1.940   .     S
Cu670  N681    2.026   .     S
H672   C823    1.088   .     S
H673   N789    1.029   1_455 S
H678   C721    1.084   .     S
N681   H727    1.029   .     S
N681   N736    1.287   .     S
N682   N789    1.287   1_455 S
N682   N799    1.371   1_455 S
N691   C693    1.442   .     S
N691   N736    1.371   .     S
N691   H746    1.027   .     S
H692   N799    1.027   1_455 S
C693   H694    1.110   .     S
C693   H695    1.108   .     S
C693   H750    1.109   .     S
H696   C801    1.109   1_455 S
N697   H698    1.030   .     S
N697   C699    1.451   .     S
C699   H702    1.111   .     S
C699   H701    1.105   .     S
C699   H808    1.109   1_455 S
H700   C753    1.109   .     S
C703   O738    1.291   .     A
C703   O737    1.291   .     A
C703   C713    1.427   .     S
C704   C705    1.428   .     A
C704   C220    1.441   1_556 S
C704   C236    1.438   1_556 S
C705   C709    1.410   .     A
C705   C712    1.421   .     A
C706   C710    1.409   .     A
C706   C707    1.424   .     A
C707   C718    1.405   .     A
C708   C709    1.383   .     A
C708   H728    1.084   .     S
C708   C221    1.390   1_556 S
C709   H733    1.080   .     S
C710   H730    1.074   .     S
C710   C719    1.402   .     A
C711   C719    1.396   .     A
C711   C718    1.390   .     A
C711   H725    1.083   .     S
C712   C714    1.472   .     S
C712   C720    1.394   .     A
C713   C877    1.329   .     S
C713   H896    1.083   .     S
C714   O740    1.300   .     A
C714   O739    1.304   .     A
C715   C716    1.429   .     S
C716   O742    1.294   .     A
C716   O741    1.289   .     A
C717   O744    1.305   .     A
C717   O743    1.298   .     A
C717   C719    1.468   .     S
C718   H729    1.084   .     S
C720   H731    1.084   .     S
C720   C721    1.375   .     A
C721   C236    1.399   1_556 S
C722   N751    1.416   .     S
Cu723  O737    1.953   .     S
Cu723  O741    1.950   .     S
Cu723  O743    1.940   .     S
Cu723  O739    1.955   .     S
Cu723  N736    2.026   .     S
Cu723  Cu724   2.697   .     S
Cu724  O742    1.953   .     S
Cu724  O744    1.955   .     S
Cu724  O738    1.950   .     S
Cu724  O740    1.940   .     S
Cu724  N735    2.026   .     S
H726   C877    1.088   .     S
H732   C775    1.084   .     S
N735   H781    1.029   .     S
N735   N790    1.287   .     S
N745   C747    1.442   .     S
N745   N790    1.371   .     S
N745   H800    1.027   .     S
C747   H748    1.110   .     S
C747   H749    1.108   .     S
C747   H804    1.109   .     S
N751   H752    1.030   .     S
N751   C753    1.451   .     S
C753   H756    1.111   .     S
C753   H755    1.105   .     S
H754   C807    1.109   .     S
C757   O792    1.291   .     A
C757   O791    1.291   .     A
C757   C767    1.427   .     S
C758   C759    1.428   .     A
C758   C274    1.441   1_556 S
C758   C290    1.438   1_556 S
C759   C763    1.410   .     A
C759   C766    1.421   .     A
C760   C764    1.409   .     A
C760   C761    1.424   .     A
C761   C772    1.405   .     A
C762   C763    1.383   .     A
C762   H782    1.084   .     S
C762   C275    1.390   1_556 S
C763   H787    1.080   .     S
C764   H784    1.074   .     S
C764   C773    1.402   .     A
C765   C773    1.396   .     A
C765   C772    1.390   .     A
C765   H779    1.083   .     S
C766   C768    1.472   .     S
C766   C774    1.394   .     A
C767   C931    1.329   .     S
C767   H950    1.083   .     S
C768   O794    1.300   .     A
C768   O793    1.304   .     A
C769   C770    1.429   .     S
C770   O796    1.294   .     A
C770   O795    1.289   .     A
C771   O798    1.305   .     A
C771   O797    1.298   .     A
C771   C773    1.468   .     S
C772   H783    1.084   .     S
C774   H785    1.084   .     S
C774   C775    1.375   .     A
C775   C290    1.399   1_556 S
C776   N805    1.416   .     S
Cu777  O791    1.953   .     S
Cu777  O795    1.950   .     S
Cu777  O797    1.940   .     S
Cu777  O793    1.955   .     S
Cu777  N790    2.026   .     S
Cu777  Cu778   2.697   .     S
Cu778  O796    1.953   .     S
Cu778  O798    1.955   .     S
Cu778  O792    1.950   .     S
Cu778  O794    1.940   .     S
Cu778  N789    2.026   .     S
H780   C931    1.088   .     S
H786   C667    1.084   1_655 S
N789   H673    1.029   1_655 S
N789   N682    1.287   1_655 S
N799   C801    1.442   .     S
N799   N682    1.371   1_655 S
N799   H692    1.027   1_655 S
C801   H802    1.110   .     S
C801   H803    1.108   .     S
C801   H696    1.109   1_655 S
N805   H806    1.030   .     S
N805   C807    1.451   .     S
C807   H810    1.111   .     S
C807   H809    1.105   .     S
H808   C699    1.109   1_655 S
C811   O846    1.291   .     A
C811   O845    1.291   .     A
C811   C821    1.427   .     S
C812   C813    1.428   .     A
C812   C328    1.441   1_556 S
C812   C344    1.438   1_556 S
C813   C817    1.410   .     A
C813   C820    1.421   .     A
C814   C818    1.409   .     A
C814   C815    1.424   .     A
C815   C826    1.405   .     A
C816   C817    1.383   .     A
C816   H836    1.084   .     S
C816   C329    1.390   1_556 S
C817   H841    1.080   .     S
C818   H838    1.074   .     S
C818   C827    1.402   .     A
C819   C827    1.396   .     A
C819   C826    1.390   .     A
C819   H833    1.083   .     S
C820   C822    1.472   .     S
C820   C828    1.394   .     A
C821   C499    1.329   1_565 S
C821   H518    1.083   1_565 S
C822   O848    1.300   .     A
C822   O847    1.304   .     A
C823   C824    1.429   .     S
C824   O850    1.294   .     A
C824   O849    1.289   .     A
C825   O852    1.305   .     A
C825   O851    1.298   .     A
C825   C827    1.468   .     S
C826   H837    1.084   .     S
C828   H839    1.084   .     S
C828   C829    1.375   .     A
C829   C344    1.399   1_556 S
C829   H948    1.084   1_455 S
C830   N859    1.416   .     S
Cu831  O845    1.953   .     S
Cu831  O849    1.950   .     S
Cu831  O851    1.940   .     S
Cu831  O847    1.955   .     S
Cu831  N844    2.026   .     S
Cu831  Cu832   2.697   .     S
Cu832  O850    1.953   .     S
Cu832  O852    1.955   .     S
Cu832  O846    1.950   .     S
Cu832  O848    1.940   .     S
Cu832  N843    2.026   .     S
H834   C499    1.088   1_565 S
H835   N951    1.029   1_455 S
H840   C883    1.084   .     S
N843   H889    1.029   .     S
N843   N898    1.287   .     S
N844   N951    1.287   1_455 S
N844   N961    1.371   1_455 S
N853   C855    1.442   .     S
N853   N898    1.371   .     S
N853   H908    1.027   .     S
H854   N961    1.027   1_455 S
C855   H856    1.110   .     S
C855   H857    1.108   .     S
C855   H912    1.109   .     S
H858   C963    1.109   1_455 S
N859   H860    1.030   .     S
N859   C861    1.451   .     S
C861   H864    1.111   .     S
C861   H863    1.105   .     S
C861   H970    1.109   1_455 S
H862   C915    1.109   .     S
C865   O900    1.291   .     A
C865   O899    1.291   .     A
C865   C875    1.427   .     S
C866   C867    1.428   .     A
C866   C382    1.441   1_556 S
C866   C398    1.438   1_556 S
C867   C871    1.410   .     A
C867   C874    1.421   .     A
C868   C872    1.409   .     A
C868   C869    1.424   .     A
C869   C880    1.405   .     A
C870   C871    1.383   .     A
C870   H890    1.084   .     S
C870   C383    1.390   1_556 S
C871   H895    1.080   .     S
C872   H892    1.074   .     S
C872   C881    1.402   .     A
C873   C881    1.396   .     A
C873   C880    1.390   .     A
C873   H887    1.083   .     S
C874   C876    1.472   .     S
C874   C882    1.394   .     A
C875   C553    1.329   1_565 S
C875   H572    1.083   1_565 S
C876   O902    1.300   .     A
C876   O901    1.304   .     A
C877   C878    1.429   .     S
C878   O904    1.294   .     A
C878   O903    1.289   .     A
C879   O906    1.305   .     A
C879   O905    1.298   .     A
C879   C881    1.468   .     S
C880   H891    1.084   .     S
C882   H893    1.084   .     S
C882   C883    1.375   .     A
C883   C398    1.399   1_556 S
C884   N913    1.416   .     S
Cu885  O899    1.953   .     S
Cu885  O903    1.950   .     S
Cu885  O905    1.940   .     S
Cu885  O901    1.955   .     S
Cu885  N898    2.026   .     S
Cu885  Cu886   2.697   .     S
Cu886  O904    1.953   .     S
Cu886  O906    1.955   .     S
Cu886  O900    1.950   .     S
Cu886  O902    1.940   .     S
Cu886  N897    2.026   .     S
H888   C553    1.088   1_565 S
H894   C937    1.084   .     S
N897   H943    1.029   .     S
N897   N952    1.287   .     S
N907   C909    1.442   .     S
N907   N952    1.371   .     S
N907   H962    1.027   .     S
C909   H910    1.110   .     S
C909   H911    1.108   .     S
C909   H966    1.109   .     S
N913   H914    1.030   .     S
N913   C915    1.451   .     S
C915   H918    1.111   .     S
C915   H917    1.105   .     S
H916   C969    1.109   .     S
C919   O954    1.291   .     A
C919   O953    1.291   .     A
C919   C929    1.427   .     S
C920   C921    1.428   .     A
C920   C436    1.441   1_556 S
C920   C452    1.438   1_556 S
C921   C925    1.410   .     A
C921   C928    1.421   .     A
C922   C926    1.409   .     A
C922   C923    1.424   .     A
C923   C934    1.405   .     A
C924   C925    1.383   .     A
C924   H944    1.084   .     S
C924   C437    1.390   1_556 S
C925   H949    1.080   .     S
C926   H946    1.074   .     S
C926   C935    1.402   .     A
C927   C935    1.396   .     A
C927   C934    1.390   .     A
C927   H941    1.083   .     S
C928   C930    1.472   .     S
C928   C936    1.394   .     A
C929   C607    1.329   1_565 S
C929   H626    1.083   1_565 S
C930   O956    1.300   .     A
C930   O955    1.304   .     A
C931   C932    1.429   .     S
C932   O958    1.294   .     A
C932   O957    1.289   .     A
C933   O960    1.305   .     A
C933   O959    1.298   .     A
C933   C935    1.468   .     S
C934   H945    1.084   .     S
C936   H947    1.084   .     S
C936   C937    1.375   .     A
C937   C452    1.399   1_556 S
C938   N967    1.416   .     S
Cu939  O953    1.953   .     S
Cu939  O957    1.950   .     S
Cu939  O959    1.940   .     S
Cu939  O955    1.955   .     S
Cu939  N952    2.026   .     S
Cu939  Cu940   2.697   .     S
Cu940  O958    1.953   .     S
Cu940  O960    1.955   .     S
Cu940  O954    1.950   .     S
Cu940  O956    1.940   .     S
Cu940  N951    2.026   .     S
H942   C607    1.088   1_565 S
H948   C829    1.084   1_655 S
N951   H835    1.029   1_655 S
N951   N844    1.287   1_655 S
N961   C963    1.442   .     S
N961   N844    1.371   1_655 S
N961   H854    1.027   1_655 S
C963   H964    1.110   .     S
C963   H965    1.108   .     S
C963   H858    1.109   1_655 S
N967   H968    1.030   .     S
N967   C969    1.451   .     S
C969   H972    1.111   .     S
C969   H971    1.105   .     S
H970   C861    1.109   1_655 S
