data_str_m2_o10_o16_pcu_sym.85
_audit_creation_date              2020-01-03
_audit_creation_method            'Materials Studio'
_symmetry_space_group_name_H-M    'P1'
_symmetry_Int_Tables_number       1
_symmetry_cell_setting            triclinic
loop_
_symmetry_equiv_pos_as_xyz
  x,y,z
_cell_length_a                    22.4309
_cell_length_b                    26.0322
_cell_length_c                    27.0254
_cell_angle_alpha                 94.6806
_cell_angle_beta                  79.2411
_cell_angle_gamma                 102.7675
loop_
_atom_site_label
_atom_site_type_symbol
_atom_site_fract_x
_atom_site_fract_y
_atom_site_fract_z
_atom_site_U_iso_or_equiv
_atom_site_adp_type
_atom_site_occupancy
C1     C     0.18164   0.26667   0.25168   0.00000  Uiso   1.00
C2     C     0.11785   0.13464   0.39679   0.00000  Uiso   1.00
C3     C     0.19005   0.32262   0.25268   0.00000  Uiso   1.00
C4     C     0.13405   0.15617   0.34552   0.00000  Uiso   1.00
C5     C     0.14330   0.01074   0.24743   0.00000  Uiso   1.00
C6     C     0.15169   0.06667   0.24835   0.00000  Uiso   1.00
C7     C     0.19903   0.16973   0.15327   0.00000  Uiso   1.00
C8     C     0.29160   0.19917   0.02426   0.00000  Uiso   1.00
C9     C     0.21535   0.17145   0.09813   0.00000  Uiso   1.00
C10    C     0.05675   0.10876   0.41407   0.00000  Uiso   1.00
C11    C     0.04002   0.08704   0.46194   0.00000  Uiso   1.00
C12    C     0.14389   0.12804   0.48023   0.00000  Uiso   1.00
C13    C     0.08315   0.09769   0.49468   0.00000  Uiso   1.00
C14    C     0.32778   0.24378   0.32396   0.00000  Uiso   1.00
C15    C     0.03003   0.27789   0.01922   0.00000  Uiso   1.00
C16    C     0.07712   0.17348   0.09385   0.00000  Uiso   1.00
C17    C     0.28906   0.02340   0.44390   0.00000  Uiso   1.00
C18    C     0.16336   0.13756   0.42835   0.00000  Uiso   1.00
C19    C     0.18695   0.14863   0.01421   0.00000  Uiso   1.00
C20    C     0.24940   0.17221   0.49361   0.00000  Uiso   1.00
C21    C     0.26946   0.16843   0.44206   0.00000  Uiso   1.00
C22    C     0.22788   0.14842   0.41031   0.00000  Uiso   1.00
C23    C     0.17002   0.15049   0.06742   0.00000  Uiso   1.00
C24    C     0.27437   0.19740   0.07651   0.00000  Uiso   1.00
Cu25   Cu    0.10710   0.16105   0.24436   0.00000  Uiso   1.00
Cu26   Cu    0.22623   0.17228   0.25565   0.00000  Uiso   1.00
H27    H     0.30661   0.21727   0.10054   0.00000  Uiso   1.00
H28    H     0.02224   0.28323   0.33263   0.00000  Uiso   1.00
H29    H     0.00417   0.21563   0.34843   0.00000  Uiso   1.00
H30    H     0.04675   0.28175   0.05579   0.00000  Uiso   1.00
H31    H     0.32259   0.29659   0.02238   0.00000  Uiso   1.00
H32    H     0.06785   0.30007   0.49150   0.00000  Uiso   1.00
H33    H     0.10089   0.21037   0.11196   0.00000  Uiso   1.00
H34    H     0.03106   0.16030   0.11754   0.00000  Uiso   1.00
H35    H     0.07035   0.18230   0.05620   0.00000  Uiso   1.00
H36    H     0.32397   0.00189   0.42207   0.00000  Uiso   1.00
H37    H     0.26890   0.04346   0.41836   0.00000  Uiso   1.00
H38    H     0.09828   0.32045   0.24228   0.00000  Uiso   1.00
H39    H     0.25066   0.32681   0.46353   0.00000  Uiso   1.00
H40    H     0.32690   0.11836   0.22087   0.00000  Uiso   1.00
H41    H     0.31786   0.18116   0.42594   0.00000  Uiso   1.00
H42    H     0.02272   0.10427   0.38961   0.00000  Uiso   1.00
H43    H     0.06819   0.07941   0.03044   0.00000  Uiso   1.00
H44    H     0.24847   0.13990   0.37215   0.00000  Uiso   1.00
H45    H     0.23513   0.01296   0.25773   0.00000  Uiso   1.00
H46    H     0.27831   0.24649   0.33250   0.00000  Uiso   1.00
N47    N     0.31574   0.18074   0.26416   0.00000  Uiso   1.00
N48    N     0.01759   0.15259   0.23584   0.00000  Uiso   1.00
O49    O     0.12797   0.23807   0.24633   0.00000  Uiso   1.00
O50    O     0.01737   0.22453   0.00207   0.00000  Uiso   1.00
O51    O     0.10948   0.13225   0.09030   0.00000  Uiso   1.00
O52    O     0.31372   0.05967   0.48046   0.00000  Uiso   1.00
O53    O     0.22858   0.24755   0.25587   0.00000  Uiso   1.00
O54    O     0.09181   0.15960   0.31840   0.00000  Uiso   1.00
O55    O     0.19242   0.16908   0.32793   0.00000  Uiso   1.00
O56    O     0.10476   0.08578   0.24414   0.00000  Uiso   1.00
O57    O     0.20536   0.09526   0.25367   0.00000  Uiso   1.00
O58    O     0.14092   0.16425   0.17207   0.00000  Uiso   1.00
O59    O     0.24152   0.17373   0.18161   0.00000  Uiso   1.00
O60    O     0.01291   0.23022   0.27299   0.00000  Uiso   1.00
C61    C     0.51498   0.26667   0.25168   0.00000  Uiso   1.00
C62    C     0.45118   0.13464   0.39679   0.00000  Uiso   1.00
C63    C     0.52338   0.32262   0.25268   0.00000  Uiso   1.00
C64    C     0.46739   0.15617   0.34552   0.00000  Uiso   1.00
C65    C     0.47664   0.01074   0.24743   0.00000  Uiso   1.00
C66    C     0.48503   0.06667   0.24835   0.00000  Uiso   1.00
C67    C     0.53236   0.16973   0.15327   0.00000  Uiso   1.00
C68    C     0.62494   0.19917   0.02426   0.00000  Uiso   1.00
C69    C     0.54868   0.17145   0.09813   0.00000  Uiso   1.00
C70    C     0.39008   0.10876   0.41407   0.00000  Uiso   1.00
C71    C     0.37335   0.08704   0.46194   0.00000  Uiso   1.00
C72    C     0.47722   0.12804   0.48023   0.00000  Uiso   1.00
C73    C     0.41648   0.09769   0.49468   0.00000  Uiso   1.00
C74    C     0.66111   0.24378   0.32396   0.00000  Uiso   1.00
C75    C     0.36336   0.27789   0.01922   0.00000  Uiso   1.00
C76    C     0.41045   0.17348   0.09385   0.00000  Uiso   1.00
C77    C     0.62239   0.02340   0.44390   0.00000  Uiso   1.00
C78    C     0.49669   0.13756   0.42835   0.00000  Uiso   1.00
C79    C     0.52028   0.14863   0.01421   0.00000  Uiso   1.00
C80    C     0.58273   0.17221   0.49361   0.00000  Uiso   1.00
C81    C     0.60280   0.16843   0.44206   0.00000  Uiso   1.00
C82    C     0.56121   0.14842   0.41031   0.00000  Uiso   1.00
C83    C     0.50335   0.15049   0.06742   0.00000  Uiso   1.00
C84    C     0.60770   0.19740   0.07651   0.00000  Uiso   1.00
Cu85   Cu    0.44043   0.16105   0.24436   0.00000  Uiso   1.00
Cu86   Cu    0.55957   0.17228   0.25565   0.00000  Uiso   1.00
H87    H     0.63994   0.21727   0.10054   0.00000  Uiso   1.00
H88    H     0.35557   0.28323   0.33263   0.00000  Uiso   1.00
H89    H     0.33750   0.21563   0.34843   0.00000  Uiso   1.00
H90    H     0.38008   0.28175   0.05579   0.00000  Uiso   1.00
H91    H     0.65592   0.29659   0.02238   0.00000  Uiso   1.00
H92    H     0.40118   0.30007   0.49150   0.00000  Uiso   1.00
H93    H     0.43422   0.21037   0.11196   0.00000  Uiso   1.00
H94    H     0.36439   0.16030   0.11754   0.00000  Uiso   1.00
H95    H     0.40368   0.18230   0.05620   0.00000  Uiso   1.00
H96    H     0.65731   0.00189   0.42207   0.00000  Uiso   1.00
H97    H     0.60224   0.04346   0.41836   0.00000  Uiso   1.00
H98    H     0.43161   0.32045   0.24228   0.00000  Uiso   1.00
H99    H     0.58399   0.32681   0.46353   0.00000  Uiso   1.00
H100   H     0.66023   0.11836   0.22087   0.00000  Uiso   1.00
H101   H     0.65120   0.18116   0.42594   0.00000  Uiso   1.00
H102   H     0.35606   0.10427   0.38961   0.00000  Uiso   1.00
H103   H     0.40152   0.07941   0.03044   0.00000  Uiso   1.00
H104   H     0.58180   0.13990   0.37215   0.00000  Uiso   1.00
H105   H     0.56847   0.01296   0.25773   0.00000  Uiso   1.00
H106   H     0.61165   0.24649   0.33250   0.00000  Uiso   1.00
N107   N     0.64908   0.18074   0.26416   0.00000  Uiso   1.00
N108   N     0.35092   0.15259   0.23584   0.00000  Uiso   1.00
O109   O     0.46131   0.23807   0.24633   0.00000  Uiso   1.00
O110   O     0.35070   0.22453   0.00207   0.00000  Uiso   1.00
O111   O     0.44282   0.13225   0.09030   0.00000  Uiso   1.00
O112   O     0.64705   0.05967   0.48046   0.00000  Uiso   1.00
O113   O     0.56191   0.24755   0.25587   0.00000  Uiso   1.00
O114   O     0.42515   0.15960   0.31840   0.00000  Uiso   1.00
O115   O     0.52575   0.16908   0.32793   0.00000  Uiso   1.00
O116   O     0.43809   0.08578   0.24414   0.00000  Uiso   1.00
O117   O     0.53869   0.09526   0.25367   0.00000  Uiso   1.00
O118   O     0.47425   0.16425   0.17207   0.00000  Uiso   1.00
O119   O     0.57485   0.17373   0.18161   0.00000  Uiso   1.00
O120   O     0.34625   0.23022   0.27299   0.00000  Uiso   1.00
C121   C     0.84831   0.26667   0.25168   0.00000  Uiso   1.00
C122   C     0.78452   0.13464   0.39679   0.00000  Uiso   1.00
C123   C     0.85671   0.32262   0.25268   0.00000  Uiso   1.00
C124   C     0.80072   0.15617   0.34552   0.00000  Uiso   1.00
C125   C     0.80997   0.01074   0.24743   0.00000  Uiso   1.00
C126   C     0.81836   0.06667   0.24835   0.00000  Uiso   1.00
C127   C     0.86570   0.16973   0.15327   0.00000  Uiso   1.00
C128   C     0.95827   0.19917   0.02426   0.00000  Uiso   1.00
C129   C     0.88201   0.17145   0.09813   0.00000  Uiso   1.00
C130   C     0.72342   0.10876   0.41407   0.00000  Uiso   1.00
C131   C     0.70668   0.08704   0.46194   0.00000  Uiso   1.00
C132   C     0.81056   0.12804   0.48023   0.00000  Uiso   1.00
C133   C     0.74981   0.09769   0.49468   0.00000  Uiso   1.00
C134   C     0.99444   0.24378   0.32396   0.00000  Uiso   1.00
C135   C     0.69670   0.27789   0.01922   0.00000  Uiso   1.00
C136   C     0.74378   0.17348   0.09385   0.00000  Uiso   1.00
C137   C     0.95573   0.02340   0.44390   0.00000  Uiso   1.00
C138   C     0.83003   0.13756   0.42835   0.00000  Uiso   1.00
C139   C     0.85362   0.14863   0.01421   0.00000  Uiso   1.00
C140   C     0.91606   0.17221   0.49361   0.00000  Uiso   1.00
C141   C     0.93613   0.16843   0.44206   0.00000  Uiso   1.00
C142   C     0.89454   0.14842   0.41031   0.00000  Uiso   1.00
C143   C     0.83668   0.15049   0.06742   0.00000  Uiso   1.00
C144   C     0.94103   0.19740   0.07651   0.00000  Uiso   1.00
Cu145  Cu    0.77377   0.16105   0.24436   0.00000  Uiso   1.00
Cu146  Cu    0.89290   0.17228   0.25565   0.00000  Uiso   1.00
H147   H     0.97328   0.21727   0.10054   0.00000  Uiso   1.00
H148   H     0.68891   0.28323   0.33263   0.00000  Uiso   1.00
H149   H     0.67084   0.21563   0.34843   0.00000  Uiso   1.00
H150   H     0.71341   0.28175   0.05579   0.00000  Uiso   1.00
H151   H     0.98925   0.29659   0.02238   0.00000  Uiso   1.00
H152   H     0.73451   0.30007   0.49150   0.00000  Uiso   1.00
H153   H     0.76756   0.21037   0.11196   0.00000  Uiso   1.00
H154   H     0.69773   0.16030   0.11754   0.00000  Uiso   1.00
H155   H     0.73701   0.18230   0.05620   0.00000  Uiso   1.00
H156   H     0.99064   0.00189   0.42207   0.00000  Uiso   1.00
H157   H     0.93557   0.04346   0.41836   0.00000  Uiso   1.00
H158   H     0.76495   0.32045   0.24228   0.00000  Uiso   1.00
H159   H     0.91732   0.32681   0.46353   0.00000  Uiso   1.00
H160   H     0.99357   0.11836   0.22087   0.00000  Uiso   1.00
H161   H     0.98453   0.18116   0.42594   0.00000  Uiso   1.00
H162   H     0.68939   0.10427   0.38961   0.00000  Uiso   1.00
H163   H     0.73486   0.07941   0.03044   0.00000  Uiso   1.00
H164   H     0.91513   0.13990   0.37215   0.00000  Uiso   1.00
H165   H     0.90180   0.01296   0.25773   0.00000  Uiso   1.00
H166   H     0.94498   0.24649   0.33250   0.00000  Uiso   1.00
N167   N     0.98241   0.18074   0.26416   0.00000  Uiso   1.00
N168   N     0.68426   0.15259   0.23584   0.00000  Uiso   1.00
O169   O     0.79464   0.23807   0.24633   0.00000  Uiso   1.00
O170   O     0.68404   0.22453   0.00207   0.00000  Uiso   1.00
O171   O     0.77615   0.13225   0.09030   0.00000  Uiso   1.00
O172   O     0.98038   0.05967   0.48046   0.00000  Uiso   1.00
O173   O     0.89524   0.24755   0.25587   0.00000  Uiso   1.00
O174   O     0.75848   0.15960   0.31840   0.00000  Uiso   1.00
O175   O     0.85908   0.16908   0.32793   0.00000  Uiso   1.00
O176   O     0.77142   0.08578   0.24414   0.00000  Uiso   1.00
O177   O     0.87203   0.09526   0.25367   0.00000  Uiso   1.00
O178   O     0.80758   0.16425   0.17207   0.00000  Uiso   1.00
O179   O     0.90819   0.17373   0.18161   0.00000  Uiso   1.00
O180   O     0.67958   0.23022   0.27299   0.00000  Uiso   1.00
C181   C     0.18164   0.60000   0.25168   0.00000  Uiso   1.00
C182   C     0.11785   0.46797   0.39679   0.00000  Uiso   1.00
C183   C     0.19005   0.65596   0.25268   0.00000  Uiso   1.00
C184   C     0.13405   0.48950   0.34552   0.00000  Uiso   1.00
C185   C     0.14330   0.34407   0.24743   0.00000  Uiso   1.00
C186   C     0.15169   0.40000   0.24835   0.00000  Uiso   1.00
C187   C     0.19903   0.50306   0.15327   0.00000  Uiso   1.00
C188   C     0.29160   0.53251   0.02426   0.00000  Uiso   1.00
C189   C     0.21535   0.50478   0.09813   0.00000  Uiso   1.00
C190   C     0.05675   0.44210   0.41407   0.00000  Uiso   1.00
C191   C     0.04002   0.42038   0.46194   0.00000  Uiso   1.00
C192   C     0.14389   0.46137   0.48023   0.00000  Uiso   1.00
C193   C     0.08315   0.43102   0.49468   0.00000  Uiso   1.00
C194   C     0.32778   0.57711   0.32396   0.00000  Uiso   1.00
C195   C     0.03003   0.61123   0.01922   0.00000  Uiso   1.00
C196   C     0.07712   0.50682   0.09385   0.00000  Uiso   1.00
C197   C     0.28906   0.35674   0.44390   0.00000  Uiso   1.00
C198   C     0.16336   0.47090   0.42835   0.00000  Uiso   1.00
C199   C     0.18695   0.48197   0.01421   0.00000  Uiso   1.00
C200   C     0.24940   0.50554   0.49361   0.00000  Uiso   1.00
C201   C     0.26946   0.50176   0.44206   0.00000  Uiso   1.00
C202   C     0.22788   0.48176   0.41031   0.00000  Uiso   1.00
C203   C     0.17002   0.48383   0.06742   0.00000  Uiso   1.00
C204   C     0.27437   0.53073   0.07651   0.00000  Uiso   1.00
Cu205  Cu    0.10710   0.49439   0.24436   0.00000  Uiso   1.00
Cu206  Cu    0.22623   0.50561   0.25565   0.00000  Uiso   1.00
H207   H     0.30661   0.55060   0.10054   0.00000  Uiso   1.00
H208   H     0.02224   0.61657   0.33263   0.00000  Uiso   1.00
H209   H     0.00417   0.54897   0.34843   0.00000  Uiso   1.00
H210   H     0.04675   0.61509   0.05579   0.00000  Uiso   1.00
H211   H     0.32259   0.62992   0.02238   0.00000  Uiso   1.00
H212   H     0.06785   0.63341   0.49150   0.00000  Uiso   1.00
H213   H     0.10089   0.54370   0.11196   0.00000  Uiso   1.00
H214   H     0.03106   0.49363   0.11754   0.00000  Uiso   1.00
H215   H     0.07035   0.51564   0.05620   0.00000  Uiso   1.00
H216   H     0.32397   0.33523   0.42207   0.00000  Uiso   1.00
H217   H     0.26890   0.37680   0.41836   0.00000  Uiso   1.00
H218   H     0.09828   0.65378   0.24228   0.00000  Uiso   1.00
H219   H     0.25066   0.66014   0.46353   0.00000  Uiso   1.00
H220   H     0.32690   0.45169   0.22087   0.00000  Uiso   1.00
H221   H     0.31786   0.51450   0.42594   0.00000  Uiso   1.00
H222   H     0.02272   0.43761   0.38961   0.00000  Uiso   1.00
H223   H     0.06819   0.41274   0.03044   0.00000  Uiso   1.00
H224   H     0.24847   0.47323   0.37215   0.00000  Uiso   1.00
H225   H     0.23513   0.34629   0.25773   0.00000  Uiso   1.00
H226   H     0.27831   0.57982   0.33250   0.00000  Uiso   1.00
N227   N     0.31574   0.51407   0.26416   0.00000  Uiso   1.00
N228   N     0.01759   0.48593   0.23584   0.00000  Uiso   1.00
O229   O     0.12797   0.57141   0.24633   0.00000  Uiso   1.00
O230   O     0.01737   0.55786   0.00207   0.00000  Uiso   1.00
O231   O     0.10948   0.46558   0.09030   0.00000  Uiso   1.00
O232   O     0.31372   0.39300   0.48046   0.00000  Uiso   1.00
O233   O     0.22858   0.58089   0.25587   0.00000  Uiso   1.00
O234   O     0.09181   0.49293   0.31840   0.00000  Uiso   1.00
O235   O     0.19242   0.50241   0.32793   0.00000  Uiso   1.00
O236   O     0.10476   0.41911   0.24414   0.00000  Uiso   1.00
O237   O     0.20536   0.42859   0.25367   0.00000  Uiso   1.00
O238   O     0.14092   0.49759   0.17207   0.00000  Uiso   1.00
O239   O     0.24152   0.50707   0.18161   0.00000  Uiso   1.00
O240   O     0.01291   0.56355   0.27299   0.00000  Uiso   1.00
C241   C     0.51498   0.60000   0.25168   0.00000  Uiso   1.00
C242   C     0.45118   0.46797   0.39679   0.00000  Uiso   1.00
C243   C     0.52338   0.65596   0.25268   0.00000  Uiso   1.00
C244   C     0.46739   0.48950   0.34552   0.00000  Uiso   1.00
C245   C     0.47664   0.34407   0.24743   0.00000  Uiso   1.00
C246   C     0.48503   0.40000   0.24835   0.00000  Uiso   1.00
C247   C     0.53236   0.50306   0.15327   0.00000  Uiso   1.00
C248   C     0.62494   0.53251   0.02426   0.00000  Uiso   1.00
C249   C     0.54868   0.50478   0.09813   0.00000  Uiso   1.00
C250   C     0.39008   0.44210   0.41407   0.00000  Uiso   1.00
C251   C     0.37335   0.42038   0.46194   0.00000  Uiso   1.00
C252   C     0.47722   0.46137   0.48023   0.00000  Uiso   1.00
C253   C     0.41648   0.43102   0.49468   0.00000  Uiso   1.00
C254   C     0.66111   0.57711   0.32396   0.00000  Uiso   1.00
C255   C     0.36336   0.61123   0.01922   0.00000  Uiso   1.00
C256   C     0.41045   0.50682   0.09385   0.00000  Uiso   1.00
C257   C     0.62239   0.35674   0.44390   0.00000  Uiso   1.00
C258   C     0.49669   0.47090   0.42835   0.00000  Uiso   1.00
C259   C     0.52028   0.48197   0.01421   0.00000  Uiso   1.00
C260   C     0.58273   0.50554   0.49361   0.00000  Uiso   1.00
C261   C     0.60280   0.50176   0.44206   0.00000  Uiso   1.00
C262   C     0.56121   0.48176   0.41031   0.00000  Uiso   1.00
C263   C     0.50335   0.48383   0.06742   0.00000  Uiso   1.00
C264   C     0.60770   0.53073   0.07651   0.00000  Uiso   1.00
Cu265  Cu    0.44043   0.49439   0.24436   0.00000  Uiso   1.00
Cu266  Cu    0.55957   0.50561   0.25565   0.00000  Uiso   1.00
H267   H     0.63994   0.55060   0.10054   0.00000  Uiso   1.00
H268   H     0.35557   0.61657   0.33263   0.00000  Uiso   1.00
H269   H     0.33750   0.54897   0.34843   0.00000  Uiso   1.00
H270   H     0.38008   0.61509   0.05579   0.00000  Uiso   1.00
H271   H     0.65592   0.62992   0.02238   0.00000  Uiso   1.00
H272   H     0.40118   0.63341   0.49150   0.00000  Uiso   1.00
H273   H     0.43422   0.54370   0.11196   0.00000  Uiso   1.00
H274   H     0.36439   0.49363   0.11754   0.00000  Uiso   1.00
H275   H     0.40368   0.51564   0.05620   0.00000  Uiso   1.00
H276   H     0.65731   0.33523   0.42207   0.00000  Uiso   1.00
H277   H     0.60224   0.37680   0.41836   0.00000  Uiso   1.00
H278   H     0.43161   0.65378   0.24228   0.00000  Uiso   1.00
H279   H     0.58399   0.66014   0.46353   0.00000  Uiso   1.00
H280   H     0.66023   0.45169   0.22087   0.00000  Uiso   1.00
H281   H     0.65120   0.51450   0.42594   0.00000  Uiso   1.00
H282   H     0.35606   0.43761   0.38961   0.00000  Uiso   1.00
H283   H     0.40152   0.41274   0.03044   0.00000  Uiso   1.00
H284   H     0.58180   0.47323   0.37215   0.00000  Uiso   1.00
H285   H     0.56847   0.34629   0.25773   0.00000  Uiso   1.00
H286   H     0.61165   0.57982   0.33250   0.00000  Uiso   1.00
N287   N     0.64908   0.51407   0.26416   0.00000  Uiso   1.00
N288   N     0.35092   0.48593   0.23584   0.00000  Uiso   1.00
O289   O     0.46131   0.57141   0.24633   0.00000  Uiso   1.00
O290   O     0.35070   0.55786   0.00207   0.00000  Uiso   1.00
O291   O     0.44282   0.46558   0.09030   0.00000  Uiso   1.00
O292   O     0.64705   0.39300   0.48046   0.00000  Uiso   1.00
O293   O     0.56191   0.58089   0.25587   0.00000  Uiso   1.00
O294   O     0.42515   0.49293   0.31840   0.00000  Uiso   1.00
O295   O     0.52575   0.50241   0.32793   0.00000  Uiso   1.00
O296   O     0.43809   0.41911   0.24414   0.00000  Uiso   1.00
O297   O     0.53869   0.42859   0.25367   0.00000  Uiso   1.00
O298   O     0.47425   0.49759   0.17207   0.00000  Uiso   1.00
O299   O     0.57485   0.50707   0.18161   0.00000  Uiso   1.00
O300   O     0.34625   0.56355   0.27299   0.00000  Uiso   1.00
C301   C     0.84831   0.60000   0.25168   0.00000  Uiso   1.00
C302   C     0.78452   0.46797   0.39679   0.00000  Uiso   1.00
C303   C     0.85671   0.65596   0.25268   0.00000  Uiso   1.00
C304   C     0.80072   0.48950   0.34552   0.00000  Uiso   1.00
C305   C     0.80997   0.34407   0.24743   0.00000  Uiso   1.00
C306   C     0.81836   0.40000   0.24835   0.00000  Uiso   1.00
C307   C     0.86570   0.50306   0.15327   0.00000  Uiso   1.00
C308   C     0.95827   0.53251   0.02426   0.00000  Uiso   1.00
C309   C     0.88201   0.50478   0.09813   0.00000  Uiso   1.00
C310   C     0.72342   0.44210   0.41407   0.00000  Uiso   1.00
C311   C     0.70668   0.42038   0.46194   0.00000  Uiso   1.00
C312   C     0.81056   0.46137   0.48023   0.00000  Uiso   1.00
C313   C     0.74981   0.43102   0.49468   0.00000  Uiso   1.00
C314   C     0.99444   0.57711   0.32396   0.00000  Uiso   1.00
C315   C     0.69670   0.61123   0.01922   0.00000  Uiso   1.00
C316   C     0.74378   0.50682   0.09385   0.00000  Uiso   1.00
C317   C     0.95573   0.35674   0.44390   0.00000  Uiso   1.00
C318   C     0.83003   0.47090   0.42835   0.00000  Uiso   1.00
C319   C     0.85362   0.48197   0.01421   0.00000  Uiso   1.00
C320   C     0.91606   0.50554   0.49361   0.00000  Uiso   1.00
C321   C     0.93613   0.50176   0.44206   0.00000  Uiso   1.00
C322   C     0.89454   0.48176   0.41031   0.00000  Uiso   1.00
C323   C     0.83668   0.48383   0.06742   0.00000  Uiso   1.00
C324   C     0.94103   0.53073   0.07651   0.00000  Uiso   1.00
Cu325  Cu    0.77377   0.49439   0.24436   0.00000  Uiso   1.00
Cu326  Cu    0.89290   0.50561   0.25565   0.00000  Uiso   1.00
H327   H     0.97328   0.55060   0.10054   0.00000  Uiso   1.00
H328   H     0.68891   0.61657   0.33263   0.00000  Uiso   1.00
H329   H     0.67084   0.54897   0.34843   0.00000  Uiso   1.00
H330   H     0.71341   0.61509   0.05579   0.00000  Uiso   1.00
H331   H     0.98925   0.62992   0.02238   0.00000  Uiso   1.00
H332   H     0.73451   0.63341   0.49150   0.00000  Uiso   1.00
H333   H     0.76756   0.54370   0.11196   0.00000  Uiso   1.00
H334   H     0.69773   0.49363   0.11754   0.00000  Uiso   1.00
H335   H     0.73701   0.51564   0.05620   0.00000  Uiso   1.00
H336   H     0.99064   0.33523   0.42207   0.00000  Uiso   1.00
H337   H     0.93557   0.37680   0.41836   0.00000  Uiso   1.00
H338   H     0.76495   0.65378   0.24228   0.00000  Uiso   1.00
H339   H     0.91732   0.66014   0.46353   0.00000  Uiso   1.00
H340   H     0.99357   0.45169   0.22087   0.00000  Uiso   1.00
H341   H     0.98453   0.51450   0.42594   0.00000  Uiso   1.00
H342   H     0.68939   0.43761   0.38961   0.00000  Uiso   1.00
H343   H     0.73486   0.41274   0.03044   0.00000  Uiso   1.00
H344   H     0.91513   0.47323   0.37215   0.00000  Uiso   1.00
H345   H     0.90180   0.34629   0.25773   0.00000  Uiso   1.00
H346   H     0.94498   0.57982   0.33250   0.00000  Uiso   1.00
N347   N     0.98241   0.51407   0.26416   0.00000  Uiso   1.00
N348   N     0.68426   0.48593   0.23584   0.00000  Uiso   1.00
O349   O     0.79464   0.57141   0.24633   0.00000  Uiso   1.00
O350   O     0.68404   0.55786   0.00207   0.00000  Uiso   1.00
O351   O     0.77615   0.46558   0.09030   0.00000  Uiso   1.00
O352   O     0.98038   0.39300   0.48046   0.00000  Uiso   1.00
O353   O     0.89524   0.58089   0.25587   0.00000  Uiso   1.00
O354   O     0.75848   0.49293   0.31840   0.00000  Uiso   1.00
O355   O     0.85908   0.50241   0.32793   0.00000  Uiso   1.00
O356   O     0.77142   0.41911   0.24414   0.00000  Uiso   1.00
O357   O     0.87203   0.42859   0.25367   0.00000  Uiso   1.00
O358   O     0.80758   0.49759   0.17207   0.00000  Uiso   1.00
O359   O     0.90819   0.50707   0.18161   0.00000  Uiso   1.00
O360   O     0.67958   0.56355   0.27299   0.00000  Uiso   1.00
C361   C     0.18164   0.93333   0.25168   0.00000  Uiso   1.00
C362   C     0.11785   0.80130   0.39679   0.00000  Uiso   1.00
C363   C     0.19005   0.98929   0.25268   0.00000  Uiso   1.00
C364   C     0.13405   0.82283   0.34552   0.00000  Uiso   1.00
C365   C     0.14330   0.67740   0.24743   0.00000  Uiso   1.00
C366   C     0.15169   0.73333   0.24835   0.00000  Uiso   1.00
C367   C     0.19903   0.83640   0.15327   0.00000  Uiso   1.00
C368   C     0.29160   0.86584   0.02426   0.00000  Uiso   1.00
C369   C     0.21535   0.83811   0.09813   0.00000  Uiso   1.00
C370   C     0.05675   0.77543   0.41407   0.00000  Uiso   1.00
C371   C     0.04002   0.75371   0.46194   0.00000  Uiso   1.00
C372   C     0.14389   0.79471   0.48023   0.00000  Uiso   1.00
C373   C     0.08315   0.76435   0.49468   0.00000  Uiso   1.00
C374   C     0.32778   0.91045   0.32396   0.00000  Uiso   1.00
C375   C     0.03003   0.94456   0.01922   0.00000  Uiso   1.00
C376   C     0.07712   0.84015   0.09385   0.00000  Uiso   1.00
C377   C     0.28906   0.69007   0.44390   0.00000  Uiso   1.00
C378   C     0.16336   0.80423   0.42835   0.00000  Uiso   1.00
C379   C     0.18695   0.81530   0.01421   0.00000  Uiso   1.00
C380   C     0.24940   0.83888   0.49361   0.00000  Uiso   1.00
C381   C     0.26946   0.83510   0.44206   0.00000  Uiso   1.00
C382   C     0.22788   0.81509   0.41031   0.00000  Uiso   1.00
C383   C     0.17002   0.81716   0.06742   0.00000  Uiso   1.00
C384   C     0.27437   0.86406   0.07651   0.00000  Uiso   1.00
Cu385  Cu    0.10710   0.82772   0.24436   0.00000  Uiso   1.00
Cu386  Cu    0.22623   0.83895   0.25565   0.00000  Uiso   1.00
H387   H     0.30661   0.88394   0.10054   0.00000  Uiso   1.00
H388   H     0.02224   0.94990   0.33263   0.00000  Uiso   1.00
H389   H     0.00417   0.88230   0.34843   0.00000  Uiso   1.00
H390   H     0.04675   0.94842   0.05579   0.00000  Uiso   1.00
H391   H     0.32259   0.96326   0.02238   0.00000  Uiso   1.00
H392   H     0.06785   0.96674   0.49150   0.00000  Uiso   1.00
H393   H     0.10089   0.87703   0.11196   0.00000  Uiso   1.00
H394   H     0.03106   0.82696   0.11754   0.00000  Uiso   1.00
H395   H     0.07035   0.84897   0.05620   0.00000  Uiso   1.00
H396   H     0.32397   0.66856   0.42207   0.00000  Uiso   1.00
H397   H     0.26890   0.71013   0.41836   0.00000  Uiso   1.00
H398   H     0.09828   0.98711   0.24228   0.00000  Uiso   1.00
H399   H     0.25066   0.99348   0.46353   0.00000  Uiso   1.00
H400   H     0.32690   0.78502   0.22087   0.00000  Uiso   1.00
H401   H     0.31786   0.84783   0.42594   0.00000  Uiso   1.00
H402   H     0.02272   0.77094   0.38961   0.00000  Uiso   1.00
H403   H     0.06819   0.74607   0.03044   0.00000  Uiso   1.00
H404   H     0.24847   0.80656   0.37215   0.00000  Uiso   1.00
H405   H     0.23513   0.67963   0.25773   0.00000  Uiso   1.00
H406   H     0.27831   0.91315   0.33250   0.00000  Uiso   1.00
N407   N     0.31574   0.84741   0.26416   0.00000  Uiso   1.00
N408   N     0.01759   0.81926   0.23584   0.00000  Uiso   1.00
O409   O     0.12797   0.90474   0.24633   0.00000  Uiso   1.00
O410   O     0.01737   0.89120   0.00207   0.00000  Uiso   1.00
O411   O     0.10948   0.79891   0.09030   0.00000  Uiso   1.00
O412   O     0.31372   0.72633   0.48046   0.00000  Uiso   1.00
O413   O     0.22858   0.91422   0.25587   0.00000  Uiso   1.00
O414   O     0.09181   0.82627   0.31840   0.00000  Uiso   1.00
O415   O     0.19242   0.83575   0.32793   0.00000  Uiso   1.00
O416   O     0.10476   0.75245   0.24414   0.00000  Uiso   1.00
O417   O     0.20536   0.76193   0.25367   0.00000  Uiso   1.00
O418   O     0.14092   0.83092   0.17207   0.00000  Uiso   1.00
O419   O     0.24152   0.84040   0.18161   0.00000  Uiso   1.00
O420   O     0.01291   0.89689   0.27299   0.00000  Uiso   1.00
C421   C     0.51498   0.93333   0.25168   0.00000  Uiso   1.00
C422   C     0.45118   0.80130   0.39679   0.00000  Uiso   1.00
C423   C     0.52338   0.98929   0.25268   0.00000  Uiso   1.00
C424   C     0.46739   0.82283   0.34552   0.00000  Uiso   1.00
C425   C     0.47664   0.67740   0.24743   0.00000  Uiso   1.00
C426   C     0.48503   0.73333   0.24835   0.00000  Uiso   1.00
C427   C     0.53236   0.83640   0.15327   0.00000  Uiso   1.00
C428   C     0.62494   0.86584   0.02426   0.00000  Uiso   1.00
C429   C     0.54868   0.83811   0.09813   0.00000  Uiso   1.00
C430   C     0.39008   0.77543   0.41407   0.00000  Uiso   1.00
C431   C     0.37335   0.75371   0.46194   0.00000  Uiso   1.00
C432   C     0.47722   0.79471   0.48023   0.00000  Uiso   1.00
C433   C     0.41648   0.76435   0.49468   0.00000  Uiso   1.00
C434   C     0.66111   0.91045   0.32396   0.00000  Uiso   1.00
C435   C     0.36336   0.94456   0.01922   0.00000  Uiso   1.00
C436   C     0.41045   0.84015   0.09385   0.00000  Uiso   1.00
C437   C     0.62239   0.69007   0.44390   0.00000  Uiso   1.00
C438   C     0.49669   0.80423   0.42835   0.00000  Uiso   1.00
C439   C     0.52028   0.81530   0.01421   0.00000  Uiso   1.00
C440   C     0.58273   0.83888   0.49361   0.00000  Uiso   1.00
C441   C     0.60280   0.83510   0.44206   0.00000  Uiso   1.00
C442   C     0.56121   0.81509   0.41031   0.00000  Uiso   1.00
C443   C     0.50335   0.81716   0.06742   0.00000  Uiso   1.00
C444   C     0.60770   0.86406   0.07651   0.00000  Uiso   1.00
Cu445  Cu    0.44043   0.82772   0.24436   0.00000  Uiso   1.00
Cu446  Cu    0.55957   0.83895   0.25565   0.00000  Uiso   1.00
H447   H     0.63994   0.88394   0.10054   0.00000  Uiso   1.00
H448   H     0.35557   0.94990   0.33263   0.00000  Uiso   1.00
H449   H     0.33750   0.88230   0.34843   0.00000  Uiso   1.00
H450   H     0.38008   0.94842   0.05579   0.00000  Uiso   1.00
H451   H     0.65592   0.96326   0.02238   0.00000  Uiso   1.00
H452   H     0.40118   0.96674   0.49150   0.00000  Uiso   1.00
H453   H     0.43422   0.87703   0.11196   0.00000  Uiso   1.00
H454   H     0.36439   0.82696   0.11754   0.00000  Uiso   1.00
H455   H     0.40368   0.84897   0.05620   0.00000  Uiso   1.00
H456   H     0.65731   0.66856   0.42207   0.00000  Uiso   1.00
H457   H     0.60224   0.71013   0.41836   0.00000  Uiso   1.00
H458   H     0.43161   0.98711   0.24228   0.00000  Uiso   1.00
H459   H     0.58399   0.99348   0.46353   0.00000  Uiso   1.00
H460   H     0.66023   0.78502   0.22087   0.00000  Uiso   1.00
H461   H     0.65120   0.84783   0.42594   0.00000  Uiso   1.00
H462   H     0.35606   0.77094   0.38961   0.00000  Uiso   1.00
H463   H     0.40152   0.74607   0.03044   0.00000  Uiso   1.00
H464   H     0.58180   0.80656   0.37215   0.00000  Uiso   1.00
H465   H     0.56847   0.67963   0.25773   0.00000  Uiso   1.00
H466   H     0.61165   0.91315   0.33250   0.00000  Uiso   1.00
N467   N     0.64908   0.84741   0.26416   0.00000  Uiso   1.00
N468   N     0.35092   0.81926   0.23584   0.00000  Uiso   1.00
O469   O     0.46131   0.90474   0.24633   0.00000  Uiso   1.00
O470   O     0.35070   0.89120   0.00207   0.00000  Uiso   1.00
O471   O     0.44282   0.79891   0.09030   0.00000  Uiso   1.00
O472   O     0.64705   0.72633   0.48046   0.00000  Uiso   1.00
O473   O     0.56191   0.91422   0.25587   0.00000  Uiso   1.00
O474   O     0.42515   0.82627   0.31840   0.00000  Uiso   1.00
O475   O     0.52575   0.83575   0.32793   0.00000  Uiso   1.00
O476   O     0.43809   0.75245   0.24414   0.00000  Uiso   1.00
O477   O     0.53869   0.76193   0.25367   0.00000  Uiso   1.00
O478   O     0.47425   0.83092   0.17207   0.00000  Uiso   1.00
O479   O     0.57485   0.84040   0.18161   0.00000  Uiso   1.00
O480   O     0.34625   0.89689   0.27299   0.00000  Uiso   1.00
C481   C     0.84831   0.93333   0.25168   0.00000  Uiso   1.00
C482   C     0.78452   0.80130   0.39679   0.00000  Uiso   1.00
C483   C     0.85671   0.98929   0.25268   0.00000  Uiso   1.00
C484   C     0.80072   0.82283   0.34552   0.00000  Uiso   1.00
C485   C     0.80997   0.67740   0.24743   0.00000  Uiso   1.00
C486   C     0.81836   0.73333   0.24835   0.00000  Uiso   1.00
C487   C     0.86570   0.83640   0.15327   0.00000  Uiso   1.00
C488   C     0.95827   0.86584   0.02426   0.00000  Uiso   1.00
C489   C     0.88201   0.83811   0.09813   0.00000  Uiso   1.00
C490   C     0.72342   0.77543   0.41407   0.00000  Uiso   1.00
C491   C     0.70668   0.75371   0.46194   0.00000  Uiso   1.00
C492   C     0.81056   0.79471   0.48023   0.00000  Uiso   1.00
C493   C     0.74981   0.76435   0.49468   0.00000  Uiso   1.00
C494   C     0.99444   0.91045   0.32396   0.00000  Uiso   1.00
C495   C     0.69670   0.94456   0.01922   0.00000  Uiso   1.00
C496   C     0.74378   0.84015   0.09385   0.00000  Uiso   1.00
C497   C     0.95573   0.69007   0.44390   0.00000  Uiso   1.00
C498   C     0.83003   0.80423   0.42835   0.00000  Uiso   1.00
C499   C     0.85362   0.81530   0.01421   0.00000  Uiso   1.00
C500   C     0.91606   0.83888   0.49361   0.00000  Uiso   1.00
C501   C     0.93613   0.83510   0.44206   0.00000  Uiso   1.00
C502   C     0.89454   0.81509   0.41031   0.00000  Uiso   1.00
C503   C     0.83668   0.81716   0.06742   0.00000  Uiso   1.00
C504   C     0.94103   0.86406   0.07651   0.00000  Uiso   1.00
Cu505  Cu    0.77377   0.82772   0.24436   0.00000  Uiso   1.00
Cu506  Cu    0.89290   0.83895   0.25565   0.00000  Uiso   1.00
H507   H     0.97328   0.88394   0.10054   0.00000  Uiso   1.00
H508   H     0.68891   0.94990   0.33263   0.00000  Uiso   1.00
H509   H     0.67084   0.88230   0.34843   0.00000  Uiso   1.00
H510   H     0.71341   0.94842   0.05579   0.00000  Uiso   1.00
H511   H     0.98925   0.96326   0.02238   0.00000  Uiso   1.00
H512   H     0.73451   0.96674   0.49150   0.00000  Uiso   1.00
H513   H     0.76756   0.87703   0.11196   0.00000  Uiso   1.00
H514   H     0.69773   0.82696   0.11754   0.00000  Uiso   1.00
H515   H     0.73701   0.84897   0.05620   0.00000  Uiso   1.00
H516   H     0.99064   0.66856   0.42207   0.00000  Uiso   1.00
H517   H     0.93557   0.71013   0.41836   0.00000  Uiso   1.00
H518   H     0.76495   0.98711   0.24228   0.00000  Uiso   1.00
H519   H     0.91732   0.99348   0.46353   0.00000  Uiso   1.00
H520   H     0.99357   0.78502   0.22087   0.00000  Uiso   1.00
H521   H     0.98453   0.84783   0.42594   0.00000  Uiso   1.00
H522   H     0.68939   0.77094   0.38961   0.00000  Uiso   1.00
H523   H     0.73486   0.74607   0.03044   0.00000  Uiso   1.00
H524   H     0.91513   0.80656   0.37215   0.00000  Uiso   1.00
H525   H     0.90180   0.67963   0.25773   0.00000  Uiso   1.00
H526   H     0.94498   0.91315   0.33250   0.00000  Uiso   1.00
N527   N     0.98241   0.84741   0.26416   0.00000  Uiso   1.00
N528   N     0.68426   0.81926   0.23584   0.00000  Uiso   1.00
O529   O     0.79464   0.90474   0.24633   0.00000  Uiso   1.00
O530   O     0.68404   0.89120   0.00207   0.00000  Uiso   1.00
O531   O     0.77615   0.79891   0.09030   0.00000  Uiso   1.00
O532   O     0.98038   0.72633   0.48046   0.00000  Uiso   1.00
O533   O     0.89524   0.91422   0.25587   0.00000  Uiso   1.00
O534   O     0.75848   0.82627   0.31840   0.00000  Uiso   1.00
O535   O     0.85908   0.83575   0.32793   0.00000  Uiso   1.00
O536   O     0.77142   0.75245   0.24414   0.00000  Uiso   1.00
O537   O     0.87203   0.76193   0.25367   0.00000  Uiso   1.00
O538   O     0.80758   0.83092   0.17207   0.00000  Uiso   1.00
O539   O     0.90819   0.84040   0.18161   0.00000  Uiso   1.00
O540   O     0.67958   0.89689   0.27299   0.00000  Uiso   1.00
C541   C     0.18164   0.26667   0.75168   0.00000  Uiso   1.00
C542   C     0.11785   0.13464   0.89679   0.00000  Uiso   1.00
C543   C     0.19005   0.32262   0.75268   0.00000  Uiso   1.00
C544   C     0.13405   0.15617   0.84552   0.00000  Uiso   1.00
C545   C     0.14330   0.01074   0.74743   0.00000  Uiso   1.00
C546   C     0.15169   0.06667   0.74835   0.00000  Uiso   1.00
C547   C     0.19903   0.16973   0.65327   0.00000  Uiso   1.00
C548   C     0.29160   0.19917   0.52426   0.00000  Uiso   1.00
C549   C     0.21535   0.17145   0.59813   0.00000  Uiso   1.00
C550   C     0.05675   0.10876   0.91407   0.00000  Uiso   1.00
C551   C     0.04002   0.08704   0.96194   0.00000  Uiso   1.00
C552   C     0.14389   0.12804   0.98023   0.00000  Uiso   1.00
C553   C     0.08315   0.09769   0.99468   0.00000  Uiso   1.00
C554   C     0.32778   0.24378   0.82396   0.00000  Uiso   1.00
C555   C     0.03003   0.27789   0.51922   0.00000  Uiso   1.00
C556   C     0.07712   0.17348   0.59385   0.00000  Uiso   1.00
C557   C     0.28906   0.02340   0.94390   0.00000  Uiso   1.00
C558   C     0.16336   0.13756   0.92835   0.00000  Uiso   1.00
C559   C     0.18695   0.14863   0.51421   0.00000  Uiso   1.00
C560   C     0.24940   0.17221   0.99361   0.00000  Uiso   1.00
C561   C     0.26946   0.16843   0.94206   0.00000  Uiso   1.00
C562   C     0.22788   0.14842   0.91031   0.00000  Uiso   1.00
C563   C     0.17002   0.15049   0.56742   0.00000  Uiso   1.00
C564   C     0.27437   0.19740   0.57651   0.00000  Uiso   1.00
Cu565  Cu    0.10710   0.16105   0.74436   0.00000  Uiso   1.00
Cu566  Cu    0.22623   0.17228   0.75565   0.00000  Uiso   1.00
H567   H     0.30661   0.21727   0.60054   0.00000  Uiso   1.00
H568   H     0.02224   0.28323   0.83263   0.00000  Uiso   1.00
H569   H     0.00417   0.21563   0.84843   0.00000  Uiso   1.00
H570   H     0.04675   0.28175   0.55579   0.00000  Uiso   1.00
H571   H     0.32259   0.29659   0.52238   0.00000  Uiso   1.00
H572   H     0.06785   0.30007   0.99150   0.00000  Uiso   1.00
H573   H     0.10089   0.21037   0.61196   0.00000  Uiso   1.00
H574   H     0.03106   0.16030   0.61754   0.00000  Uiso   1.00
H575   H     0.07035   0.18230   0.55620   0.00000  Uiso   1.00
H576   H     0.32397   0.00189   0.92207   0.00000  Uiso   1.00
H577   H     0.26890   0.04346   0.91836   0.00000  Uiso   1.00
H578   H     0.09828   0.32045   0.74228   0.00000  Uiso   1.00
H579   H     0.25066   0.32681   0.96353   0.00000  Uiso   1.00
H580   H     0.32690   0.11836   0.72087   0.00000  Uiso   1.00
H581   H     0.31786   0.18116   0.92594   0.00000  Uiso   1.00
H582   H     0.02272   0.10427   0.88961   0.00000  Uiso   1.00
H583   H     0.06819   0.07941   0.53044   0.00000  Uiso   1.00
H584   H     0.24847   0.13990   0.87215   0.00000  Uiso   1.00
H585   H     0.23513   0.01296   0.75773   0.00000  Uiso   1.00
H586   H     0.27831   0.24649   0.83250   0.00000  Uiso   1.00
N587   N     0.31574   0.18074   0.76416   0.00000  Uiso   1.00
N588   N     0.01759   0.15259   0.73584   0.00000  Uiso   1.00
O589   O     0.12797   0.23807   0.74633   0.00000  Uiso   1.00
O590   O     0.01737   0.22453   0.50207   0.00000  Uiso   1.00
O591   O     0.10948   0.13225   0.59030   0.00000  Uiso   1.00
O592   O     0.31372   0.05967   0.98046   0.00000  Uiso   1.00
O593   O     0.22858   0.24755   0.75587   0.00000  Uiso   1.00
O594   O     0.09181   0.15960   0.81840   0.00000  Uiso   1.00
O595   O     0.19242   0.16908   0.82793   0.00000  Uiso   1.00
O596   O     0.10476   0.08578   0.74414   0.00000  Uiso   1.00
O597   O     0.20536   0.09526   0.75367   0.00000  Uiso   1.00
O598   O     0.14092   0.16425   0.67207   0.00000  Uiso   1.00
O599   O     0.24152   0.17373   0.68161   0.00000  Uiso   1.00
O600   O     0.01291   0.23022   0.77299   0.00000  Uiso   1.00
C601   C     0.51498   0.26667   0.75168   0.00000  Uiso   1.00
C602   C     0.45118   0.13464   0.89679   0.00000  Uiso   1.00
C603   C     0.52338   0.32262   0.75268   0.00000  Uiso   1.00
C604   C     0.46739   0.15617   0.84552   0.00000  Uiso   1.00
C605   C     0.47664   0.01074   0.74743   0.00000  Uiso   1.00
C606   C     0.48503   0.06667   0.74835   0.00000  Uiso   1.00
C607   C     0.53236   0.16973   0.65327   0.00000  Uiso   1.00
C608   C     0.62494   0.19917   0.52426   0.00000  Uiso   1.00
C609   C     0.54868   0.17145   0.59813   0.00000  Uiso   1.00
C610   C     0.39008   0.10876   0.91407   0.00000  Uiso   1.00
C611   C     0.37335   0.08704   0.96194   0.00000  Uiso   1.00
C612   C     0.47722   0.12804   0.98023   0.00000  Uiso   1.00
C613   C     0.41648   0.09769   0.99468   0.00000  Uiso   1.00
C614   C     0.66111   0.24378   0.82396   0.00000  Uiso   1.00
C615   C     0.36336   0.27789   0.51922   0.00000  Uiso   1.00
C616   C     0.41045   0.17348   0.59385   0.00000  Uiso   1.00
C617   C     0.62239   0.02340   0.94390   0.00000  Uiso   1.00
C618   C     0.49669   0.13756   0.92835   0.00000  Uiso   1.00
C619   C     0.52028   0.14863   0.51421   0.00000  Uiso   1.00
C620   C     0.58273   0.17221   0.99361   0.00000  Uiso   1.00
C621   C     0.60280   0.16843   0.94206   0.00000  Uiso   1.00
C622   C     0.56121   0.14842   0.91031   0.00000  Uiso   1.00
C623   C     0.50335   0.15049   0.56742   0.00000  Uiso   1.00
C624   C     0.60770   0.19740   0.57651   0.00000  Uiso   1.00
Cu625  Cu    0.44043   0.16105   0.74436   0.00000  Uiso   1.00
Cu626  Cu    0.55957   0.17228   0.75565   0.00000  Uiso   1.00
H627   H     0.63994   0.21727   0.60054   0.00000  Uiso   1.00
H628   H     0.35557   0.28323   0.83263   0.00000  Uiso   1.00
H629   H     0.33750   0.21563   0.84843   0.00000  Uiso   1.00
H630   H     0.38008   0.28175   0.55579   0.00000  Uiso   1.00
H631   H     0.65592   0.29659   0.52238   0.00000  Uiso   1.00
H632   H     0.40118   0.30007   0.99150   0.00000  Uiso   1.00
H633   H     0.43422   0.21037   0.61196   0.00000  Uiso   1.00
H634   H     0.36439   0.16030   0.61754   0.00000  Uiso   1.00
H635   H     0.40368   0.18230   0.55620   0.00000  Uiso   1.00
H636   H     0.65731   0.00189   0.92207   0.00000  Uiso   1.00
H637   H     0.60224   0.04346   0.91836   0.00000  Uiso   1.00
H638   H     0.43161   0.32045   0.74228   0.00000  Uiso   1.00
H639   H     0.58399   0.32681   0.96353   0.00000  Uiso   1.00
H640   H     0.66023   0.11836   0.72087   0.00000  Uiso   1.00
H641   H     0.65120   0.18116   0.92594   0.00000  Uiso   1.00
H642   H     0.35606   0.10427   0.88961   0.00000  Uiso   1.00
H643   H     0.40152   0.07941   0.53044   0.00000  Uiso   1.00
H644   H     0.58180   0.13990   0.87215   0.00000  Uiso   1.00
H645   H     0.56847   0.01296   0.75773   0.00000  Uiso   1.00
H646   H     0.61165   0.24649   0.83250   0.00000  Uiso   1.00
N647   N     0.64908   0.18074   0.76416   0.00000  Uiso   1.00
N648   N     0.35092   0.15259   0.73584   0.00000  Uiso   1.00
O649   O     0.46131   0.23807   0.74633   0.00000  Uiso   1.00
O650   O     0.35070   0.22453   0.50207   0.00000  Uiso   1.00
O651   O     0.44282   0.13225   0.59030   0.00000  Uiso   1.00
O652   O     0.64705   0.05967   0.98046   0.00000  Uiso   1.00
O653   O     0.56191   0.24755   0.75587   0.00000  Uiso   1.00
O654   O     0.42515   0.15960   0.81840   0.00000  Uiso   1.00
O655   O     0.52575   0.16908   0.82793   0.00000  Uiso   1.00
O656   O     0.43809   0.08578   0.74414   0.00000  Uiso   1.00
O657   O     0.53869   0.09526   0.75367   0.00000  Uiso   1.00
O658   O     0.47425   0.16425   0.67207   0.00000  Uiso   1.00
O659   O     0.57485   0.17373   0.68161   0.00000  Uiso   1.00
O660   O     0.34625   0.23022   0.77299   0.00000  Uiso   1.00
C661   C     0.84831   0.26667   0.75168   0.00000  Uiso   1.00
C662   C     0.78452   0.13464   0.89679   0.00000  Uiso   1.00
C663   C     0.85671   0.32262   0.75268   0.00000  Uiso   1.00
C664   C     0.80072   0.15617   0.84552   0.00000  Uiso   1.00
C665   C     0.80997   0.01074   0.74743   0.00000  Uiso   1.00
C666   C     0.81836   0.06667   0.74835   0.00000  Uiso   1.00
C667   C     0.86570   0.16973   0.65327   0.00000  Uiso   1.00
C668   C     0.95827   0.19917   0.52426   0.00000  Uiso   1.00
C669   C     0.88201   0.17145   0.59813   0.00000  Uiso   1.00
C670   C     0.72342   0.10876   0.91407   0.00000  Uiso   1.00
C671   C     0.70668   0.08704   0.96194   0.00000  Uiso   1.00
C672   C     0.81056   0.12804   0.98023   0.00000  Uiso   1.00
C673   C     0.74981   0.09769   0.99468   0.00000  Uiso   1.00
C674   C     0.99444   0.24378   0.82396   0.00000  Uiso   1.00
C675   C     0.69670   0.27789   0.51922   0.00000  Uiso   1.00
C676   C     0.74378   0.17348   0.59385   0.00000  Uiso   1.00
C677   C     0.95573   0.02340   0.94390   0.00000  Uiso   1.00
C678   C     0.83003   0.13756   0.92835   0.00000  Uiso   1.00
C679   C     0.85362   0.14863   0.51421   0.00000  Uiso   1.00
C680   C     0.91606   0.17221   0.99361   0.00000  Uiso   1.00
C681   C     0.93613   0.16843   0.94206   0.00000  Uiso   1.00
C682   C     0.89454   0.14842   0.91031   0.00000  Uiso   1.00
C683   C     0.83668   0.15049   0.56742   0.00000  Uiso   1.00
C684   C     0.94103   0.19740   0.57651   0.00000  Uiso   1.00
Cu685  Cu    0.77377   0.16105   0.74436   0.00000  Uiso   1.00
Cu686  Cu    0.89290   0.17228   0.75565   0.00000  Uiso   1.00
H687   H     0.97328   0.21727   0.60054   0.00000  Uiso   1.00
H688   H     0.68891   0.28323   0.83263   0.00000  Uiso   1.00
H689   H     0.67084   0.21563   0.84843   0.00000  Uiso   1.00
H690   H     0.71341   0.28175   0.55579   0.00000  Uiso   1.00
H691   H     0.98925   0.29659   0.52238   0.00000  Uiso   1.00
H692   H     0.73451   0.30007   0.99150   0.00000  Uiso   1.00
H693   H     0.76756   0.21037   0.61196   0.00000  Uiso   1.00
H694   H     0.69773   0.16030   0.61754   0.00000  Uiso   1.00
H695   H     0.73701   0.18230   0.55620   0.00000  Uiso   1.00
H696   H     0.99064   0.00189   0.92207   0.00000  Uiso   1.00
H697   H     0.93557   0.04346   0.91836   0.00000  Uiso   1.00
H698   H     0.76495   0.32045   0.74228   0.00000  Uiso   1.00
H699   H     0.91732   0.32681   0.96353   0.00000  Uiso   1.00
H700   H     0.99357   0.11836   0.72087   0.00000  Uiso   1.00
H701   H     0.98453   0.18116   0.92594   0.00000  Uiso   1.00
H702   H     0.68939   0.10427   0.88961   0.00000  Uiso   1.00
H703   H     0.73486   0.07941   0.53044   0.00000  Uiso   1.00
H704   H     0.91513   0.13990   0.87215   0.00000  Uiso   1.00
H705   H     0.90180   0.01296   0.75773   0.00000  Uiso   1.00
H706   H     0.94498   0.24649   0.83250   0.00000  Uiso   1.00
N707   N     0.98241   0.18074   0.76416   0.00000  Uiso   1.00
N708   N     0.68426   0.15259   0.73584   0.00000  Uiso   1.00
O709   O     0.79464   0.23807   0.74633   0.00000  Uiso   1.00
O710   O     0.68404   0.22453   0.50207   0.00000  Uiso   1.00
O711   O     0.77615   0.13225   0.59030   0.00000  Uiso   1.00
O712   O     0.98038   0.05967   0.98046   0.00000  Uiso   1.00
O713   O     0.89524   0.24755   0.75587   0.00000  Uiso   1.00
O714   O     0.75848   0.15960   0.81840   0.00000  Uiso   1.00
O715   O     0.85908   0.16908   0.82793   0.00000  Uiso   1.00
O716   O     0.77142   0.08578   0.74414   0.00000  Uiso   1.00
O717   O     0.87203   0.09526   0.75367   0.00000  Uiso   1.00
O718   O     0.80758   0.16425   0.67207   0.00000  Uiso   1.00
O719   O     0.90819   0.17373   0.68161   0.00000  Uiso   1.00
O720   O     0.67958   0.23022   0.77299   0.00000  Uiso   1.00
C721   C     0.18164   0.60000   0.75168   0.00000  Uiso   1.00
C722   C     0.11785   0.46797   0.89679   0.00000  Uiso   1.00
C723   C     0.19005   0.65596   0.75268   0.00000  Uiso   1.00
C724   C     0.13405   0.48950   0.84552   0.00000  Uiso   1.00
C725   C     0.14330   0.34407   0.74743   0.00000  Uiso   1.00
C726   C     0.15169   0.40000   0.74835   0.00000  Uiso   1.00
C727   C     0.19903   0.50306   0.65327   0.00000  Uiso   1.00
C728   C     0.29160   0.53251   0.52426   0.00000  Uiso   1.00
C729   C     0.21535   0.50478   0.59813   0.00000  Uiso   1.00
C730   C     0.05675   0.44210   0.91407   0.00000  Uiso   1.00
C731   C     0.04002   0.42038   0.96194   0.00000  Uiso   1.00
C732   C     0.14389   0.46137   0.98023   0.00000  Uiso   1.00
C733   C     0.08315   0.43102   0.99468   0.00000  Uiso   1.00
C734   C     0.32778   0.57711   0.82396   0.00000  Uiso   1.00
C735   C     0.03003   0.61123   0.51922   0.00000  Uiso   1.00
C736   C     0.07712   0.50682   0.59385   0.00000  Uiso   1.00
C737   C     0.28906   0.35674   0.94390   0.00000  Uiso   1.00
C738   C     0.16336   0.47090   0.92835   0.00000  Uiso   1.00
C739   C     0.18695   0.48197   0.51421   0.00000  Uiso   1.00
C740   C     0.24940   0.50554   0.99361   0.00000  Uiso   1.00
C741   C     0.26946   0.50176   0.94206   0.00000  Uiso   1.00
C742   C     0.22788   0.48176   0.91031   0.00000  Uiso   1.00
C743   C     0.17002   0.48383   0.56742   0.00000  Uiso   1.00
C744   C     0.27437   0.53073   0.57651   0.00000  Uiso   1.00
Cu745  Cu    0.10710   0.49439   0.74436   0.00000  Uiso   1.00
Cu746  Cu    0.22623   0.50561   0.75565   0.00000  Uiso   1.00
H747   H     0.30661   0.55060   0.60054   0.00000  Uiso   1.00
H748   H     0.02224   0.61657   0.83263   0.00000  Uiso   1.00
H749   H     0.00417   0.54897   0.84843   0.00000  Uiso   1.00
H750   H     0.04675   0.61509   0.55579   0.00000  Uiso   1.00
H751   H     0.32259   0.62992   0.52238   0.00000  Uiso   1.00
H752   H     0.06785   0.63341   0.99150   0.00000  Uiso   1.00
H753   H     0.10089   0.54370   0.61196   0.00000  Uiso   1.00
H754   H     0.03106   0.49363   0.61754   0.00000  Uiso   1.00
H755   H     0.07035   0.51564   0.55620   0.00000  Uiso   1.00
H756   H     0.32397   0.33523   0.92207   0.00000  Uiso   1.00
H757   H     0.26890   0.37680   0.91836   0.00000  Uiso   1.00
H758   H     0.09828   0.65378   0.74228   0.00000  Uiso   1.00
H759   H     0.25066   0.66014   0.96353   0.00000  Uiso   1.00
H760   H     0.32690   0.45169   0.72087   0.00000  Uiso   1.00
H761   H     0.31786   0.51450   0.92594   0.00000  Uiso   1.00
H762   H     0.02272   0.43761   0.88961   0.00000  Uiso   1.00
H763   H     0.06819   0.41274   0.53044   0.00000  Uiso   1.00
H764   H     0.24847   0.47323   0.87215   0.00000  Uiso   1.00
H765   H     0.23513   0.34629   0.75773   0.00000  Uiso   1.00
H766   H     0.27831   0.57982   0.83250   0.00000  Uiso   1.00
N767   N     0.31574   0.51407   0.76416   0.00000  Uiso   1.00
N768   N     0.01759   0.48593   0.73584   0.00000  Uiso   1.00
O769   O     0.12797   0.57141   0.74633   0.00000  Uiso   1.00
O770   O     0.01737   0.55786   0.50207   0.00000  Uiso   1.00
O771   O     0.10948   0.46558   0.59030   0.00000  Uiso   1.00
O772   O     0.31372   0.39300   0.98046   0.00000  Uiso   1.00
O773   O     0.22858   0.58089   0.75587   0.00000  Uiso   1.00
O774   O     0.09181   0.49293   0.81840   0.00000  Uiso   1.00
O775   O     0.19242   0.50241   0.82793   0.00000  Uiso   1.00
O776   O     0.10476   0.41911   0.74414   0.00000  Uiso   1.00
O777   O     0.20536   0.42859   0.75367   0.00000  Uiso   1.00
O778   O     0.14092   0.49759   0.67207   0.00000  Uiso   1.00
O779   O     0.24152   0.50707   0.68161   0.00000  Uiso   1.00
O780   O     0.01291   0.56355   0.77299   0.00000  Uiso   1.00
C781   C     0.51498   0.60000   0.75168   0.00000  Uiso   1.00
C782   C     0.45118   0.46797   0.89679   0.00000  Uiso   1.00
C783   C     0.52338   0.65596   0.75268   0.00000  Uiso   1.00
C784   C     0.46739   0.48950   0.84552   0.00000  Uiso   1.00
C785   C     0.47664   0.34407   0.74743   0.00000  Uiso   1.00
C786   C     0.48503   0.40000   0.74835   0.00000  Uiso   1.00
C787   C     0.53236   0.50306   0.65327   0.00000  Uiso   1.00
C788   C     0.62494   0.53251   0.52426   0.00000  Uiso   1.00
C789   C     0.54868   0.50478   0.59813   0.00000  Uiso   1.00
C790   C     0.39008   0.44210   0.91407   0.00000  Uiso   1.00
C791   C     0.37335   0.42038   0.96194   0.00000  Uiso   1.00
C792   C     0.47722   0.46137   0.98023   0.00000  Uiso   1.00
C793   C     0.41648   0.43102   0.99468   0.00000  Uiso   1.00
C794   C     0.66111   0.57711   0.82396   0.00000  Uiso   1.00
C795   C     0.36336   0.61123   0.51922   0.00000  Uiso   1.00
C796   C     0.41045   0.50682   0.59385   0.00000  Uiso   1.00
C797   C     0.62239   0.35674   0.94390   0.00000  Uiso   1.00
C798   C     0.49669   0.47090   0.92835   0.00000  Uiso   1.00
C799   C     0.52028   0.48197   0.51421   0.00000  Uiso   1.00
C800   C     0.58273   0.50554   0.99361   0.00000  Uiso   1.00
C801   C     0.60280   0.50176   0.94206   0.00000  Uiso   1.00
C802   C     0.56121   0.48176   0.91031   0.00000  Uiso   1.00
C803   C     0.50335   0.48383   0.56742   0.00000  Uiso   1.00
C804   C     0.60770   0.53073   0.57651   0.00000  Uiso   1.00
Cu805  Cu    0.44043   0.49439   0.74436   0.00000  Uiso   1.00
Cu806  Cu    0.55957   0.50561   0.75565   0.00000  Uiso   1.00
H807   H     0.63994   0.55060   0.60054   0.00000  Uiso   1.00
H808   H     0.35557   0.61657   0.83263   0.00000  Uiso   1.00
H809   H     0.33750   0.54897   0.84843   0.00000  Uiso   1.00
H810   H     0.38008   0.61509   0.55579   0.00000  Uiso   1.00
H811   H     0.65592   0.62992   0.52238   0.00000  Uiso   1.00
H812   H     0.40118   0.63341   0.99150   0.00000  Uiso   1.00
H813   H     0.43422   0.54370   0.61196   0.00000  Uiso   1.00
H814   H     0.36439   0.49363   0.61754   0.00000  Uiso   1.00
H815   H     0.40368   0.51564   0.55620   0.00000  Uiso   1.00
H816   H     0.65731   0.33523   0.92207   0.00000  Uiso   1.00
H817   H     0.60224   0.37680   0.91836   0.00000  Uiso   1.00
H818   H     0.43161   0.65378   0.74228   0.00000  Uiso   1.00
H819   H     0.58399   0.66014   0.96353   0.00000  Uiso   1.00
H820   H     0.66023   0.45169   0.72087   0.00000  Uiso   1.00
H821   H     0.65120   0.51450   0.92594   0.00000  Uiso   1.00
H822   H     0.35606   0.43761   0.88961   0.00000  Uiso   1.00
H823   H     0.40152   0.41274   0.53044   0.00000  Uiso   1.00
H824   H     0.58180   0.47323   0.87215   0.00000  Uiso   1.00
H825   H     0.56847   0.34629   0.75773   0.00000  Uiso   1.00
H826   H     0.61165   0.57982   0.83250   0.00000  Uiso   1.00
N827   N     0.64908   0.51407   0.76416   0.00000  Uiso   1.00
N828   N     0.35092   0.48593   0.73584   0.00000  Uiso   1.00
O829   O     0.46131   0.57141   0.74633   0.00000  Uiso   1.00
O830   O     0.35070   0.55786   0.50207   0.00000  Uiso   1.00
O831   O     0.44282   0.46558   0.59030   0.00000  Uiso   1.00
O832   O     0.64705   0.39300   0.98046   0.00000  Uiso   1.00
O833   O     0.56191   0.58089   0.75587   0.00000  Uiso   1.00
O834   O     0.42515   0.49293   0.81840   0.00000  Uiso   1.00
O835   O     0.52575   0.50241   0.82793   0.00000  Uiso   1.00
O836   O     0.43809   0.41911   0.74414   0.00000  Uiso   1.00
O837   O     0.53869   0.42859   0.75367   0.00000  Uiso   1.00
O838   O     0.47425   0.49759   0.67207   0.00000  Uiso   1.00
O839   O     0.57485   0.50707   0.68161   0.00000  Uiso   1.00
O840   O     0.34625   0.56355   0.77299   0.00000  Uiso   1.00
C841   C     0.84831   0.60000   0.75168   0.00000  Uiso   1.00
C842   C     0.78452   0.46797   0.89679   0.00000  Uiso   1.00
C843   C     0.85671   0.65596   0.75268   0.00000  Uiso   1.00
C844   C     0.80072   0.48950   0.84552   0.00000  Uiso   1.00
C845   C     0.80997   0.34407   0.74743   0.00000  Uiso   1.00
C846   C     0.81836   0.40000   0.74835   0.00000  Uiso   1.00
C847   C     0.86570   0.50306   0.65327   0.00000  Uiso   1.00
C848   C     0.95827   0.53251   0.52426   0.00000  Uiso   1.00
C849   C     0.88201   0.50478   0.59813   0.00000  Uiso   1.00
C850   C     0.72342   0.44210   0.91407   0.00000  Uiso   1.00
C851   C     0.70668   0.42038   0.96194   0.00000  Uiso   1.00
C852   C     0.81056   0.46137   0.98023   0.00000  Uiso   1.00
C853   C     0.74981   0.43102   0.99468   0.00000  Uiso   1.00
C854   C     0.99444   0.57711   0.82396   0.00000  Uiso   1.00
C855   C     0.69670   0.61123   0.51922   0.00000  Uiso   1.00
C856   C     0.74378   0.50682   0.59385   0.00000  Uiso   1.00
C857   C     0.95573   0.35674   0.94390   0.00000  Uiso   1.00
C858   C     0.83003   0.47090   0.92835   0.00000  Uiso   1.00
C859   C     0.85362   0.48197   0.51421   0.00000  Uiso   1.00
C860   C     0.91606   0.50554   0.99361   0.00000  Uiso   1.00
C861   C     0.93613   0.50176   0.94206   0.00000  Uiso   1.00
C862   C     0.89454   0.48176   0.91031   0.00000  Uiso   1.00
C863   C     0.83668   0.48383   0.56742   0.00000  Uiso   1.00
C864   C     0.94103   0.53073   0.57651   0.00000  Uiso   1.00
Cu865  Cu    0.77377   0.49439   0.74436   0.00000  Uiso   1.00
Cu866  Cu    0.89290   0.50561   0.75565   0.00000  Uiso   1.00
H867   H     0.97328   0.55060   0.60054   0.00000  Uiso   1.00
H868   H     0.68891   0.61657   0.83263   0.00000  Uiso   1.00
H869   H     0.67084   0.54897   0.84843   0.00000  Uiso   1.00
H870   H     0.71341   0.61509   0.55579   0.00000  Uiso   1.00
H871   H     0.98925   0.62992   0.52238   0.00000  Uiso   1.00
H872   H     0.73451   0.63341   0.99150   0.00000  Uiso   1.00
H873   H     0.76756   0.54370   0.61196   0.00000  Uiso   1.00
H874   H     0.69773   0.49363   0.61754   0.00000  Uiso   1.00
H875   H     0.73701   0.51564   0.55620   0.00000  Uiso   1.00
H876   H     0.99064   0.33523   0.92207   0.00000  Uiso   1.00
H877   H     0.93557   0.37680   0.91836   0.00000  Uiso   1.00
H878   H     0.76495   0.65378   0.74228   0.00000  Uiso   1.00
H879   H     0.91732   0.66014   0.96353   0.00000  Uiso   1.00
H880   H     0.99357   0.45169   0.72087   0.00000  Uiso   1.00
H881   H     0.98453   0.51450   0.92594   0.00000  Uiso   1.00
H882   H     0.68939   0.43761   0.88961   0.00000  Uiso   1.00
H883   H     0.73486   0.41274   0.53044   0.00000  Uiso   1.00
H884   H     0.91513   0.47323   0.87215   0.00000  Uiso   1.00
H885   H     0.90180   0.34629   0.75773   0.00000  Uiso   1.00
H886   H     0.94498   0.57982   0.83250   0.00000  Uiso   1.00
N887   N     0.98241   0.51407   0.76416   0.00000  Uiso   1.00
N888   N     0.68426   0.48593   0.73584   0.00000  Uiso   1.00
O889   O     0.79464   0.57141   0.74633   0.00000  Uiso   1.00
O890   O     0.68404   0.55786   0.50207   0.00000  Uiso   1.00
O891   O     0.77615   0.46558   0.59030   0.00000  Uiso   1.00
O892   O     0.98038   0.39300   0.98046   0.00000  Uiso   1.00
O893   O     0.89524   0.58089   0.75587   0.00000  Uiso   1.00
O894   O     0.75848   0.49293   0.81840   0.00000  Uiso   1.00
O895   O     0.85908   0.50241   0.82793   0.00000  Uiso   1.00
O896   O     0.77142   0.41911   0.74414   0.00000  Uiso   1.00
O897   O     0.87203   0.42859   0.75367   0.00000  Uiso   1.00
O898   O     0.80758   0.49759   0.67207   0.00000  Uiso   1.00
O899   O     0.90819   0.50707   0.68161   0.00000  Uiso   1.00
O900   O     0.67958   0.56355   0.77299   0.00000  Uiso   1.00
C901   C     0.18164   0.93333   0.75168   0.00000  Uiso   1.00
C902   C     0.11785   0.80130   0.89679   0.00000  Uiso   1.00
C903   C     0.19005   0.98929   0.75268   0.00000  Uiso   1.00
C904   C     0.13405   0.82283   0.84552   0.00000  Uiso   1.00
C905   C     0.14330   0.67740   0.74743   0.00000  Uiso   1.00
C906   C     0.15169   0.73333   0.74835   0.00000  Uiso   1.00
C907   C     0.19903   0.83640   0.65327   0.00000  Uiso   1.00
C908   C     0.29160   0.86584   0.52426   0.00000  Uiso   1.00
C909   C     0.21535   0.83811   0.59813   0.00000  Uiso   1.00
C910   C     0.05675   0.77543   0.91407   0.00000  Uiso   1.00
C911   C     0.04002   0.75371   0.96194   0.00000  Uiso   1.00
C912   C     0.14389   0.79471   0.98023   0.00000  Uiso   1.00
C913   C     0.08315   0.76435   0.99468   0.00000  Uiso   1.00
C914   C     0.32778   0.91045   0.82396   0.00000  Uiso   1.00
C915   C     0.03003   0.94456   0.51922   0.00000  Uiso   1.00
C916   C     0.07712   0.84015   0.59385   0.00000  Uiso   1.00
C917   C     0.28906   0.69007   0.94390   0.00000  Uiso   1.00
C918   C     0.16336   0.80423   0.92835   0.00000  Uiso   1.00
C919   C     0.18695   0.81530   0.51421   0.00000  Uiso   1.00
C920   C     0.24940   0.83888   0.99361   0.00000  Uiso   1.00
C921   C     0.26946   0.83510   0.94206   0.00000  Uiso   1.00
C922   C     0.22788   0.81509   0.91031   0.00000  Uiso   1.00
C923   C     0.17002   0.81716   0.56742   0.00000  Uiso   1.00
C924   C     0.27437   0.86406   0.57651   0.00000  Uiso   1.00
Cu925  Cu    0.10710   0.82772   0.74436   0.00000  Uiso   1.00
Cu926  Cu    0.22623   0.83895   0.75565   0.00000  Uiso   1.00
H927   H     0.30661   0.88394   0.60054   0.00000  Uiso   1.00
H928   H     0.02224   0.94990   0.83263   0.00000  Uiso   1.00
H929   H     0.00417   0.88230   0.84843   0.00000  Uiso   1.00
H930   H     0.04675   0.94842   0.55579   0.00000  Uiso   1.00
H931   H     0.32259   0.96326   0.52238   0.00000  Uiso   1.00
H932   H     0.06785   0.96674   0.99150   0.00000  Uiso   1.00
H933   H     0.10089   0.87703   0.61196   0.00000  Uiso   1.00
H934   H     0.03106   0.82696   0.61754   0.00000  Uiso   1.00
H935   H     0.07035   0.84897   0.55620   0.00000  Uiso   1.00
H936   H     0.32397   0.66856   0.92207   0.00000  Uiso   1.00
H937   H     0.26890   0.71013   0.91836   0.00000  Uiso   1.00
H938   H     0.09828   0.98711   0.74228   0.00000  Uiso   1.00
H939   H     0.25066   0.99348   0.96353   0.00000  Uiso   1.00
H940   H     0.32690   0.78502   0.72087   0.00000  Uiso   1.00
H941   H     0.31786   0.84783   0.92594   0.00000  Uiso   1.00
H942   H     0.02272   0.77094   0.88961   0.00000  Uiso   1.00
H943   H     0.06819   0.74607   0.53044   0.00000  Uiso   1.00
H944   H     0.24847   0.80656   0.87215   0.00000  Uiso   1.00
H945   H     0.23513   0.67963   0.75773   0.00000  Uiso   1.00
H946   H     0.27831   0.91315   0.83250   0.00000  Uiso   1.00
N947   N     0.31574   0.84741   0.76416   0.00000  Uiso   1.00
N948   N     0.01759   0.81926   0.73584   0.00000  Uiso   1.00
O949   O     0.12797   0.90474   0.74633   0.00000  Uiso   1.00
O950   O     0.01737   0.89120   0.50207   0.00000  Uiso   1.00
O951   O     0.10948   0.79891   0.59030   0.00000  Uiso   1.00
O952   O     0.31372   0.72633   0.98046   0.00000  Uiso   1.00
O953   O     0.22858   0.91422   0.75587   0.00000  Uiso   1.00
O954   O     0.09181   0.82627   0.81840   0.00000  Uiso   1.00
O955   O     0.19242   0.83575   0.82793   0.00000  Uiso   1.00
O956   O     0.10476   0.75245   0.74414   0.00000  Uiso   1.00
O957   O     0.20536   0.76193   0.75367   0.00000  Uiso   1.00
O958   O     0.14092   0.83092   0.67207   0.00000  Uiso   1.00
O959   O     0.24152   0.84040   0.68161   0.00000  Uiso   1.00
O960   O     0.01291   0.89689   0.77299   0.00000  Uiso   1.00
C961   C     0.51498   0.93333   0.75168   0.00000  Uiso   1.00
C962   C     0.45118   0.80130   0.89679   0.00000  Uiso   1.00
C963   C     0.52338   0.98929   0.75268   0.00000  Uiso   1.00
C964   C     0.46739   0.82283   0.84552   0.00000  Uiso   1.00
C965   C     0.47664   0.67740   0.74743   0.00000  Uiso   1.00
C966   C     0.48503   0.73333   0.74835   0.00000  Uiso   1.00
C967   C     0.53236   0.83640   0.65327   0.00000  Uiso   1.00
C968   C     0.62494   0.86584   0.52426   0.00000  Uiso   1.00
C969   C     0.54868   0.83811   0.59813   0.00000  Uiso   1.00
C970   C     0.39008   0.77543   0.91407   0.00000  Uiso   1.00
C971   C     0.37335   0.75371   0.96194   0.00000  Uiso   1.00
C972   C     0.47722   0.79471   0.98023   0.00000  Uiso   1.00
C973   C     0.41648   0.76435   0.99468   0.00000  Uiso   1.00
C974   C     0.66111   0.91045   0.82396   0.00000  Uiso   1.00
C975   C     0.36336   0.94456   0.51922   0.00000  Uiso   1.00
C976   C     0.41045   0.84015   0.59385   0.00000  Uiso   1.00
C977   C     0.62239   0.69007   0.94390   0.00000  Uiso   1.00
C978   C     0.49669   0.80423   0.92835   0.00000  Uiso   1.00
C979   C     0.52028   0.81530   0.51421   0.00000  Uiso   1.00
C980   C     0.58273   0.83888   0.99361   0.00000  Uiso   1.00
C981   C     0.60280   0.83510   0.94206   0.00000  Uiso   1.00
C982   C     0.56121   0.81509   0.91031   0.00000  Uiso   1.00
C983   C     0.50335   0.81716   0.56742   0.00000  Uiso   1.00
C984   C     0.60770   0.86406   0.57651   0.00000  Uiso   1.00
Cu985  Cu    0.44043   0.82772   0.74436   0.00000  Uiso   1.00
Cu986  Cu    0.55957   0.83895   0.75565   0.00000  Uiso   1.00
H987   H     0.63994   0.88394   0.60054   0.00000  Uiso   1.00
H988   H     0.35557   0.94990   0.83263   0.00000  Uiso   1.00
H989   H     0.33750   0.88230   0.84843   0.00000  Uiso   1.00
H990   H     0.38008   0.94842   0.55579   0.00000  Uiso   1.00
H991   H     0.65592   0.96326   0.52238   0.00000  Uiso   1.00
H992   H     0.40118   0.96674   0.99150   0.00000  Uiso   1.00
H993   H     0.43422   0.87703   0.61196   0.00000  Uiso   1.00
H994   H     0.36439   0.82696   0.61754   0.00000  Uiso   1.00
H995   H     0.40368   0.84897   0.55620   0.00000  Uiso   1.00
H996   H     0.65731   0.66856   0.92207   0.00000  Uiso   1.00
H997   H     0.60224   0.71013   0.91836   0.00000  Uiso   1.00
H998   H     0.43161   0.98711   0.74228   0.00000  Uiso   1.00
H999   H     0.58399   0.99348   0.96353   0.00000  Uiso   1.00
H1000  H     0.66023   0.78502   0.72087   0.00000  Uiso   1.00
H1001  H     0.65120   0.84783   0.92594   0.00000  Uiso   1.00
H1002  H     0.35606   0.77094   0.88961   0.00000  Uiso   1.00
H1003  H     0.40152   0.74607   0.53044   0.00000  Uiso   1.00
H1004  H     0.58180   0.80656   0.87215   0.00000  Uiso   1.00
H1005  H     0.56847   0.67963   0.75773   0.00000  Uiso   1.00
H1006  H     0.61165   0.91315   0.83250   0.00000  Uiso   1.00
N1007  N     0.64908   0.84741   0.76416   0.00000  Uiso   1.00
N1008  N     0.35092   0.81926   0.73584   0.00000  Uiso   1.00
O1009  O     0.46131   0.90474   0.74633   0.00000  Uiso   1.00
O1010  O     0.35070   0.89120   0.50207   0.00000  Uiso   1.00
O1011  O     0.44282   0.79891   0.59030   0.00000  Uiso   1.00
O1012  O     0.64705   0.72633   0.98046   0.00000  Uiso   1.00
O1013  O     0.56191   0.91422   0.75587   0.00000  Uiso   1.00
O1014  O     0.42515   0.82627   0.81840   0.00000  Uiso   1.00
O1015  O     0.52575   0.83575   0.82793   0.00000  Uiso   1.00
O1016  O     0.43809   0.75245   0.74414   0.00000  Uiso   1.00
O1017  O     0.53869   0.76193   0.75367   0.00000  Uiso   1.00
O1018  O     0.47425   0.83092   0.67207   0.00000  Uiso   1.00
O1019  O     0.57485   0.84040   0.68161   0.00000  Uiso   1.00
O1020  O     0.34625   0.89689   0.77299   0.00000  Uiso   1.00
C1021  C     0.84831   0.93333   0.75168   0.00000  Uiso   1.00
C1022  C     0.78452   0.80130   0.89679   0.00000  Uiso   1.00
C1023  C     0.85671   0.98929   0.75268   0.00000  Uiso   1.00
C1024  C     0.80072   0.82283   0.84552   0.00000  Uiso   1.00
C1025  C     0.80997   0.67740   0.74743   0.00000  Uiso   1.00
C1026  C     0.81836   0.73333   0.74835   0.00000  Uiso   1.00
C1027  C     0.86570   0.83640   0.65327   0.00000  Uiso   1.00
C1028  C     0.95827   0.86584   0.52426   0.00000  Uiso   1.00
C1029  C     0.88201   0.83811   0.59813   0.00000  Uiso   1.00
C1030  C     0.72342   0.77543   0.91407   0.00000  Uiso   1.00
C1031  C     0.70668   0.75371   0.96194   0.00000  Uiso   1.00
C1032  C     0.81056   0.79471   0.98023   0.00000  Uiso   1.00
C1033  C     0.74981   0.76435   0.99468   0.00000  Uiso   1.00
C1034  C     0.99444   0.91045   0.82396   0.00000  Uiso   1.00
C1035  C     0.69670   0.94456   0.51922   0.00000  Uiso   1.00
C1036  C     0.74378   0.84015   0.59385   0.00000  Uiso   1.00
C1037  C     0.95573   0.69007   0.94390   0.00000  Uiso   1.00
C1038  C     0.83003   0.80423   0.92835   0.00000  Uiso   1.00
C1039  C     0.85362   0.81530   0.51421   0.00000  Uiso   1.00
C1040  C     0.91606   0.83888   0.99361   0.00000  Uiso   1.00
C1041  C     0.93613   0.83510   0.94206   0.00000  Uiso   1.00
C1042  C     0.89454   0.81509   0.91031   0.00000  Uiso   1.00
C1043  C     0.83668   0.81716   0.56742   0.00000  Uiso   1.00
C1044  C     0.94103   0.86406   0.57651   0.00000  Uiso   1.00
Cu1045 Cu    0.77377   0.82772   0.74436   0.00000  Uiso   1.00
Cu1046 Cu    0.89290   0.83895   0.75565   0.00000  Uiso   1.00
H1047  H     0.97328   0.88394   0.60054   0.00000  Uiso   1.00
H1048  H     0.68891   0.94990   0.83263   0.00000  Uiso   1.00
H1049  H     0.67084   0.88230   0.84843   0.00000  Uiso   1.00
H1050  H     0.71341   0.94842   0.55579   0.00000  Uiso   1.00
H1051  H     0.98925   0.96326   0.52238   0.00000  Uiso   1.00
H1052  H     0.73451   0.96674   0.99150   0.00000  Uiso   1.00
H1053  H     0.76756   0.87703   0.61196   0.00000  Uiso   1.00
H1054  H     0.69773   0.82696   0.61754   0.00000  Uiso   1.00
H1055  H     0.73701   0.84897   0.55620   0.00000  Uiso   1.00
H1056  H     0.99064   0.66856   0.92207   0.00000  Uiso   1.00
H1057  H     0.93557   0.71013   0.91836   0.00000  Uiso   1.00
H1058  H     0.76495   0.98711   0.74228   0.00000  Uiso   1.00
H1059  H     0.91732   0.99348   0.96353   0.00000  Uiso   1.00
H1060  H     0.99357   0.78502   0.72087   0.00000  Uiso   1.00
H1061  H     0.98453   0.84783   0.92594   0.00000  Uiso   1.00
H1062  H     0.68939   0.77094   0.88961   0.00000  Uiso   1.00
H1063  H     0.73486   0.74607   0.53044   0.00000  Uiso   1.00
H1064  H     0.91513   0.80656   0.87215   0.00000  Uiso   1.00
H1065  H     0.90180   0.67963   0.75773   0.00000  Uiso   1.00
H1066  H     0.94498   0.91315   0.83250   0.00000  Uiso   1.00
N1067  N     0.98241   0.84741   0.76416   0.00000  Uiso   1.00
N1068  N     0.68426   0.81926   0.73584   0.00000  Uiso   1.00
O1069  O     0.79464   0.90474   0.74633   0.00000  Uiso   1.00
O1070  O     0.68404   0.89120   0.50207   0.00000  Uiso   1.00
O1071  O     0.77615   0.79891   0.59030   0.00000  Uiso   1.00
O1072  O     0.98038   0.72633   0.98046   0.00000  Uiso   1.00
O1073  O     0.89524   0.91422   0.75587   0.00000  Uiso   1.00
O1074  O     0.75848   0.82627   0.81840   0.00000  Uiso   1.00
O1075  O     0.85908   0.83575   0.82793   0.00000  Uiso   1.00
O1076  O     0.77142   0.75245   0.74414   0.00000  Uiso   1.00
O1077  O     0.87203   0.76193   0.75367   0.00000  Uiso   1.00
O1078  O     0.80758   0.83092   0.67207   0.00000  Uiso   1.00
O1079  O     0.90819   0.84040   0.68161   0.00000  Uiso   1.00
O1080  O     0.67958   0.89689   0.77299   0.00000  Uiso   1.00
loop_
_geom_bond_atom_site_label_1
_geom_bond_atom_site_label_2
_geom_bond_distance
_geom_bond_site_symmetry_2
_ccdc_geom_bond_type
C1     O53     1.286   .     A
C1     O49     1.294   .     A
C1     C3      1.426   .     S
C2     C4      1.488   .     S
C2     C18     1.434   .     A
C2     C10     1.398   .     A
C3     C185    1.326   .     S
C3     H225    1.088   .     S
C4     O55     1.285   .     A
C4     O54     1.323   .     A
C5     C6      1.425   .     S
C5     C363    1.326   1_545 S
C5     H398    1.087   1_545 S
C6     O57     1.294   .     A
C6     O56     1.286   .     A
C7     O58     1.288   .     A
C7     O59     1.312   .     A
C7     C9      1.469   .     S
C8     C24     1.394   .     A
C8     C560    1.407   1_554 S
C8     O110    1.391   .     S
C9     C24     1.389   .     A
C9     C23     1.420   .     A
C10    H42     1.081   .     S
C10    C11     1.407   .     A
C11    C13     1.399   .     A
C11    O172    1.391   1_455 S
C12    C13     1.417   .     A
C12    C18     1.414   .     A
C12    C559    1.444   .     S
C13    H583    1.075   .     S
C14    H46     1.107   .     S
C14    H88     1.109   .     S
C14    H89     1.107   .     S
C14    O120    1.402   .     S
C15    H30     1.110   .     S
C15    O50     1.412   .     S
C15    H151    1.114   1_455 S
C15    H572    1.109   1_554 S
C16    H34     1.108   .     S
C16    H33     1.114   .     S
C16    H35     1.105   .     S
C16    O51     1.411   .     S
C17    H36     1.115   .     S
C17    H37     1.110   .     S
C17    O52     1.412   .     S
C17    H399    1.109   1_545 S
C18    C22     1.411   .     A
C19    C23     1.417   .     A
C19    C552    1.444   1_554 S
C19    C560    1.426   1_554 S
C20    C21     1.384   .     A
C20    C559    1.426   .     S
C20    C548    1.407   .     S
C21    C22     1.374   .     A
C21    H41     1.080   .     S
C22    H44     1.075   .     S
C23    O51     1.379   .     S
C24    H27     1.080   .     S
Cu25   O56     1.948   .     S
Cu25   Cu26    2.695   .     S
Cu25   N48     2.025   .     S
Cu25   O54     1.968   .     S
Cu25   O49     1.954   .     S
Cu25   O58     1.961   .     S
Cu26   O59     1.968   .     S
Cu26   O55     1.961   .     S
Cu26   N47     2.025   .     S
Cu26   O57     1.954   .     S
Cu26   O53     1.948   .     S
H28    C134    1.109   1_455 S
H29    C134    1.107   1_455 S
H31    C75     1.114   .     S
H32    C555    1.109   .     S
H38    C185    1.087   .     S
H39    C197    1.109   .     S
H40    N108    1.029   .     S
H43    C553    1.075   1_554 S
H45    C363    1.088   1_545 S
N47    N108    1.298   .     S
N47    O120    1.344   .     S
N48    H160    1.029   1_455 S
N48    N167    1.298   1_455 S
O50    C128    1.391   1_455 S
O52    C71     1.391   .     S
O60    C134    1.402   1_455 S
O60    N167    1.344   1_455 S
C61    O113    1.286   .     A
C61    O109    1.294   .     A
C61    C63     1.426   .     S
C62    C64     1.488   .     S
C62    C78     1.434   .     A
C62    C70     1.398   .     A
C63    C245    1.326   .     S
C63    H285    1.088   .     S
C64    O115    1.285   .     A
C64    O114    1.323   .     A
C65    C66     1.425   .     S
C65    C423    1.326   1_545 S
C65    H458    1.087   1_545 S
C66    O117    1.294   .     A
C66    O116    1.286   .     A
C67    O118    1.288   .     A
C67    O119    1.312   .     A
C67    C69     1.469   .     S
C68    C84     1.394   .     A
C68    C620    1.407   1_554 S
C68    O170    1.391   .     S
C69    C84     1.389   .     A
C69    C83     1.420   .     A
C70    H102    1.081   .     S
C70    C71     1.407   .     A
C71    C73     1.399   .     A
C72    C73     1.417   .     A
C72    C78     1.414   .     A
C72    C619    1.444   .     S
C73    H643    1.075   .     S
C74    H106    1.107   .     S
C74    H148    1.109   .     S
C74    H149    1.107   .     S
C74    O180    1.402   .     S
C75    H90     1.110   .     S
C75    O110    1.412   .     S
C75    H632    1.109   1_554 S
C76    H94     1.108   .     S
C76    H93     1.114   .     S
C76    H95     1.105   .     S
C76    O111    1.411   .     S
C77    H96     1.115   .     S
C77    H97     1.110   .     S
C77    O112    1.412   .     S
C77    H459    1.109   1_545 S
C78    C82     1.411   .     A
C79    C83     1.417   .     A
C79    C612    1.444   1_554 S
C79    C620    1.426   1_554 S
C80    C81     1.384   .     A
C80    C619    1.426   .     S
C80    C608    1.407   .     S
C81    C82     1.374   .     A
C81    H101    1.080   .     S
C82    H104    1.075   .     S
C83    O111    1.379   .     S
C84    H87     1.080   .     S
Cu85   O116    1.948   .     S
Cu85   Cu86    2.695   .     S
Cu85   N108    2.025   .     S
Cu85   O114    1.968   .     S
Cu85   O109    1.954   .     S
Cu85   O118    1.961   .     S
Cu86   O119    1.968   .     S
Cu86   O115    1.961   .     S
Cu86   N107    2.025   .     S
Cu86   O117    1.954   .     S
Cu86   O113    1.948   .     S
H91    C135    1.114   .     S
H92    C615    1.109   .     S
H98    C245    1.087   .     S
H99    C257    1.109   .     S
H100   N168    1.029   .     S
H103   C613    1.075   1_554 S
H105   C423    1.088   1_545 S
N107   N168    1.298   .     S
N107   O180    1.344   .     S
O112   C131    1.391   .     S
C121   O173    1.286   .     A
C121   O169    1.294   .     A
C121   C123    1.426   .     S
C122   C124    1.488   .     S
C122   C138    1.434   .     A
C122   C130    1.398   .     A
C123   C305    1.326   .     S
C123   H345    1.088   .     S
C124   O175    1.285   .     A
C124   O174    1.323   .     A
C125   C126    1.425   .     S
C125   C483    1.326   1_545 S
C125   H518    1.087   1_545 S
C126   O177    1.294   .     A
C126   O176    1.286   .     A
C127   O178    1.288   .     A
C127   O179    1.312   .     A
C127   C129    1.469   .     S
C128   C144    1.394   .     A
C128   C680    1.407   1_554 S
C128   O50     1.391   1_655 S
C129   C144    1.389   .     A
C129   C143    1.420   .     A
C130   H162    1.081   .     S
C130   C131    1.407   .     A
C131   C133    1.399   .     A
C132   C133    1.417   .     A
C132   C138    1.414   .     A
C132   C679    1.444   .     S
C133   H703    1.075   .     S
C134   H166    1.107   .     S
C134   H28     1.109   1_655 S
C134   H29     1.107   1_655 S
C134   O60     1.402   1_655 S
C135   H150    1.110   .     S
C135   O170    1.412   .     S
C135   H692    1.109   1_554 S
C136   H154    1.108   .     S
C136   H153    1.114   .     S
C136   H155    1.105   .     S
C136   O171    1.411   .     S
C137   H156    1.115   .     S
C137   H157    1.110   .     S
C137   O172    1.412   .     S
C137   H519    1.109   1_545 S
C138   C142    1.411   .     A
C139   C143    1.417   .     A
C139   C672    1.444   1_554 S
C139   C680    1.426   1_554 S
C140   C141    1.384   .     A
C140   C679    1.426   .     S
C140   C668    1.407   .     S
C141   C142    1.374   .     A
C141   H161    1.080   .     S
C142   H164    1.075   .     S
C143   O171    1.379   .     S
C144   H147    1.080   .     S
Cu145  O176    1.948   .     S
Cu145  Cu146   2.695   .     S
Cu145  N168    2.025   .     S
Cu145  O174    1.968   .     S
Cu145  O169    1.954   .     S
Cu145  O178    1.961   .     S
Cu146  O179    1.968   .     S
Cu146  O175    1.961   .     S
Cu146  N167    2.025   .     S
Cu146  O177    1.954   .     S
Cu146  O173    1.948   .     S
H151   C15     1.114   1_655 S
H152   C675    1.109   .     S
H158   C305    1.087   .     S
H159   C317    1.109   .     S
H160   N48     1.029   1_655 S
H163   C673    1.075   1_554 S
H165   C483    1.088   1_545 S
N167   N48     1.298   1_655 S
N167   O60     1.344   1_655 S
O172   C11     1.391   1_655 S
C181   O233    1.286   .     A
C181   O229    1.294   .     A
C181   C183    1.426   .     S
C182   C184    1.488   .     S
C182   C198    1.434   .     A
C182   C190    1.398   .     A
C183   C365    1.326   .     S
C183   H405    1.088   .     S
C184   O235    1.285   .     A
C184   O234    1.323   .     A
C185   C186    1.425   .     S
C186   O237    1.294   .     A
C186   O236    1.286   .     A
C187   O238    1.288   .     A
C187   O239    1.312   .     A
C187   C189    1.469   .     S
C188   C204    1.394   .     A
C188   C740    1.407   1_554 S
C188   O290    1.391   .     S
C189   C204    1.389   .     A
C189   C203    1.420   .     A
C190   H222    1.081   .     S
C190   C191    1.407   .     A
C191   C193    1.399   .     A
C191   O352    1.391   1_455 S
C192   C193    1.417   .     A
C192   C198    1.414   .     A
C192   C739    1.444   .     S
C193   H763    1.075   .     S
C194   H226    1.107   .     S
C194   H268    1.109   .     S
C194   H269    1.107   .     S
C194   O300    1.402   .     S
C195   H210    1.110   .     S
C195   O230    1.412   .     S
C195   H331    1.114   1_455 S
C195   H752    1.109   1_554 S
C196   H214    1.108   .     S
C196   H213    1.114   .     S
C196   H215    1.105   .     S
C196   O231    1.411   .     S
C197   H216    1.115   .     S
C197   H217    1.110   .     S
C197   O232    1.412   .     S
C198   C202    1.411   .     A
C199   C203    1.417   .     A
C199   C732    1.444   1_554 S
C199   C740    1.426   1_554 S
C200   C201    1.384   .     A
C200   C739    1.426   .     S
C200   C728    1.407   .     S
C201   C202    1.374   .     A
C201   H221    1.080   .     S
C202   H224    1.075   .     S
C203   O231    1.379   .     S
C204   H207    1.080   .     S
Cu205  O236    1.948   .     S
Cu205  Cu206   2.695   .     S
Cu205  N228    2.025   .     S
Cu205  O234    1.968   .     S
Cu205  O229    1.954   .     S
Cu205  O238    1.961   .     S
Cu206  O239    1.968   .     S
Cu206  O235    1.961   .     S
Cu206  N227    2.025   .     S
Cu206  O237    1.954   .     S
Cu206  O233    1.948   .     S
H208   C314    1.109   1_455 S
H209   C314    1.107   1_455 S
H211   C255    1.114   .     S
H212   C735    1.109   .     S
H218   C365    1.087   .     S
H219   C377    1.109   .     S
H220   N288    1.029   .     S
H223   C733    1.075   1_554 S
N227   N288    1.298   .     S
N227   O300    1.344   .     S
N228   H340    1.029   1_455 S
N228   N347    1.298   1_455 S
O230   C308    1.391   1_455 S
O232   C251    1.391   .     S
O240   C314    1.402   1_455 S
O240   N347    1.344   1_455 S
C241   O293    1.286   .     A
C241   O289    1.294   .     A
C241   C243    1.426   .     S
C242   C244    1.488   .     S
C242   C258    1.434   .     A
C242   C250    1.398   .     A
C243   C425    1.326   .     S
C243   H465    1.088   .     S
C244   O295    1.285   .     A
C244   O294    1.323   .     A
C245   C246    1.425   .     S
C246   O297    1.294   .     A
C246   O296    1.286   .     A
C247   O298    1.288   .     A
C247   O299    1.312   .     A
C247   C249    1.469   .     S
C248   C264    1.394   .     A
C248   C800    1.407   1_554 S
C248   O350    1.391   .     S
C249   C264    1.389   .     A
C249   C263    1.420   .     A
C250   H282    1.081   .     S
C250   C251    1.407   .     A
C251   C253    1.399   .     A
C252   C253    1.417   .     A
C252   C258    1.414   .     A
C252   C799    1.444   .     S
C253   H823    1.075   .     S
C254   H286    1.107   .     S
C254   H328    1.109   .     S
C254   H329    1.107   .     S
C254   O360    1.402   .     S
C255   H270    1.110   .     S
C255   O290    1.412   .     S
C255   H812    1.109   1_554 S
C256   H274    1.108   .     S
C256   H273    1.114   .     S
C256   H275    1.105   .     S
C256   O291    1.411   .     S
C257   H276    1.115   .     S
C257   H277    1.110   .     S
C257   O292    1.412   .     S
C258   C262    1.411   .     A
C259   C263    1.417   .     A
C259   C792    1.444   1_554 S
C259   C800    1.426   1_554 S
C260   C261    1.384   .     A
C260   C799    1.426   .     S
C260   C788    1.407   .     S
C261   C262    1.374   .     A
C261   H281    1.080   .     S
C262   H284    1.075   .     S
C263   O291    1.379   .     S
C264   H267    1.080   .     S
Cu265  O296    1.948   .     S
Cu265  Cu266   2.695   .     S
Cu265  N288    2.025   .     S
Cu265  O294    1.968   .     S
Cu265  O289    1.954   .     S
Cu265  O298    1.961   .     S
Cu266  O299    1.968   .     S
Cu266  O295    1.961   .     S
Cu266  N287    2.025   .     S
Cu266  O297    1.954   .     S
Cu266  O293    1.948   .     S
H271   C315    1.114   .     S
H272   C795    1.109   .     S
H278   C425    1.087   .     S
H279   C437    1.109   .     S
H280   N348    1.029   .     S
H283   C793    1.075   1_554 S
N287   N348    1.298   .     S
N287   O360    1.344   .     S
O292   C311    1.391   .     S
C301   O353    1.286   .     A
C301   O349    1.294   .     A
C301   C303    1.426   .     S
C302   C304    1.488   .     S
C302   C318    1.434   .     A
C302   C310    1.398   .     A
C303   C485    1.326   .     S
C303   H525    1.088   .     S
C304   O355    1.285   .     A
C304   O354    1.323   .     A
C305   C306    1.425   .     S
C306   O357    1.294   .     A
C306   O356    1.286   .     A
C307   O358    1.288   .     A
C307   O359    1.312   .     A
C307   C309    1.469   .     S
C308   C324    1.394   .     A
C308   C860    1.407   1_554 S
C308   O230    1.391   1_655 S
C309   C324    1.389   .     A
C309   C323    1.420   .     A
C310   H342    1.081   .     S
C310   C311    1.407   .     A
C311   C313    1.399   .     A
C312   C313    1.417   .     A
C312   C318    1.414   .     A
C312   C859    1.444   .     S
C313   H883    1.075   .     S
C314   H346    1.107   .     S
C314   H208    1.109   1_655 S
C314   H209    1.107   1_655 S
C314   O240    1.402   1_655 S
C315   H330    1.110   .     S
C315   O350    1.412   .     S
C315   H872    1.109   1_554 S
C316   H334    1.108   .     S
C316   H333    1.114   .     S
C316   H335    1.105   .     S
C316   O351    1.411   .     S
C317   H336    1.115   .     S
C317   H337    1.110   .     S
C317   O352    1.412   .     S
C318   C322    1.411   .     A
C319   C323    1.417   .     A
C319   C852    1.444   1_554 S
C319   C860    1.426   1_554 S
C320   C321    1.384   .     A
C320   C859    1.426   .     S
C320   C848    1.407   .     S
C321   C322    1.374   .     A
C321   H341    1.080   .     S
C322   H344    1.075   .     S
C323   O351    1.379   .     S
C324   H327    1.080   .     S
Cu325  O356    1.948   .     S
Cu325  Cu326   2.695   .     S
Cu325  N348    2.025   .     S
Cu325  O354    1.968   .     S
Cu325  O349    1.954   .     S
Cu325  O358    1.961   .     S
Cu326  O359    1.968   .     S
Cu326  O355    1.961   .     S
Cu326  N347    2.025   .     S
Cu326  O357    1.954   .     S
Cu326  O353    1.948   .     S
H331   C195    1.114   1_655 S
H332   C855    1.109   .     S
H338   C485    1.087   .     S
H339   C497    1.109   .     S
H340   N228    1.029   1_655 S
H343   C853    1.075   1_554 S
N347   N228    1.298   1_655 S
N347   O240    1.344   1_655 S
O352   C191    1.391   1_655 S
C361   O413    1.286   .     A
C361   O409    1.294   .     A
C361   C363    1.426   .     S
C362   C364    1.488   .     S
C362   C378    1.434   .     A
C362   C370    1.398   .     A
C363   C5      1.326   1_565 S
C363   H45     1.088   1_565 S
C364   O415    1.285   .     A
C364   O414    1.323   .     A
C365   C366    1.425   .     S
C366   O417    1.294   .     A
C366   O416    1.286   .     A
C367   O418    1.288   .     A
C367   O419    1.312   .     A
C367   C369    1.469   .     S
C368   C384    1.394   .     A
C368   C920    1.407   1_554 S
C368   O470    1.391   .     S
C369   C384    1.389   .     A
C369   C383    1.420   .     A
C370   H402    1.081   .     S
C370   C371    1.407   .     A
C371   C373    1.399   .     A
C371   O532    1.391   1_455 S
C372   C373    1.417   .     A
C372   C378    1.414   .     A
C372   C919    1.444   .     S
C373   H943    1.075   .     S
C374   H406    1.107   .     S
C374   H448    1.109   .     S
C374   H449    1.107   .     S
C374   O480    1.402   .     S
C375   H390    1.110   .     S
C375   O410    1.412   .     S
C375   H511    1.114   1_455 S
C375   H932    1.109   1_554 S
C376   H394    1.108   .     S
C376   H393    1.114   .     S
C376   H395    1.105   .     S
C376   O411    1.411   .     S
C377   H396    1.115   .     S
C377   H397    1.110   .     S
C377   O412    1.412   .     S
C378   C382    1.411   .     A
C379   C383    1.417   .     A
C379   C912    1.444   1_554 S
C379   C920    1.426   1_554 S
C380   C381    1.384   .     A
C380   C919    1.426   .     S
C380   C908    1.407   .     S
C381   C382    1.374   .     A
C381   H401    1.080   .     S
C382   H404    1.075   .     S
C383   O411    1.379   .     S
C384   H387    1.080   .     S
Cu385  O416    1.948   .     S
Cu385  Cu386   2.695   .     S
Cu385  N408    2.025   .     S
Cu385  O414    1.968   .     S
Cu385  O409    1.954   .     S
Cu385  O418    1.961   .     S
Cu386  O419    1.968   .     S
Cu386  O415    1.961   .     S
Cu386  N407    2.025   .     S
Cu386  O417    1.954   .     S
Cu386  O413    1.948   .     S
H388   C494    1.109   1_455 S
H389   C494    1.107   1_455 S
H391   C435    1.114   .     S
H392   C915    1.109   .     S
H398   C5      1.087   1_565 S
H399   C17     1.109   1_565 S
H400   N468    1.029   .     S
H403   C913    1.075   1_554 S
N407   N468    1.298   .     S
N407   O480    1.344   .     S
N408   H520    1.029   1_455 S
N408   N527    1.298   1_455 S
O410   C488    1.391   1_455 S
O412   C431    1.391   .     S
O420   C494    1.402   1_455 S
O420   N527    1.344   1_455 S
C421   O473    1.286   .     A
C421   O469    1.294   .     A
C421   C423    1.426   .     S
C422   C424    1.488   .     S
C422   C438    1.434   .     A
C422   C430    1.398   .     A
C423   C65     1.326   1_565 S
C423   H105    1.088   1_565 S
C424   O475    1.285   .     A
C424   O474    1.323   .     A
C425   C426    1.425   .     S
C426   O477    1.294   .     A
C426   O476    1.286   .     A
C427   O478    1.288   .     A
C427   O479    1.312   .     A
C427   C429    1.469   .     S
C428   C444    1.394   .     A
C428   C980    1.407   1_554 S
C428   O530    1.391   .     S
C429   C444    1.389   .     A
C429   C443    1.420   .     A
C430   H462    1.081   .     S
C430   C431    1.407   .     A
C431   C433    1.399   .     A
C432   C433    1.417   .     A
C432   C438    1.414   .     A
C432   C979    1.444   .     S
C433   H1003   1.075   .     S
C434   H466    1.107   .     S
C434   H508    1.109   .     S
C434   H509    1.107   .     S
C434   O540    1.402   .     S
C435   H450    1.110   .     S
C435   O470    1.412   .     S
C435   H992    1.109   1_554 S
C436   H454    1.108   .     S
C436   H453    1.114   .     S
C436   H455    1.105   .     S
C436   O471    1.411   .     S
C437   H456    1.115   .     S
C437   H457    1.110   .     S
C437   O472    1.412   .     S
C438   C442    1.411   .     A
C439   C443    1.417   .     A
C439   C972    1.444   1_554 S
C439   C980    1.426   1_554 S
C440   C441    1.384   .     A
C440   C979    1.426   .     S
C440   C968    1.407   .     S
C441   C442    1.374   .     A
C441   H461    1.080   .     S
C442   H464    1.075   .     S
C443   O471    1.379   .     S
C444   H447    1.080   .     S
Cu445  O476    1.948   .     S
Cu445  Cu446   2.695   .     S
Cu445  N468    2.025   .     S
Cu445  O474    1.968   .     S
Cu445  O469    1.954   .     S
Cu445  O478    1.961   .     S
Cu446  O479    1.968   .     S
Cu446  O475    1.961   .     S
Cu446  N467    2.025   .     S
Cu446  O477    1.954   .     S
Cu446  O473    1.948   .     S
H451   C495    1.114   .     S
H452   C975    1.109   .     S
H458   C65     1.087   1_565 S
H459   C77     1.109   1_565 S
H460   N528    1.029   .     S
H463   C973    1.075   1_554 S
N467   N528    1.298   .     S
N467   O540    1.344   .     S
O472   C491    1.391   .     S
C481   O533    1.286   .     A
C481   O529    1.294   .     A
C481   C483    1.426   .     S
C482   C484    1.488   .     S
C482   C498    1.434   .     A
C482   C490    1.398   .     A
C483   C125    1.326   1_565 S
C483   H165    1.088   1_565 S
C484   O535    1.285   .     A
C484   O534    1.323   .     A
C485   C486    1.425   .     S
C486   O537    1.294   .     A
C486   O536    1.286   .     A
C487   O538    1.288   .     A
C487   O539    1.312   .     A
C487   C489    1.469   .     S
C488   C504    1.394   .     A
C488   C1040   1.407   1_554 S
C488   O410    1.391   1_655 S
C489   C504    1.389   .     A
C489   C503    1.420   .     A
C490   H522    1.081   .     S
C490   C491    1.407   .     A
C491   C493    1.399   .     A
C492   C493    1.417   .     A
C492   C498    1.414   .     A
C492   C1039   1.444   .     S
C493   H1063   1.075   .     S
C494   H526    1.107   .     S
C494   H388    1.109   1_655 S
C494   H389    1.107   1_655 S
C494   O420    1.402   1_655 S
C495   H510    1.110   .     S
C495   O530    1.412   .     S
C495   H1052   1.109   1_554 S
C496   H514    1.108   .     S
C496   H513    1.114   .     S
C496   H515    1.105   .     S
C496   O531    1.411   .     S
C497   H516    1.115   .     S
C497   H517    1.110   .     S
C497   O532    1.412   .     S
C498   C502    1.411   .     A
C499   C503    1.417   .     A
C499   C1032   1.444   1_554 S
C499   C1040   1.426   1_554 S
C500   C501    1.384   .     A
C500   C1039   1.426   .     S
C500   C1028   1.407   .     S
C501   C502    1.374   .     A
C501   H521    1.080   .     S
C502   H524    1.075   .     S
C503   O531    1.379   .     S
C504   H507    1.080   .     S
Cu505  O536    1.948   .     S
Cu505  Cu506   2.695   .     S
Cu505  N528    2.025   .     S
Cu505  O534    1.968   .     S
Cu505  O529    1.954   .     S
Cu505  O538    1.961   .     S
Cu506  O539    1.968   .     S
Cu506  O535    1.961   .     S
Cu506  N527    2.025   .     S
Cu506  O537    1.954   .     S
Cu506  O533    1.948   .     S
H511   C375    1.114   1_655 S
H512   C1035   1.109   .     S
H518   C125    1.087   1_565 S
H519   C137    1.109   1_565 S
H520   N408    1.029   1_655 S
H523   C1033   1.075   1_554 S
N527   N408    1.298   1_655 S
N527   O420    1.344   1_655 S
O532   C371    1.391   1_655 S
C541   O593    1.286   .     A
C541   O589    1.294   .     A
C541   C543    1.426   .     S
C542   C544    1.488   .     S
C542   C558    1.434   .     A
C542   C550    1.398   .     A
C543   C725    1.326   .     S
C543   H765    1.088   .     S
C544   O595    1.285   .     A
C544   O594    1.323   .     A
C545   C546    1.425   .     S
C545   C903    1.326   1_545 S
C545   H938    1.087   1_545 S
C546   O597    1.294   .     A
C546   O596    1.286   .     A
C547   O598    1.288   .     A
C547   O599    1.312   .     A
C547   C549    1.469   .     S
C548   C564    1.394   .     A
C548   O650    1.391   .     S
C549   C564    1.389   .     A
C549   C563    1.420   .     A
C550   H582    1.081   .     S
C550   C551    1.407   .     A
C551   C553    1.399   .     A
C551   O712    1.391   1_455 S
C552   C553    1.417   .     A
C552   C558    1.414   .     A
C552   C19     1.444   1_556 S
C553   H43     1.075   1_556 S
C554   H586    1.107   .     S
C554   H628    1.109   .     S
C554   H629    1.107   .     S
C554   O660    1.402   .     S
C555   H570    1.110   .     S
C555   O590    1.412   .     S
C555   H691    1.114   1_455 S
C556   H574    1.108   .     S
C556   H573    1.114   .     S
C556   H575    1.105   .     S
C556   O591    1.411   .     S
C557   H576    1.115   .     S
C557   H577    1.110   .     S
C557   O592    1.412   .     S
C557   H939    1.109   1_545 S
C558   C562    1.411   .     A
C559   C563    1.417   .     A
C560   C561    1.384   .     A
C560   C19     1.426   1_556 S
C560   C8      1.407   1_556 S
C561   C562    1.374   .     A
C561   H581    1.080   .     S
C562   H584    1.075   .     S
C563   O591    1.379   .     S
C564   H567    1.080   .     S
Cu565  O596    1.948   .     S
Cu565  Cu566   2.695   .     S
Cu565  N588    2.025   .     S
Cu565  O594    1.968   .     S
Cu565  O589    1.954   .     S
Cu565  O598    1.961   .     S
Cu566  O599    1.968   .     S
Cu566  O595    1.961   .     S
Cu566  N587    2.025   .     S
Cu566  O597    1.954   .     S
Cu566  O593    1.948   .     S
H568   C674    1.109   1_455 S
H569   C674    1.107   1_455 S
H571   C615    1.114   .     S
H572   C15     1.109   1_556 S
H578   C725    1.087   .     S
H579   C737    1.109   .     S
H580   N648    1.029   .     S
H585   C903    1.088   1_545 S
N587   N648    1.298   .     S
N587   O660    1.344   .     S
N588   H700    1.029   1_455 S
N588   N707    1.298   1_455 S
O590   C668    1.391   1_455 S
O592   C611    1.391   .     S
O600   C674    1.402   1_455 S
O600   N707    1.344   1_455 S
C601   O653    1.286   .     A
C601   O649    1.294   .     A
C601   C603    1.426   .     S
C602   C604    1.488   .     S
C602   C618    1.434   .     A
C602   C610    1.398   .     A
C603   C785    1.326   .     S
C603   H825    1.088   .     S
C604   O655    1.285   .     A
C604   O654    1.323   .     A
C605   C606    1.425   .     S
C605   C963    1.326   1_545 S
C605   H998    1.087   1_545 S
C606   O657    1.294   .     A
C606   O656    1.286   .     A
C607   O658    1.288   .     A
C607   O659    1.312   .     A
C607   C609    1.469   .     S
C608   C624    1.394   .     A
C608   O710    1.391   .     S
C609   C624    1.389   .     A
C609   C623    1.420   .     A
C610   H642    1.081   .     S
C610   C611    1.407   .     A
C611   C613    1.399   .     A
C612   C613    1.417   .     A
C612   C618    1.414   .     A
C612   C79     1.444   1_556 S
C613   H103    1.075   1_556 S
C614   H646    1.107   .     S
C614   H688    1.109   .     S
C614   H689    1.107   .     S
C614   O720    1.402   .     S
C615   H630    1.110   .     S
C615   O650    1.412   .     S
C616   H634    1.108   .     S
C616   H633    1.114   .     S
C616   H635    1.105   .     S
C616   O651    1.411   .     S
C617   H636    1.115   .     S
C617   H637    1.110   .     S
C617   O652    1.412   .     S
C617   H999    1.109   1_545 S
C618   C622    1.411   .     A
C619   C623    1.417   .     A
C620   C621    1.384   .     A
C620   C79     1.426   1_556 S
C620   C68     1.407   1_556 S
C621   C622    1.374   .     A
C621   H641    1.080   .     S
C622   H644    1.075   .     S
C623   O651    1.379   .     S
C624   H627    1.080   .     S
Cu625  O656    1.948   .     S
Cu625  Cu626   2.695   .     S
Cu625  N648    2.025   .     S
Cu625  O654    1.968   .     S
Cu625  O649    1.954   .     S
Cu625  O658    1.961   .     S
Cu626  O659    1.968   .     S
Cu626  O655    1.961   .     S
Cu626  N647    2.025   .     S
Cu626  O657    1.954   .     S
Cu626  O653    1.948   .     S
H631   C675    1.114   .     S
H632   C75     1.109   1_556 S
H638   C785    1.087   .     S
H639   C797    1.109   .     S
H640   N708    1.029   .     S
H645   C963    1.088   1_545 S
N647   N708    1.298   .     S
N647   O720    1.344   .     S
O652   C671    1.391   .     S
C661   O713    1.286   .     A
C661   O709    1.294   .     A
C661   C663    1.426   .     S
C662   C664    1.488   .     S
C662   C678    1.434   .     A
C662   C670    1.398   .     A
C663   C845    1.326   .     S
C663   H885    1.088   .     S
C664   O715    1.285   .     A
C664   O714    1.323   .     A
C665   C666    1.425   .     S
C665   C1023   1.326   1_545 S
C665   H1058   1.087   1_545 S
C666   O717    1.294   .     A
C666   O716    1.286   .     A
C667   O718    1.288   .     A
C667   O719    1.312   .     A
C667   C669    1.469   .     S
C668   C684    1.394   .     A
C668   O590    1.391   1_655 S
C669   C684    1.389   .     A
C669   C683    1.420   .     A
C670   H702    1.081   .     S
C670   C671    1.407   .     A
C671   C673    1.399   .     A
C672   C673    1.417   .     A
C672   C678    1.414   .     A
C672   C139    1.444   1_556 S
C673   H163    1.075   1_556 S
C674   H706    1.107   .     S
C674   H568    1.109   1_655 S
C674   H569    1.107   1_655 S
C674   O600    1.402   1_655 S
C675   H690    1.110   .     S
C675   O710    1.412   .     S
C676   H694    1.108   .     S
C676   H693    1.114   .     S
C676   H695    1.105   .     S
C676   O711    1.411   .     S
C677   H696    1.115   .     S
C677   H697    1.110   .     S
C677   O712    1.412   .     S
C677   H1059   1.109   1_545 S
C678   C682    1.411   .     A
C679   C683    1.417   .     A
C680   C681    1.384   .     A
C680   C139    1.426   1_556 S
C680   C128    1.407   1_556 S
C681   C682    1.374   .     A
C681   H701    1.080   .     S
C682   H704    1.075   .     S
C683   O711    1.379   .     S
C684   H687    1.080   .     S
Cu685  O716    1.948   .     S
Cu685  Cu686   2.695   .     S
Cu685  N708    2.025   .     S
Cu685  O714    1.968   .     S
Cu685  O709    1.954   .     S
Cu685  O718    1.961   .     S
Cu686  O719    1.968   .     S
Cu686  O715    1.961   .     S
Cu686  N707    2.025   .     S
Cu686  O717    1.954   .     S
Cu686  O713    1.948   .     S
H691   C555    1.114   1_655 S
H692   C135    1.109   1_556 S
H698   C845    1.087   .     S
H699   C857    1.109   .     S
H700   N588    1.029   1_655 S
H705   C1023   1.088   1_545 S
N707   N588    1.298   1_655 S
N707   O600    1.344   1_655 S
O712   C551    1.391   1_655 S
C721   O773    1.286   .     A
C721   O769    1.294   .     A
C721   C723    1.426   .     S
C722   C724    1.488   .     S
C722   C738    1.434   .     A
C722   C730    1.398   .     A
C723   C905    1.326   .     S
C723   H945    1.088   .     S
C724   O775    1.285   .     A
C724   O774    1.323   .     A
C725   C726    1.425   .     S
C726   O777    1.294   .     A
C726   O776    1.286   .     A
C727   O778    1.288   .     A
C727   O779    1.312   .     A
C727   C729    1.469   .     S
C728   C744    1.394   .     A
C728   O830    1.391   .     S
C729   C744    1.389   .     A
C729   C743    1.420   .     A
C730   H762    1.081   .     S
C730   C731    1.407   .     A
C731   C733    1.399   .     A
C731   O892    1.391   1_455 S
C732   C733    1.417   .     A
C732   C738    1.414   .     A
C732   C199    1.444   1_556 S
C733   H223    1.075   1_556 S
C734   H766    1.107   .     S
C734   H808    1.109   .     S
C734   H809    1.107   .     S
C734   O840    1.402   .     S
C735   H750    1.110   .     S
C735   O770    1.412   .     S
C735   H871    1.114   1_455 S
C736   H754    1.108   .     S
C736   H753    1.114   .     S
C736   H755    1.105   .     S
C736   O771    1.411   .     S
C737   H756    1.115   .     S
C737   H757    1.110   .     S
C737   O772    1.412   .     S
C738   C742    1.411   .     A
C739   C743    1.417   .     A
C740   C741    1.384   .     A
C740   C199    1.426   1_556 S
C740   C188    1.407   1_556 S
C741   C742    1.374   .     A
C741   H761    1.080   .     S
C742   H764    1.075   .     S
C743   O771    1.379   .     S
C744   H747    1.080   .     S
Cu745  O776    1.948   .     S
Cu745  Cu746   2.695   .     S
Cu745  N768    2.025   .     S
Cu745  O774    1.968   .     S
Cu745  O769    1.954   .     S
Cu745  O778    1.961   .     S
Cu746  O779    1.968   .     S
Cu746  O775    1.961   .     S
Cu746  N767    2.025   .     S
Cu746  O777    1.954   .     S
Cu746  O773    1.948   .     S
H748   C854    1.109   1_455 S
H749   C854    1.107   1_455 S
H751   C795    1.114   .     S
H752   C195    1.109   1_556 S
H758   C905    1.087   .     S
H759   C917    1.109   .     S
H760   N828    1.029   .     S
N767   N828    1.298   .     S
N767   O840    1.344   .     S
N768   H880    1.029   1_455 S
N768   N887    1.298   1_455 S
O770   C848    1.391   1_455 S
O772   C791    1.391   .     S
O780   C854    1.402   1_455 S
O780   N887    1.344   1_455 S
C781   O833    1.286   .     A
C781   O829    1.294   .     A
C781   C783    1.426   .     S
C782   C784    1.488   .     S
C782   C798    1.434   .     A
C782   C790    1.398   .     A
C783   C965    1.326   .     S
C783   H1005   1.088   .     S
C784   O835    1.285   .     A
C784   O834    1.323   .     A
C785   C786    1.425   .     S
C786   O837    1.294   .     A
C786   O836    1.286   .     A
C787   O838    1.288   .     A
C787   O839    1.312   .     A
C787   C789    1.469   .     S
C788   C804    1.394   .     A
C788   O890    1.391   .     S
C789   C804    1.389   .     A
C789   C803    1.420   .     A
C790   H822    1.081   .     S
C790   C791    1.407   .     A
C791   C793    1.399   .     A
C792   C793    1.417   .     A
C792   C798    1.414   .     A
C792   C259    1.444   1_556 S
C793   H283    1.075   1_556 S
C794   H826    1.107   .     S
C794   H868    1.109   .     S
C794   H869    1.107   .     S
C794   O900    1.402   .     S
C795   H810    1.110   .     S
C795   O830    1.412   .     S
C796   H814    1.108   .     S
C796   H813    1.114   .     S
C796   H815    1.105   .     S
C796   O831    1.411   .     S
C797   H816    1.115   .     S
C797   H817    1.110   .     S
C797   O832    1.412   .     S
C798   C802    1.411   .     A
C799   C803    1.417   .     A
C800   C801    1.384   .     A
C800   C259    1.426   1_556 S
C800   C248    1.407   1_556 S
C801   C802    1.374   .     A
C801   H821    1.080   .     S
C802   H824    1.075   .     S
C803   O831    1.379   .     S
C804   H807    1.080   .     S
Cu805  O836    1.948   .     S
Cu805  Cu806   2.695   .     S
Cu805  N828    2.025   .     S
Cu805  O834    1.968   .     S
Cu805  O829    1.954   .     S
Cu805  O838    1.961   .     S
Cu806  O839    1.968   .     S
Cu806  O835    1.961   .     S
Cu806  N827    2.025   .     S
Cu806  O837    1.954   .     S
Cu806  O833    1.948   .     S
H811   C855    1.114   .     S
H812   C255    1.109   1_556 S
H818   C965    1.087   .     S
H819   C977    1.109   .     S
H820   N888    1.029   .     S
N827   N888    1.298   .     S
N827   O900    1.344   .     S
O832   C851    1.391   .     S
C841   O893    1.286   .     A
C841   O889    1.294   .     A
C841   C843    1.426   .     S
C842   C844    1.488   .     S
C842   C858    1.434   .     A
C842   C850    1.398   .     A
C843   C1025   1.326   .     S
C843   H1065   1.088   .     S
C844   O895    1.285   .     A
C844   O894    1.323   .     A
C845   C846    1.425   .     S
C846   O897    1.294   .     A
C846   O896    1.286   .     A
C847   O898    1.288   .     A
C847   O899    1.312   .     A
C847   C849    1.469   .     S
C848   C864    1.394   .     A
C848   O770    1.391   1_655 S
C849   C864    1.389   .     A
C849   C863    1.420   .     A
C850   H882    1.081   .     S
C850   C851    1.407   .     A
C851   C853    1.399   .     A
C852   C853    1.417   .     A
C852   C858    1.414   .     A
C852   C319    1.444   1_556 S
C853   H343    1.075   1_556 S
C854   H886    1.107   .     S
C854   H748    1.109   1_655 S
C854   H749    1.107   1_655 S
C854   O780    1.402   1_655 S
C855   H870    1.110   .     S
C855   O890    1.412   .     S
C856   H874    1.108   .     S
C856   H873    1.114   .     S
C856   H875    1.105   .     S
C856   O891    1.411   .     S
C857   H876    1.115   .     S
C857   H877    1.110   .     S
C857   O892    1.412   .     S
C858   C862    1.411   .     A
C859   C863    1.417   .     A
C860   C861    1.384   .     A
C860   C319    1.426   1_556 S
C860   C308    1.407   1_556 S
C861   C862    1.374   .     A
C861   H881    1.080   .     S
C862   H884    1.075   .     S
C863   O891    1.379   .     S
C864   H867    1.080   .     S
Cu865  O896    1.948   .     S
Cu865  Cu866   2.695   .     S
Cu865  N888    2.025   .     S
Cu865  O894    1.968   .     S
Cu865  O889    1.954   .     S
Cu865  O898    1.961   .     S
Cu866  O899    1.968   .     S
Cu866  O895    1.961   .     S
Cu866  N887    2.025   .     S
Cu866  O897    1.954   .     S
Cu866  O893    1.948   .     S
H871   C735    1.114   1_655 S
H872   C315    1.109   1_556 S
H878   C1025   1.087   .     S
H879   C1037   1.109   .     S
H880   N768    1.029   1_655 S
N887   N768    1.298   1_655 S
N887   O780    1.344   1_655 S
O892   C731    1.391   1_655 S
C901   O953    1.286   .     A
C901   O949    1.294   .     A
C901   C903    1.426   .     S
C902   C904    1.488   .     S
C902   C918    1.434   .     A
C902   C910    1.398   .     A
C903   C545    1.326   1_565 S
C903   H585    1.088   1_565 S
C904   O955    1.285   .     A
C904   O954    1.323   .     A
C905   C906    1.425   .     S
C906   O957    1.294   .     A
C906   O956    1.286   .     A
C907   O958    1.288   .     A
C907   O959    1.312   .     A
C907   C909    1.469   .     S
C908   C924    1.394   .     A
C908   O1010   1.391   .     S
C909   C924    1.389   .     A
C909   C923    1.420   .     A
C910   H942    1.081   .     S
C910   C911    1.407   .     A
C911   C913    1.399   .     A
C911   O1072   1.391   1_455 S
C912   C913    1.417   .     A
C912   C918    1.414   .     A
C912   C379    1.444   1_556 S
C913   H403    1.075   1_556 S
C914   H946    1.107   .     S
C914   H988    1.109   .     S
C914   H989    1.107   .     S
C914   O1020   1.402   .     S
C915   H930    1.110   .     S
C915   O950    1.412   .     S
C915   H1051   1.114   1_455 S
C916   H934    1.108   .     S
C916   H933    1.114   .     S
C916   H935    1.105   .     S
C916   O951    1.411   .     S
C917   H936    1.115   .     S
C917   H937    1.110   .     S
C917   O952    1.412   .     S
C918   C922    1.411   .     A
C919   C923    1.417   .     A
C920   C921    1.384   .     A
C920   C379    1.426   1_556 S
C920   C368    1.407   1_556 S
C921   C922    1.374   .     A
C921   H941    1.080   .     S
C922   H944    1.075   .     S
C923   O951    1.379   .     S
C924   H927    1.080   .     S
Cu925  O956    1.948   .     S
Cu925  Cu926   2.695   .     S
Cu925  N948    2.025   .     S
Cu925  O954    1.968   .     S
Cu925  O949    1.954   .     S
Cu925  O958    1.961   .     S
Cu926  O959    1.968   .     S
Cu926  O955    1.961   .     S
Cu926  N947    2.025   .     S
Cu926  O957    1.954   .     S
Cu926  O953    1.948   .     S
H928   C1034   1.109   1_455 S
H929   C1034   1.107   1_455 S
H931   C975    1.114   .     S
H932   C375    1.109   1_556 S
H938   C545    1.087   1_565 S
H939   C557    1.109   1_565 S
H940   N1008   1.029   .     S
N947   N1008   1.298   .     S
N947   O1020   1.344   .     S
N948   H1060   1.029   1_455 S
N948   N1067   1.298   1_455 S
O950   C1028   1.391   1_455 S
O952   C971    1.391   .     S
O960   C1034   1.402   1_455 S
O960   N1067   1.344   1_455 S
C961   O1013   1.286   .     A
C961   O1009   1.294   .     A
C961   C963    1.426   .     S
C962   C964    1.488   .     S
C962   C978    1.434   .     A
C962   C970    1.398   .     A
C963   C605    1.326   1_565 S
C963   H645    1.088   1_565 S
C964   O1015   1.285   .     A
C964   O1014   1.323   .     A
C965   C966    1.425   .     S
C966   O1017   1.294   .     A
C966   O1016   1.286   .     A
C967   O1018   1.288   .     A
C967   O1019   1.312   .     A
C967   C969    1.469   .     S
C968   C984    1.394   .     A
C968   O1070   1.391   .     S
C969   C984    1.389   .     A
C969   C983    1.420   .     A
C970   H1002   1.081   .     S
C970   C971    1.407   .     A
C971   C973    1.399   .     A
C972   C973    1.417   .     A
C972   C978    1.414   .     A
C972   C439    1.444   1_556 S
C973   H463    1.075   1_556 S
C974   H1006   1.107   .     S
C974   H1048   1.109   .     S
C974   H1049   1.107   .     S
C974   O1080   1.402   .     S
C975   H990    1.110   .     S
C975   O1010   1.412   .     S
C976   H994    1.108   .     S
C976   H993    1.114   .     S
C976   H995    1.105   .     S
C976   O1011   1.411   .     S
C977   H996    1.115   .     S
C977   H997    1.110   .     S
C977   O1012   1.412   .     S
C978   C982    1.411   .     A
C979   C983    1.417   .     A
C980   C981    1.384   .     A
C980   C439    1.426   1_556 S
C980   C428    1.407   1_556 S
C981   C982    1.374   .     A
C981   H1001   1.080   .     S
C982   H1004   1.075   .     S
C983   O1011   1.379   .     S
C984   H987    1.080   .     S
Cu985  O1016   1.948   .     S
Cu985  Cu986   2.695   .     S
Cu985  N1008   2.025   .     S
Cu985  O1014   1.968   .     S
Cu985  O1009   1.954   .     S
Cu985  O1018   1.961   .     S
Cu986  O1019   1.968   .     S
Cu986  O1015   1.961   .     S
Cu986  N1007   2.025   .     S
Cu986  O1017   1.954   .     S
Cu986  O1013   1.948   .     S
H991   C1035   1.114   .     S
H992   C435    1.109   1_556 S
H998   C605    1.087   1_565 S
H999   C617    1.109   1_565 S
H1000  N1068   1.029   .     S
N1007  N1068   1.298   .     S
N1007  O1080   1.344   .     S
O1012  C1031   1.391   .     S
C1021  O1073   1.286   .     A
C1021  O1069   1.294   .     A
C1021  C1023   1.426   .     S
C1022  C1024   1.488   .     S
C1022  C1038   1.434   .     A
C1022  C1030   1.398   .     A
C1023  C665    1.326   1_565 S
C1023  H705    1.088   1_565 S
C1024  O1075   1.285   .     A
C1024  O1074   1.323   .     A
C1025  C1026   1.425   .     S
C1026  O1077   1.294   .     A
C1026  O1076   1.286   .     A
C1027  O1078   1.288   .     A
C1027  O1079   1.312   .     A
C1027  C1029   1.469   .     S
C1028  C1044   1.394   .     A
C1028  O950    1.391   1_655 S
C1029  C1044   1.389   .     A
C1029  C1043   1.420   .     A
C1030  H1062   1.081   .     S
C1030  C1031   1.407   .     A
C1031  C1033   1.399   .     A
C1032  C1033   1.417   .     A
C1032  C1038   1.414   .     A
C1032  C499    1.444   1_556 S
C1033  H523    1.075   1_556 S
C1034  H1066   1.107   .     S
C1034  H928    1.109   1_655 S
C1034  H929    1.107   1_655 S
C1034  O960    1.402   1_655 S
C1035  H1050   1.110   .     S
C1035  O1070   1.412   .     S
C1036  H1054   1.108   .     S
C1036  H1053   1.114   .     S
C1036  H1055   1.105   .     S
C1036  O1071   1.411   .     S
C1037  H1056   1.115   .     S
C1037  H1057   1.110   .     S
C1037  O1072   1.412   .     S
C1038  C1042   1.411   .     A
C1039  C1043   1.417   .     A
C1040  C1041   1.384   .     A
C1040  C499    1.426   1_556 S
C1040  C488    1.407   1_556 S
C1041  C1042   1.374   .     A
C1041  H1061   1.080   .     S
C1042  H1064   1.075   .     S
C1043  O1071   1.379   .     S
C1044  H1047   1.080   .     S
Cu1045 O1076   1.948   .     S
Cu1045 Cu1046  2.695   .     S
Cu1045 N1068   2.025   .     S
Cu1045 O1074   1.968   .     S
Cu1045 O1069   1.954   .     S
Cu1045 O1078   1.961   .     S
Cu1046 O1079   1.968   .     S
Cu1046 O1075   1.961   .     S
Cu1046 N1067   2.025   .     S
Cu1046 O1077   1.954   .     S
Cu1046 O1073   1.948   .     S
H1051  C915    1.114   1_655 S
H1052  C495    1.109   1_556 S
H1058  C665    1.087   1_565 S
H1059  C677    1.109   1_565 S
H1060  N948    1.029   1_655 S
N1067  N948    1.298   1_655 S
N1067  O960    1.344   1_655 S
O1072  C911    1.391   1_655 S
