data_str_m2_o10_o17_pcu_sym.12
_audit_creation_date              2020-01-03
_audit_creation_method            'Materials Studio'
_symmetry_space_group_name_H-M    'P1'
_symmetry_Int_Tables_number       1
_symmetry_cell_setting            triclinic
loop_
_symmetry_equiv_pos_as_xyz
  x,y,z
_cell_length_a                    30.0084
_cell_length_b                    26.0410
_cell_length_c                    22.5128
_cell_angle_alpha                 103.2884
_cell_angle_beta                  94.4306
_cell_angle_gamma                 93.3625
loop_
_atom_site_label
_atom_site_type_symbol
_atom_site_fract_x
_atom_site_fract_y
_atom_site_fract_z
_atom_site_U_iso_or_equiv
_atom_site_adp_type
_atom_site_occupancy
C1     C     0.24822   0.06657   0.15104   0.00000  Uiso   1.00
C2     C     0.08845   0.12458   0.12546   0.00000  Uiso   1.00
C3     C     0.38381   0.16980   0.16487   0.00000  Uiso   1.00
C4     C     0.11619   0.16353   0.16846   0.00000  Uiso   1.00
C5     C     0.40214   0.13202   0.12091   0.00000  Uiso   1.00
C6     C     0.09786   0.20131   0.21242   0.00000  Uiso   1.00
C7     C     0.44843   0.13062   0.12122   0.00000  Uiso   1.00
C8     C     0.05157   0.20272   0.21212   0.00000  Uiso   1.00
C9     C     0.47665   0.16772   0.16606   0.00000  Uiso   1.00
C10    C     0.02335   0.16561   0.16728   0.00000  Uiso   1.00
C11    C     0.45824   0.20690   0.20967   0.00000  Uiso   1.00
C12    C     0.25178   0.26676   0.18229   0.00000  Uiso   1.00
C13    C     0.04176   0.12643   0.12366   0.00000  Uiso   1.00
C14    C     0.46687   0.09209   0.07801   0.00000  Uiso   1.00
C15    C     0.03313   0.24125   0.25532   0.00000  Uiso   1.00
C16    C     0.38493   0.28997   0.22178   0.00000  Uiso   1.00
C17    C     0.11503   0.04334   0.11155   0.00000  Uiso   1.00
C18    C     0.19207   0.07855   0.31927   0.00000  Uiso   1.00
C19    C     0.30793   0.25479   0.01407   0.00000  Uiso   1.00
C20    C     0.01316   0.08999   0.07917   0.00000  Uiso   1.00
C21    C     0.48684   0.24335   0.25416   0.00000  Uiso   1.00
C22    C     0.24604   0.01042   0.14260   0.00000  Uiso   1.00
C23    C     0.25396   0.32292   0.19073   0.00000  Uiso   1.00
C24    C     0.16452   0.16556   0.16719   0.00000  Uiso   1.00
C25    C     0.33548   0.16777   0.16615   0.00000  Uiso   1.00
C26    C     0.41155   0.20875   0.20787   0.00000  Uiso   1.00
Cu27   Cu    0.25500   0.17246   0.22813   0.00000  Uiso   1.00
Cu28   Cu    0.24499   0.16087   0.10521   0.00000  Uiso   1.00
H29    H     0.38023   0.10279   0.08756   0.00000  Uiso   1.00
H30    H     0.41650   0.30732   0.20881   0.00000  Uiso   1.00
H31    H     0.37088   0.32153   0.25542   0.00000  Uiso   1.00
H32    H     0.13985   0.05570   0.15252   0.00000  Uiso   1.00
H33    H     0.12933   0.01191   0.07804   0.00000  Uiso   1.00
H34    H     0.08339   0.02582   0.12412   0.00000  Uiso   1.00
H35    H     0.17713   0.07933   0.02935   0.00000  Uiso   1.00
H36    H     0.22311   0.05712   0.31746   0.00000  Uiso   1.00
H37    H     0.16762   0.05597   0.28147   0.00000  Uiso   1.00
H38    H     0.27689   0.27621   0.01588   0.00000  Uiso   1.00
H39    H     0.32287   0.25401   0.30398   0.00000  Uiso   1.00
H40    H     0.11977   0.23054   0.24577   0.00000  Uiso   1.00
H41    H     0.33238   0.27736   0.05186   0.00000  Uiso   1.00
H42    H     0.44547   0.06342   0.04343   0.00000  Uiso   1.00
H43    H     0.05453   0.26992   0.28990   0.00000  Uiso   1.00
H44    H     0.02642   0.05975   0.04509   0.00000  Uiso   1.00
H45    H     0.47358   0.27359   0.28824   0.00000  Uiso   1.00
H46    H     0.23729   0.31947   0.09660   0.00000  Uiso   1.00
H47    H     0.26271   0.01387   0.23673   0.00000  Uiso   1.00
H48    H     0.35988   0.27763   0.18106   0.00000  Uiso   1.00
N49    N     0.23744   0.15214   0.01284   0.00000  Uiso   1.00
N50    N     0.26255   0.18119   0.32049   0.00000  Uiso   1.00
O51    O     0.25325   0.09538   0.20659   0.00000  Uiso   1.00
O52    O     0.10698   0.08582   0.08397   0.00000  Uiso   1.00
O53    O     0.19983   0.12999   0.31104   0.00000  Uiso   1.00
O54    O     0.30017   0.20334   0.02229   0.00000  Uiso   1.00
O55    O     0.24674   0.23796   0.12674   0.00000  Uiso   1.00
O56    O     0.24480   0.08559   0.10279   0.00000  Uiso   1.00
O57    O     0.25520   0.24774   0.23055   0.00000  Uiso   1.00
O58    O     0.18935   0.17155   0.21857   0.00000  Uiso   1.00
O59    O     0.31064   0.16179   0.11476   0.00000  Uiso   1.00
O60    O     0.18090   0.16176   0.11477   0.00000  Uiso   1.00
O61    O     0.31910   0.17157   0.21857   0.00000  Uiso   1.00
O62    O     0.39303   0.24752   0.24938   0.00000  Uiso   1.00
C63    C     0.74822   0.06657   0.15104   0.00000  Uiso   1.00
C64    C     0.58845   0.12458   0.12546   0.00000  Uiso   1.00
C65    C     0.88381   0.16980   0.16487   0.00000  Uiso   1.00
C66    C     0.61619   0.16353   0.16846   0.00000  Uiso   1.00
C67    C     0.90214   0.13202   0.12091   0.00000  Uiso   1.00
C68    C     0.59786   0.20131   0.21242   0.00000  Uiso   1.00
C69    C     0.94843   0.13062   0.12122   0.00000  Uiso   1.00
C70    C     0.55157   0.20272   0.21212   0.00000  Uiso   1.00
C71    C     0.97665   0.16772   0.16606   0.00000  Uiso   1.00
C72    C     0.52335   0.16561   0.16728   0.00000  Uiso   1.00
C73    C     0.95824   0.20690   0.20967   0.00000  Uiso   1.00
C74    C     0.75178   0.26676   0.18229   0.00000  Uiso   1.00
C75    C     0.54176   0.12643   0.12366   0.00000  Uiso   1.00
C76    C     0.96687   0.09209   0.07801   0.00000  Uiso   1.00
C77    C     0.53313   0.24125   0.25532   0.00000  Uiso   1.00
C78    C     0.88493   0.28997   0.22178   0.00000  Uiso   1.00
C79    C     0.61503   0.04334   0.11155   0.00000  Uiso   1.00
C80    C     0.69207   0.07855   0.31927   0.00000  Uiso   1.00
C81    C     0.80793   0.25479   0.01407   0.00000  Uiso   1.00
C82    C     0.51316   0.08999   0.07917   0.00000  Uiso   1.00
C83    C     0.98684   0.24335   0.25416   0.00000  Uiso   1.00
C84    C     0.74604   0.01042   0.14260   0.00000  Uiso   1.00
C85    C     0.75396   0.32292   0.19073   0.00000  Uiso   1.00
C86    C     0.66452   0.16556   0.16719   0.00000  Uiso   1.00
C87    C     0.83548   0.16777   0.16615   0.00000  Uiso   1.00
C88    C     0.91155   0.20875   0.20787   0.00000  Uiso   1.00
Cu89   Cu    0.75500   0.17246   0.22813   0.00000  Uiso   1.00
Cu90   Cu    0.74499   0.16087   0.10521   0.00000  Uiso   1.00
H91    H     0.88023   0.10279   0.08756   0.00000  Uiso   1.00
H92    H     0.91650   0.30732   0.20881   0.00000  Uiso   1.00
H93    H     0.87088   0.32153   0.25542   0.00000  Uiso   1.00
H94    H     0.63985   0.05570   0.15252   0.00000  Uiso   1.00
H95    H     0.62933   0.01191   0.07804   0.00000  Uiso   1.00
H96    H     0.58339   0.02582   0.12412   0.00000  Uiso   1.00
H97    H     0.67713   0.07933   0.02935   0.00000  Uiso   1.00
H98    H     0.72311   0.05712   0.31746   0.00000  Uiso   1.00
H99    H     0.66762   0.05597   0.28147   0.00000  Uiso   1.00
H100   H     0.77689   0.27621   0.01588   0.00000  Uiso   1.00
H101   H     0.82287   0.25401   0.30398   0.00000  Uiso   1.00
H102   H     0.61977   0.23054   0.24577   0.00000  Uiso   1.00
H103   H     0.83238   0.27736   0.05186   0.00000  Uiso   1.00
H104   H     0.94547   0.06342   0.04343   0.00000  Uiso   1.00
H105   H     0.55453   0.26992   0.28990   0.00000  Uiso   1.00
H106   H     0.52642   0.05975   0.04509   0.00000  Uiso   1.00
H107   H     0.97358   0.27359   0.28824   0.00000  Uiso   1.00
H108   H     0.73729   0.31947   0.09660   0.00000  Uiso   1.00
H109   H     0.76271   0.01387   0.23673   0.00000  Uiso   1.00
H110   H     0.85988   0.27763   0.18106   0.00000  Uiso   1.00
N111   N     0.73744   0.15214   0.01284   0.00000  Uiso   1.00
N112   N     0.76255   0.18119   0.32049   0.00000  Uiso   1.00
O113   O     0.75325   0.09538   0.20659   0.00000  Uiso   1.00
O114   O     0.60698   0.08582   0.08397   0.00000  Uiso   1.00
O115   O     0.69983   0.12999   0.31104   0.00000  Uiso   1.00
O116   O     0.80017   0.20334   0.02229   0.00000  Uiso   1.00
O117   O     0.74674   0.23796   0.12674   0.00000  Uiso   1.00
O118   O     0.74480   0.08559   0.10279   0.00000  Uiso   1.00
O119   O     0.75520   0.24774   0.23055   0.00000  Uiso   1.00
O120   O     0.68935   0.17155   0.21857   0.00000  Uiso   1.00
O121   O     0.81064   0.16179   0.11476   0.00000  Uiso   1.00
O122   O     0.68090   0.16176   0.11477   0.00000  Uiso   1.00
O123   O     0.81910   0.17157   0.21857   0.00000  Uiso   1.00
O124   O     0.89303   0.24752   0.24938   0.00000  Uiso   1.00
C125   C     0.24822   0.39991   0.15104   0.00000  Uiso   1.00
C126   C     0.08845   0.45792   0.12546   0.00000  Uiso   1.00
C127   C     0.38381   0.50313   0.16487   0.00000  Uiso   1.00
C128   C     0.11619   0.49687   0.16846   0.00000  Uiso   1.00
C129   C     0.40214   0.46536   0.12091   0.00000  Uiso   1.00
C130   C     0.09786   0.53464   0.21242   0.00000  Uiso   1.00
C131   C     0.44843   0.46395   0.12122   0.00000  Uiso   1.00
C132   C     0.05157   0.53605   0.21212   0.00000  Uiso   1.00
C133   C     0.47665   0.50105   0.16606   0.00000  Uiso   1.00
C134   C     0.02335   0.49894   0.16728   0.00000  Uiso   1.00
C135   C     0.45824   0.54023   0.20967   0.00000  Uiso   1.00
C136   C     0.25178   0.60009   0.18229   0.00000  Uiso   1.00
C137   C     0.04176   0.45977   0.12366   0.00000  Uiso   1.00
C138   C     0.46687   0.42542   0.07801   0.00000  Uiso   1.00
C139   C     0.03313   0.57458   0.25532   0.00000  Uiso   1.00
C140   C     0.38493   0.62331   0.22178   0.00000  Uiso   1.00
C141   C     0.11503   0.37667   0.11155   0.00000  Uiso   1.00
C142   C     0.19207   0.41188   0.31927   0.00000  Uiso   1.00
C143   C     0.30793   0.58812   0.01407   0.00000  Uiso   1.00
C144   C     0.01316   0.42332   0.07917   0.00000  Uiso   1.00
C145   C     0.48684   0.57668   0.25416   0.00000  Uiso   1.00
C146   C     0.24604   0.34375   0.14260   0.00000  Uiso   1.00
C147   C     0.25396   0.65625   0.19073   0.00000  Uiso   1.00
C148   C     0.16452   0.49890   0.16719   0.00000  Uiso   1.00
C149   C     0.33548   0.50110   0.16615   0.00000  Uiso   1.00
C150   C     0.41155   0.54208   0.20787   0.00000  Uiso   1.00
Cu151  Cu    0.25500   0.50579   0.22813   0.00000  Uiso   1.00
Cu152  Cu    0.24499   0.49421   0.10521   0.00000  Uiso   1.00
H153   H     0.38023   0.43613   0.08756   0.00000  Uiso   1.00
H154   H     0.41650   0.64065   0.20881   0.00000  Uiso   1.00
H155   H     0.37088   0.65487   0.25542   0.00000  Uiso   1.00
H156   H     0.13985   0.38904   0.15252   0.00000  Uiso   1.00
H157   H     0.12933   0.34524   0.07804   0.00000  Uiso   1.00
H158   H     0.08339   0.35915   0.12412   0.00000  Uiso   1.00
H159   H     0.17713   0.41266   0.02935   0.00000  Uiso   1.00
H160   H     0.22311   0.39046   0.31746   0.00000  Uiso   1.00
H161   H     0.16762   0.38931   0.28147   0.00000  Uiso   1.00
H162   H     0.27689   0.60954   0.01588   0.00000  Uiso   1.00
H163   H     0.32287   0.58734   0.30398   0.00000  Uiso   1.00
H164   H     0.11977   0.56388   0.24577   0.00000  Uiso   1.00
H165   H     0.33238   0.61069   0.05186   0.00000  Uiso   1.00
H166   H     0.44547   0.39675   0.04343   0.00000  Uiso   1.00
H167   H     0.05453   0.60325   0.28990   0.00000  Uiso   1.00
H168   H     0.02642   0.39308   0.04509   0.00000  Uiso   1.00
H169   H     0.47358   0.60692   0.28824   0.00000  Uiso   1.00
H170   H     0.23729   0.65280   0.09660   0.00000  Uiso   1.00
H171   H     0.26271   0.34720   0.23673   0.00000  Uiso   1.00
H172   H     0.35988   0.61096   0.18106   0.00000  Uiso   1.00
N173   N     0.23744   0.48547   0.01284   0.00000  Uiso   1.00
N174   N     0.26255   0.51453   0.32049   0.00000  Uiso   1.00
O175   O     0.25325   0.42871   0.20659   0.00000  Uiso   1.00
O176   O     0.10698   0.41915   0.08397   0.00000  Uiso   1.00
O177   O     0.19983   0.46332   0.31104   0.00000  Uiso   1.00
O178   O     0.30017   0.53668   0.02229   0.00000  Uiso   1.00
O179   O     0.24674   0.57129   0.12674   0.00000  Uiso   1.00
O180   O     0.24480   0.41892   0.10279   0.00000  Uiso   1.00
O181   O     0.25520   0.58108   0.23055   0.00000  Uiso   1.00
O182   O     0.18935   0.50488   0.21857   0.00000  Uiso   1.00
O183   O     0.31064   0.49512   0.11476   0.00000  Uiso   1.00
O184   O     0.18090   0.49510   0.11477   0.00000  Uiso   1.00
O185   O     0.31910   0.50490   0.21857   0.00000  Uiso   1.00
O186   O     0.39303   0.58085   0.24938   0.00000  Uiso   1.00
C187   C     0.74822   0.39991   0.15104   0.00000  Uiso   1.00
C188   C     0.58845   0.45792   0.12546   0.00000  Uiso   1.00
C189   C     0.88381   0.50313   0.16487   0.00000  Uiso   1.00
C190   C     0.61619   0.49687   0.16846   0.00000  Uiso   1.00
C191   C     0.90214   0.46536   0.12091   0.00000  Uiso   1.00
C192   C     0.59786   0.53464   0.21242   0.00000  Uiso   1.00
C193   C     0.94843   0.46395   0.12122   0.00000  Uiso   1.00
C194   C     0.55157   0.53605   0.21212   0.00000  Uiso   1.00
C195   C     0.97665   0.50105   0.16606   0.00000  Uiso   1.00
C196   C     0.52335   0.49894   0.16728   0.00000  Uiso   1.00
C197   C     0.95824   0.54023   0.20967   0.00000  Uiso   1.00
C198   C     0.75178   0.60009   0.18229   0.00000  Uiso   1.00
C199   C     0.54176   0.45977   0.12366   0.00000  Uiso   1.00
C200   C     0.96687   0.42542   0.07801   0.00000  Uiso   1.00
C201   C     0.53313   0.57458   0.25532   0.00000  Uiso   1.00
C202   C     0.88493   0.62331   0.22178   0.00000  Uiso   1.00
C203   C     0.61503   0.37667   0.11155   0.00000  Uiso   1.00
C204   C     0.69207   0.41188   0.31927   0.00000  Uiso   1.00
C205   C     0.80793   0.58812   0.01407   0.00000  Uiso   1.00
C206   C     0.51316   0.42332   0.07917   0.00000  Uiso   1.00
C207   C     0.98684   0.57668   0.25416   0.00000  Uiso   1.00
C208   C     0.74604   0.34375   0.14260   0.00000  Uiso   1.00
C209   C     0.75396   0.65625   0.19073   0.00000  Uiso   1.00
C210   C     0.66452   0.49890   0.16719   0.00000  Uiso   1.00
C211   C     0.83548   0.50110   0.16615   0.00000  Uiso   1.00
C212   C     0.91155   0.54208   0.20787   0.00000  Uiso   1.00
Cu213  Cu    0.75500   0.50579   0.22813   0.00000  Uiso   1.00
Cu214  Cu    0.74499   0.49421   0.10521   0.00000  Uiso   1.00
H215   H     0.88023   0.43613   0.08756   0.00000  Uiso   1.00
H216   H     0.91650   0.64065   0.20881   0.00000  Uiso   1.00
H217   H     0.87088   0.65487   0.25542   0.00000  Uiso   1.00
H218   H     0.63985   0.38904   0.15252   0.00000  Uiso   1.00
H219   H     0.62933   0.34524   0.07804   0.00000  Uiso   1.00
H220   H     0.58339   0.35915   0.12412   0.00000  Uiso   1.00
H221   H     0.67713   0.41266   0.02935   0.00000  Uiso   1.00
H222   H     0.72311   0.39046   0.31746   0.00000  Uiso   1.00
H223   H     0.66762   0.38931   0.28147   0.00000  Uiso   1.00
H224   H     0.77689   0.60954   0.01588   0.00000  Uiso   1.00
H225   H     0.82287   0.58734   0.30398   0.00000  Uiso   1.00
H226   H     0.61977   0.56388   0.24577   0.00000  Uiso   1.00
H227   H     0.83238   0.61069   0.05186   0.00000  Uiso   1.00
H228   H     0.94547   0.39675   0.04343   0.00000  Uiso   1.00
H229   H     0.55453   0.60325   0.28990   0.00000  Uiso   1.00
H230   H     0.52642   0.39308   0.04509   0.00000  Uiso   1.00
H231   H     0.97358   0.60692   0.28824   0.00000  Uiso   1.00
H232   H     0.73729   0.65280   0.09660   0.00000  Uiso   1.00
H233   H     0.76271   0.34720   0.23673   0.00000  Uiso   1.00
H234   H     0.85988   0.61096   0.18106   0.00000  Uiso   1.00
N235   N     0.73744   0.48547   0.01284   0.00000  Uiso   1.00
N236   N     0.76255   0.51453   0.32049   0.00000  Uiso   1.00
O237   O     0.75325   0.42871   0.20659   0.00000  Uiso   1.00
O238   O     0.60698   0.41915   0.08397   0.00000  Uiso   1.00
O239   O     0.69983   0.46332   0.31104   0.00000  Uiso   1.00
O240   O     0.80017   0.53668   0.02229   0.00000  Uiso   1.00
O241   O     0.74674   0.57129   0.12674   0.00000  Uiso   1.00
O242   O     0.74480   0.41892   0.10279   0.00000  Uiso   1.00
O243   O     0.75520   0.58108   0.23055   0.00000  Uiso   1.00
O244   O     0.68935   0.50488   0.21857   0.00000  Uiso   1.00
O245   O     0.81064   0.49512   0.11476   0.00000  Uiso   1.00
O246   O     0.68090   0.49510   0.11477   0.00000  Uiso   1.00
O247   O     0.81910   0.50490   0.21857   0.00000  Uiso   1.00
O248   O     0.89303   0.58085   0.24938   0.00000  Uiso   1.00
C249   C     0.24822   0.73324   0.15104   0.00000  Uiso   1.00
C250   C     0.08845   0.79125   0.12546   0.00000  Uiso   1.00
C251   C     0.38381   0.83647   0.16487   0.00000  Uiso   1.00
C252   C     0.11619   0.83020   0.16846   0.00000  Uiso   1.00
C253   C     0.40214   0.79869   0.12091   0.00000  Uiso   1.00
C254   C     0.09786   0.86798   0.21242   0.00000  Uiso   1.00
C255   C     0.44843   0.79728   0.12122   0.00000  Uiso   1.00
C256   C     0.05157   0.86938   0.21212   0.00000  Uiso   1.00
C257   C     0.47665   0.83439   0.16606   0.00000  Uiso   1.00
C258   C     0.02335   0.83228   0.16728   0.00000  Uiso   1.00
C259   C     0.45824   0.87356   0.20967   0.00000  Uiso   1.00
C260   C     0.25178   0.93342   0.18229   0.00000  Uiso   1.00
C261   C     0.04176   0.79310   0.12366   0.00000  Uiso   1.00
C262   C     0.46687   0.75875   0.07801   0.00000  Uiso   1.00
C263   C     0.03313   0.90791   0.25532   0.00000  Uiso   1.00
C264   C     0.38493   0.95664   0.22178   0.00000  Uiso   1.00
C265   C     0.11503   0.71000   0.11155   0.00000  Uiso   1.00
C266   C     0.19207   0.74521   0.31927   0.00000  Uiso   1.00
C267   C     0.30793   0.92145   0.01407   0.00000  Uiso   1.00
C268   C     0.01316   0.75665   0.07917   0.00000  Uiso   1.00
C269   C     0.48684   0.91001   0.25416   0.00000  Uiso   1.00
C270   C     0.24604   0.67708   0.14260   0.00000  Uiso   1.00
C271   C     0.25396   0.98958   0.19073   0.00000  Uiso   1.00
C272   C     0.16452   0.83223   0.16719   0.00000  Uiso   1.00
C273   C     0.33548   0.83444   0.16615   0.00000  Uiso   1.00
C274   C     0.41155   0.87541   0.20787   0.00000  Uiso   1.00
Cu275  Cu    0.25500   0.83913   0.22813   0.00000  Uiso   1.00
Cu276  Cu    0.24499   0.82754   0.10521   0.00000  Uiso   1.00
H277   H     0.38023   0.76946   0.08756   0.00000  Uiso   1.00
H278   H     0.41650   0.97399   0.20881   0.00000  Uiso   1.00
H279   H     0.37088   0.98820   0.25542   0.00000  Uiso   1.00
H280   H     0.13985   0.72237   0.15252   0.00000  Uiso   1.00
H281   H     0.12933   0.67858   0.07804   0.00000  Uiso   1.00
H282   H     0.08339   0.69248   0.12412   0.00000  Uiso   1.00
H283   H     0.17713   0.74599   0.02935   0.00000  Uiso   1.00
H284   H     0.22311   0.72379   0.31746   0.00000  Uiso   1.00
H285   H     0.16762   0.72264   0.28147   0.00000  Uiso   1.00
H286   H     0.27689   0.94288   0.01588   0.00000  Uiso   1.00
H287   H     0.32287   0.92067   0.30398   0.00000  Uiso   1.00
H288   H     0.11977   0.89721   0.24577   0.00000  Uiso   1.00
H289   H     0.33238   0.94403   0.05186   0.00000  Uiso   1.00
H290   H     0.44547   0.73009   0.04343   0.00000  Uiso   1.00
H291   H     0.05453   0.93658   0.28990   0.00000  Uiso   1.00
H292   H     0.02642   0.72641   0.04509   0.00000  Uiso   1.00
H293   H     0.47358   0.94026   0.28824   0.00000  Uiso   1.00
H294   H     0.23729   0.98613   0.09660   0.00000  Uiso   1.00
H295   H     0.26271   0.68053   0.23673   0.00000  Uiso   1.00
H296   H     0.35988   0.94429   0.18106   0.00000  Uiso   1.00
N297   N     0.23744   0.81881   0.01284   0.00000  Uiso   1.00
N298   N     0.26255   0.84786   0.32049   0.00000  Uiso   1.00
O299   O     0.25325   0.76204   0.20659   0.00000  Uiso   1.00
O300   O     0.10698   0.75249   0.08397   0.00000  Uiso   1.00
O301   O     0.19983   0.79666   0.31104   0.00000  Uiso   1.00
O302   O     0.30017   0.87001   0.02229   0.00000  Uiso   1.00
O303   O     0.24674   0.90462   0.12674   0.00000  Uiso   1.00
O304   O     0.24480   0.75226   0.10279   0.00000  Uiso   1.00
O305   O     0.25520   0.91441   0.23055   0.00000  Uiso   1.00
O306   O     0.18935   0.83821   0.21857   0.00000  Uiso   1.00
O307   O     0.31064   0.82845   0.11476   0.00000  Uiso   1.00
O308   O     0.18090   0.82843   0.11477   0.00000  Uiso   1.00
O309   O     0.31910   0.83824   0.21857   0.00000  Uiso   1.00
O310   O     0.39303   0.91418   0.24938   0.00000  Uiso   1.00
C311   C     0.74822   0.73324   0.15104   0.00000  Uiso   1.00
C312   C     0.58845   0.79125   0.12546   0.00000  Uiso   1.00
C313   C     0.88381   0.83647   0.16487   0.00000  Uiso   1.00
C314   C     0.61619   0.83020   0.16846   0.00000  Uiso   1.00
C315   C     0.90214   0.79869   0.12091   0.00000  Uiso   1.00
C316   C     0.59786   0.86798   0.21242   0.00000  Uiso   1.00
C317   C     0.94843   0.79728   0.12122   0.00000  Uiso   1.00
C318   C     0.55157   0.86938   0.21212   0.00000  Uiso   1.00
C319   C     0.97665   0.83439   0.16606   0.00000  Uiso   1.00
C320   C     0.52335   0.83228   0.16728   0.00000  Uiso   1.00
C321   C     0.95824   0.87356   0.20967   0.00000  Uiso   1.00
C322   C     0.75178   0.93342   0.18229   0.00000  Uiso   1.00
C323   C     0.54176   0.79310   0.12366   0.00000  Uiso   1.00
C324   C     0.96687   0.75875   0.07801   0.00000  Uiso   1.00
C325   C     0.53313   0.90791   0.25532   0.00000  Uiso   1.00
C326   C     0.88493   0.95664   0.22178   0.00000  Uiso   1.00
C327   C     0.61503   0.71000   0.11155   0.00000  Uiso   1.00
C328   C     0.69207   0.74521   0.31927   0.00000  Uiso   1.00
C329   C     0.80793   0.92145   0.01407   0.00000  Uiso   1.00
C330   C     0.51316   0.75665   0.07917   0.00000  Uiso   1.00
C331   C     0.98684   0.91001   0.25416   0.00000  Uiso   1.00
C332   C     0.74604   0.67708   0.14260   0.00000  Uiso   1.00
C333   C     0.75396   0.98958   0.19073   0.00000  Uiso   1.00
C334   C     0.66452   0.83223   0.16719   0.00000  Uiso   1.00
C335   C     0.83548   0.83444   0.16615   0.00000  Uiso   1.00
C336   C     0.91155   0.87541   0.20787   0.00000  Uiso   1.00
Cu337  Cu    0.75500   0.83913   0.22813   0.00000  Uiso   1.00
Cu338  Cu    0.74499   0.82754   0.10521   0.00000  Uiso   1.00
H339   H     0.88023   0.76946   0.08756   0.00000  Uiso   1.00
H340   H     0.91650   0.97399   0.20881   0.00000  Uiso   1.00
H341   H     0.87088   0.98820   0.25542   0.00000  Uiso   1.00
H342   H     0.63985   0.72237   0.15252   0.00000  Uiso   1.00
H343   H     0.62933   0.67858   0.07804   0.00000  Uiso   1.00
H344   H     0.58339   0.69248   0.12412   0.00000  Uiso   1.00
H345   H     0.67713   0.74599   0.02935   0.00000  Uiso   1.00
H346   H     0.72311   0.72379   0.31746   0.00000  Uiso   1.00
H347   H     0.66762   0.72264   0.28147   0.00000  Uiso   1.00
H348   H     0.77689   0.94288   0.01588   0.00000  Uiso   1.00
H349   H     0.82287   0.92067   0.30398   0.00000  Uiso   1.00
H350   H     0.61977   0.89721   0.24577   0.00000  Uiso   1.00
H351   H     0.83238   0.94403   0.05186   0.00000  Uiso   1.00
H352   H     0.94547   0.73009   0.04343   0.00000  Uiso   1.00
H353   H     0.55453   0.93658   0.28990   0.00000  Uiso   1.00
H354   H     0.52642   0.72641   0.04509   0.00000  Uiso   1.00
H355   H     0.97358   0.94026   0.28824   0.00000  Uiso   1.00
H356   H     0.73729   0.98613   0.09660   0.00000  Uiso   1.00
H357   H     0.76271   0.68053   0.23673   0.00000  Uiso   1.00
H358   H     0.85988   0.94429   0.18106   0.00000  Uiso   1.00
N359   N     0.73744   0.81881   0.01284   0.00000  Uiso   1.00
N360   N     0.76255   0.84786   0.32049   0.00000  Uiso   1.00
O361   O     0.75325   0.76204   0.20659   0.00000  Uiso   1.00
O362   O     0.60698   0.75249   0.08397   0.00000  Uiso   1.00
O363   O     0.69983   0.79666   0.31104   0.00000  Uiso   1.00
O364   O     0.80017   0.87001   0.02229   0.00000  Uiso   1.00
O365   O     0.74674   0.90462   0.12674   0.00000  Uiso   1.00
O366   O     0.74480   0.75226   0.10279   0.00000  Uiso   1.00
O367   O     0.75520   0.91441   0.23055   0.00000  Uiso   1.00
O368   O     0.68935   0.83821   0.21857   0.00000  Uiso   1.00
O369   O     0.81064   0.82845   0.11476   0.00000  Uiso   1.00
O370   O     0.68090   0.82843   0.11477   0.00000  Uiso   1.00
O371   O     0.81910   0.83824   0.21857   0.00000  Uiso   1.00
O372   O     0.89303   0.91418   0.24938   0.00000  Uiso   1.00
C373   C     0.24822   0.06657   0.48437   0.00000  Uiso   1.00
C374   C     0.08845   0.12458   0.45880   0.00000  Uiso   1.00
C375   C     0.38381   0.16980   0.49820   0.00000  Uiso   1.00
C376   C     0.11619   0.16353   0.50179   0.00000  Uiso   1.00
C377   C     0.40214   0.13202   0.45425   0.00000  Uiso   1.00
C378   C     0.09786   0.20131   0.54575   0.00000  Uiso   1.00
C379   C     0.44843   0.13062   0.45455   0.00000  Uiso   1.00
C380   C     0.05157   0.20272   0.54545   0.00000  Uiso   1.00
C381   C     0.47665   0.16772   0.49939   0.00000  Uiso   1.00
C382   C     0.02335   0.16561   0.50061   0.00000  Uiso   1.00
C383   C     0.45824   0.20690   0.54300   0.00000  Uiso   1.00
C384   C     0.25178   0.26676   0.51563   0.00000  Uiso   1.00
C385   C     0.04176   0.12643   0.45700   0.00000  Uiso   1.00
C386   C     0.46687   0.09209   0.41135   0.00000  Uiso   1.00
C387   C     0.03313   0.24125   0.58865   0.00000  Uiso   1.00
C388   C     0.38493   0.28997   0.55511   0.00000  Uiso   1.00
C389   C     0.11503   0.04334   0.44488   0.00000  Uiso   1.00
C390   C     0.19207   0.07855   0.65260   0.00000  Uiso   1.00
C391   C     0.30793   0.25479   0.34740   0.00000  Uiso   1.00
C392   C     0.01316   0.08999   0.41250   0.00000  Uiso   1.00
C393   C     0.48684   0.24335   0.58750   0.00000  Uiso   1.00
C394   C     0.24604   0.01042   0.47594   0.00000  Uiso   1.00
C395   C     0.25396   0.32292   0.52406   0.00000  Uiso   1.00
C396   C     0.16452   0.16556   0.50052   0.00000  Uiso   1.00
C397   C     0.33548   0.16777   0.49948   0.00000  Uiso   1.00
C398   C     0.41155   0.20875   0.54121   0.00000  Uiso   1.00
Cu399  Cu    0.25500   0.17246   0.56146   0.00000  Uiso   1.00
Cu400  Cu    0.24499   0.16087   0.43854   0.00000  Uiso   1.00
H401   H     0.38023   0.10279   0.42090   0.00000  Uiso   1.00
H402   H     0.41650   0.30732   0.54214   0.00000  Uiso   1.00
H403   H     0.37088   0.32153   0.58875   0.00000  Uiso   1.00
H404   H     0.13985   0.05570   0.48586   0.00000  Uiso   1.00
H405   H     0.12933   0.01191   0.41138   0.00000  Uiso   1.00
H406   H     0.08339   0.02582   0.45745   0.00000  Uiso   1.00
H407   H     0.17713   0.07933   0.36269   0.00000  Uiso   1.00
H408   H     0.22311   0.05712   0.65079   0.00000  Uiso   1.00
H409   H     0.16762   0.05597   0.61481   0.00000  Uiso   1.00
H410   H     0.27689   0.27621   0.34921   0.00000  Uiso   1.00
H411   H     0.32287   0.25401   0.63731   0.00000  Uiso   1.00
H412   H     0.11977   0.23054   0.57910   0.00000  Uiso   1.00
H413   H     0.33238   0.27736   0.38520   0.00000  Uiso   1.00
H414   H     0.44547   0.06342   0.37677   0.00000  Uiso   1.00
H415   H     0.05453   0.26992   0.62323   0.00000  Uiso   1.00
H416   H     0.02642   0.05975   0.37842   0.00000  Uiso   1.00
H417   H     0.47358   0.27359   0.62157   0.00000  Uiso   1.00
H418   H     0.23729   0.31947   0.42994   0.00000  Uiso   1.00
H419   H     0.26271   0.01387   0.57006   0.00000  Uiso   1.00
H420   H     0.35988   0.27763   0.51439   0.00000  Uiso   1.00
N421   N     0.23744   0.15214   0.34617   0.00000  Uiso   1.00
N422   N     0.26255   0.18119   0.65383   0.00000  Uiso   1.00
O423   O     0.25325   0.09538   0.53992   0.00000  Uiso   1.00
O424   O     0.10698   0.08582   0.41730   0.00000  Uiso   1.00
O425   O     0.19983   0.12999   0.64437   0.00000  Uiso   1.00
O426   O     0.30017   0.20334   0.35563   0.00000  Uiso   1.00
O427   O     0.24674   0.23796   0.46008   0.00000  Uiso   1.00
O428   O     0.24480   0.08559   0.43612   0.00000  Uiso   1.00
O429   O     0.25520   0.24774   0.56388   0.00000  Uiso   1.00
O430   O     0.18935   0.17155   0.55191   0.00000  Uiso   1.00
O431   O     0.31064   0.16179   0.44809   0.00000  Uiso   1.00
O432   O     0.18090   0.16176   0.44810   0.00000  Uiso   1.00
O433   O     0.31910   0.17157   0.55190   0.00000  Uiso   1.00
O434   O     0.39303   0.24752   0.58271   0.00000  Uiso   1.00
C435   C     0.74822   0.06657   0.48437   0.00000  Uiso   1.00
C436   C     0.58845   0.12458   0.45880   0.00000  Uiso   1.00
C437   C     0.88381   0.16980   0.49820   0.00000  Uiso   1.00
C438   C     0.61619   0.16353   0.50179   0.00000  Uiso   1.00
C439   C     0.90214   0.13202   0.45425   0.00000  Uiso   1.00
C440   C     0.59786   0.20131   0.54575   0.00000  Uiso   1.00
C441   C     0.94843   0.13062   0.45455   0.00000  Uiso   1.00
C442   C     0.55157   0.20272   0.54545   0.00000  Uiso   1.00
C443   C     0.97665   0.16772   0.49939   0.00000  Uiso   1.00
C444   C     0.52335   0.16561   0.50061   0.00000  Uiso   1.00
C445   C     0.95824   0.20690   0.54300   0.00000  Uiso   1.00
C446   C     0.75178   0.26676   0.51563   0.00000  Uiso   1.00
C447   C     0.54176   0.12643   0.45700   0.00000  Uiso   1.00
C448   C     0.96687   0.09209   0.41135   0.00000  Uiso   1.00
C449   C     0.53313   0.24125   0.58865   0.00000  Uiso   1.00
C450   C     0.88493   0.28997   0.55511   0.00000  Uiso   1.00
C451   C     0.61503   0.04334   0.44488   0.00000  Uiso   1.00
C452   C     0.69207   0.07855   0.65260   0.00000  Uiso   1.00
C453   C     0.80793   0.25479   0.34740   0.00000  Uiso   1.00
C454   C     0.51316   0.08999   0.41250   0.00000  Uiso   1.00
C455   C     0.98684   0.24335   0.58750   0.00000  Uiso   1.00
C456   C     0.74604   0.01042   0.47594   0.00000  Uiso   1.00
C457   C     0.75396   0.32292   0.52406   0.00000  Uiso   1.00
C458   C     0.66452   0.16556   0.50052   0.00000  Uiso   1.00
C459   C     0.83548   0.16777   0.49948   0.00000  Uiso   1.00
C460   C     0.91155   0.20875   0.54121   0.00000  Uiso   1.00
Cu461  Cu    0.75500   0.17246   0.56146   0.00000  Uiso   1.00
Cu462  Cu    0.74499   0.16087   0.43854   0.00000  Uiso   1.00
H463   H     0.88023   0.10279   0.42090   0.00000  Uiso   1.00
H464   H     0.91650   0.30732   0.54214   0.00000  Uiso   1.00
H465   H     0.87088   0.32153   0.58875   0.00000  Uiso   1.00
H466   H     0.63985   0.05570   0.48586   0.00000  Uiso   1.00
H467   H     0.62933   0.01191   0.41138   0.00000  Uiso   1.00
H468   H     0.58339   0.02582   0.45745   0.00000  Uiso   1.00
H469   H     0.67713   0.07933   0.36269   0.00000  Uiso   1.00
H470   H     0.72311   0.05712   0.65079   0.00000  Uiso   1.00
H471   H     0.66762   0.05597   0.61481   0.00000  Uiso   1.00
H472   H     0.77689   0.27621   0.34921   0.00000  Uiso   1.00
H473   H     0.82287   0.25401   0.63731   0.00000  Uiso   1.00
H474   H     0.61977   0.23054   0.57910   0.00000  Uiso   1.00
H475   H     0.83238   0.27736   0.38520   0.00000  Uiso   1.00
H476   H     0.94547   0.06342   0.37677   0.00000  Uiso   1.00
H477   H     0.55453   0.26992   0.62323   0.00000  Uiso   1.00
H478   H     0.52642   0.05975   0.37842   0.00000  Uiso   1.00
H479   H     0.97358   0.27359   0.62157   0.00000  Uiso   1.00
H480   H     0.73729   0.31947   0.42994   0.00000  Uiso   1.00
H481   H     0.76271   0.01387   0.57006   0.00000  Uiso   1.00
H482   H     0.85988   0.27763   0.51439   0.00000  Uiso   1.00
N483   N     0.73744   0.15214   0.34617   0.00000  Uiso   1.00
N484   N     0.76255   0.18119   0.65383   0.00000  Uiso   1.00
O485   O     0.75325   0.09538   0.53992   0.00000  Uiso   1.00
O486   O     0.60698   0.08582   0.41730   0.00000  Uiso   1.00
O487   O     0.69983   0.12999   0.64437   0.00000  Uiso   1.00
O488   O     0.80017   0.20334   0.35563   0.00000  Uiso   1.00
O489   O     0.74674   0.23796   0.46008   0.00000  Uiso   1.00
O490   O     0.74480   0.08559   0.43612   0.00000  Uiso   1.00
O491   O     0.75520   0.24774   0.56388   0.00000  Uiso   1.00
O492   O     0.68935   0.17155   0.55191   0.00000  Uiso   1.00
O493   O     0.81064   0.16179   0.44809   0.00000  Uiso   1.00
O494   O     0.68090   0.16176   0.44810   0.00000  Uiso   1.00
O495   O     0.81910   0.17157   0.55190   0.00000  Uiso   1.00
O496   O     0.89303   0.24752   0.58271   0.00000  Uiso   1.00
C497   C     0.24822   0.39991   0.48437   0.00000  Uiso   1.00
C498   C     0.08845   0.45792   0.45880   0.00000  Uiso   1.00
C499   C     0.38381   0.50313   0.49820   0.00000  Uiso   1.00
C500   C     0.11619   0.49687   0.50179   0.00000  Uiso   1.00
C501   C     0.40214   0.46536   0.45425   0.00000  Uiso   1.00
C502   C     0.09786   0.53464   0.54575   0.00000  Uiso   1.00
C503   C     0.44843   0.46395   0.45455   0.00000  Uiso   1.00
C504   C     0.05157   0.53605   0.54545   0.00000  Uiso   1.00
C505   C     0.47665   0.50105   0.49939   0.00000  Uiso   1.00
C506   C     0.02335   0.49894   0.50061   0.00000  Uiso   1.00
C507   C     0.45824   0.54023   0.54300   0.00000  Uiso   1.00
C508   C     0.25178   0.60009   0.51563   0.00000  Uiso   1.00
C509   C     0.04176   0.45977   0.45700   0.00000  Uiso   1.00
C510   C     0.46687   0.42542   0.41135   0.00000  Uiso   1.00
C511   C     0.03313   0.57458   0.58865   0.00000  Uiso   1.00
C512   C     0.38493   0.62331   0.55511   0.00000  Uiso   1.00
C513   C     0.11503   0.37667   0.44488   0.00000  Uiso   1.00
C514   C     0.19207   0.41188   0.65260   0.00000  Uiso   1.00
C515   C     0.30793   0.58812   0.34740   0.00000  Uiso   1.00
C516   C     0.01316   0.42332   0.41250   0.00000  Uiso   1.00
C517   C     0.48684   0.57668   0.58750   0.00000  Uiso   1.00
C518   C     0.24604   0.34375   0.47594   0.00000  Uiso   1.00
C519   C     0.25396   0.65625   0.52406   0.00000  Uiso   1.00
C520   C     0.16452   0.49890   0.50052   0.00000  Uiso   1.00
C521   C     0.33548   0.50110   0.49948   0.00000  Uiso   1.00
C522   C     0.41155   0.54208   0.54121   0.00000  Uiso   1.00
Cu523  Cu    0.25500   0.50579   0.56146   0.00000  Uiso   1.00
Cu524  Cu    0.24499   0.49421   0.43854   0.00000  Uiso   1.00
H525   H     0.38023   0.43613   0.42090   0.00000  Uiso   1.00
H526   H     0.41650   0.64065   0.54214   0.00000  Uiso   1.00
H527   H     0.37088   0.65487   0.58875   0.00000  Uiso   1.00
H528   H     0.13985   0.38904   0.48586   0.00000  Uiso   1.00
H529   H     0.12933   0.34524   0.41138   0.00000  Uiso   1.00
H530   H     0.08339   0.35915   0.45745   0.00000  Uiso   1.00
H531   H     0.17713   0.41266   0.36269   0.00000  Uiso   1.00
H532   H     0.22311   0.39046   0.65079   0.00000  Uiso   1.00
H533   H     0.16762   0.38931   0.61481   0.00000  Uiso   1.00
H534   H     0.27689   0.60954   0.34921   0.00000  Uiso   1.00
H535   H     0.32287   0.58734   0.63731   0.00000  Uiso   1.00
H536   H     0.11977   0.56388   0.57910   0.00000  Uiso   1.00
H537   H     0.33238   0.61069   0.38520   0.00000  Uiso   1.00
H538   H     0.44547   0.39675   0.37677   0.00000  Uiso   1.00
H539   H     0.05453   0.60325   0.62323   0.00000  Uiso   1.00
H540   H     0.02642   0.39308   0.37842   0.00000  Uiso   1.00
H541   H     0.47358   0.60692   0.62157   0.00000  Uiso   1.00
H542   H     0.23729   0.65280   0.42994   0.00000  Uiso   1.00
H543   H     0.26271   0.34720   0.57006   0.00000  Uiso   1.00
H544   H     0.35988   0.61096   0.51439   0.00000  Uiso   1.00
N545   N     0.23744   0.48547   0.34617   0.00000  Uiso   1.00
N546   N     0.26255   0.51453   0.65383   0.00000  Uiso   1.00
O547   O     0.25325   0.42871   0.53992   0.00000  Uiso   1.00
O548   O     0.10698   0.41915   0.41730   0.00000  Uiso   1.00
O549   O     0.19983   0.46332   0.64437   0.00000  Uiso   1.00
O550   O     0.30017   0.53668   0.35563   0.00000  Uiso   1.00
O551   O     0.24674   0.57129   0.46008   0.00000  Uiso   1.00
O552   O     0.24480   0.41892   0.43612   0.00000  Uiso   1.00
O553   O     0.25520   0.58108   0.56388   0.00000  Uiso   1.00
O554   O     0.18935   0.50488   0.55191   0.00000  Uiso   1.00
O555   O     0.31064   0.49512   0.44809   0.00000  Uiso   1.00
O556   O     0.18090   0.49510   0.44810   0.00000  Uiso   1.00
O557   O     0.31910   0.50490   0.55190   0.00000  Uiso   1.00
O558   O     0.39303   0.58085   0.58271   0.00000  Uiso   1.00
C559   C     0.74822   0.39991   0.48437   0.00000  Uiso   1.00
C560   C     0.58845   0.45792   0.45880   0.00000  Uiso   1.00
C561   C     0.88381   0.50313   0.49820   0.00000  Uiso   1.00
C562   C     0.61619   0.49687   0.50179   0.00000  Uiso   1.00
C563   C     0.90214   0.46536   0.45425   0.00000  Uiso   1.00
C564   C     0.59786   0.53464   0.54575   0.00000  Uiso   1.00
C565   C     0.94843   0.46395   0.45455   0.00000  Uiso   1.00
C566   C     0.55157   0.53605   0.54545   0.00000  Uiso   1.00
C567   C     0.97665   0.50105   0.49939   0.00000  Uiso   1.00
C568   C     0.52335   0.49894   0.50061   0.00000  Uiso   1.00
C569   C     0.95824   0.54023   0.54300   0.00000  Uiso   1.00
C570   C     0.75178   0.60009   0.51563   0.00000  Uiso   1.00
C571   C     0.54176   0.45977   0.45700   0.00000  Uiso   1.00
C572   C     0.96687   0.42542   0.41135   0.00000  Uiso   1.00
C573   C     0.53313   0.57458   0.58865   0.00000  Uiso   1.00
C574   C     0.88493   0.62331   0.55511   0.00000  Uiso   1.00
C575   C     0.61503   0.37667   0.44488   0.00000  Uiso   1.00
C576   C     0.69207   0.41188   0.65260   0.00000  Uiso   1.00
C577   C     0.80793   0.58812   0.34740   0.00000  Uiso   1.00
C578   C     0.51316   0.42332   0.41250   0.00000  Uiso   1.00
C579   C     0.98684   0.57668   0.58750   0.00000  Uiso   1.00
C580   C     0.74604   0.34375   0.47594   0.00000  Uiso   1.00
C581   C     0.75396   0.65625   0.52406   0.00000  Uiso   1.00
C582   C     0.66452   0.49890   0.50052   0.00000  Uiso   1.00
C583   C     0.83548   0.50110   0.49948   0.00000  Uiso   1.00
C584   C     0.91155   0.54208   0.54121   0.00000  Uiso   1.00
Cu585  Cu    0.75500   0.50579   0.56146   0.00000  Uiso   1.00
Cu586  Cu    0.74499   0.49421   0.43854   0.00000  Uiso   1.00
H587   H     0.88023   0.43613   0.42090   0.00000  Uiso   1.00
H588   H     0.91650   0.64065   0.54214   0.00000  Uiso   1.00
H589   H     0.87088   0.65487   0.58875   0.00000  Uiso   1.00
H590   H     0.63985   0.38904   0.48586   0.00000  Uiso   1.00
H591   H     0.62933   0.34524   0.41138   0.00000  Uiso   1.00
H592   H     0.58339   0.35915   0.45745   0.00000  Uiso   1.00
H593   H     0.67713   0.41266   0.36269   0.00000  Uiso   1.00
H594   H     0.72311   0.39046   0.65079   0.00000  Uiso   1.00
H595   H     0.66762   0.38931   0.61481   0.00000  Uiso   1.00
H596   H     0.77689   0.60954   0.34921   0.00000  Uiso   1.00
H597   H     0.82287   0.58734   0.63731   0.00000  Uiso   1.00
H598   H     0.61977   0.56388   0.57910   0.00000  Uiso   1.00
H599   H     0.83238   0.61069   0.38520   0.00000  Uiso   1.00
H600   H     0.94547   0.39675   0.37677   0.00000  Uiso   1.00
H601   H     0.55453   0.60325   0.62323   0.00000  Uiso   1.00
H602   H     0.52642   0.39308   0.37842   0.00000  Uiso   1.00
H603   H     0.97358   0.60692   0.62157   0.00000  Uiso   1.00
H604   H     0.73729   0.65280   0.42994   0.00000  Uiso   1.00
H605   H     0.76271   0.34720   0.57006   0.00000  Uiso   1.00
H606   H     0.85988   0.61096   0.51439   0.00000  Uiso   1.00
N607   N     0.73744   0.48547   0.34617   0.00000  Uiso   1.00
N608   N     0.76255   0.51453   0.65383   0.00000  Uiso   1.00
O609   O     0.75325   0.42871   0.53992   0.00000  Uiso   1.00
O610   O     0.60698   0.41915   0.41730   0.00000  Uiso   1.00
O611   O     0.69983   0.46332   0.64437   0.00000  Uiso   1.00
O612   O     0.80017   0.53668   0.35563   0.00000  Uiso   1.00
O613   O     0.74674   0.57129   0.46008   0.00000  Uiso   1.00
O614   O     0.74480   0.41892   0.43612   0.00000  Uiso   1.00
O615   O     0.75520   0.58108   0.56388   0.00000  Uiso   1.00
O616   O     0.68935   0.50488   0.55191   0.00000  Uiso   1.00
O617   O     0.81064   0.49512   0.44809   0.00000  Uiso   1.00
O618   O     0.68090   0.49510   0.44810   0.00000  Uiso   1.00
O619   O     0.81910   0.50490   0.55190   0.00000  Uiso   1.00
O620   O     0.89303   0.58085   0.58271   0.00000  Uiso   1.00
C621   C     0.24822   0.73324   0.48437   0.00000  Uiso   1.00
C622   C     0.08845   0.79125   0.45880   0.00000  Uiso   1.00
C623   C     0.38381   0.83647   0.49820   0.00000  Uiso   1.00
C624   C     0.11619   0.83020   0.50179   0.00000  Uiso   1.00
C625   C     0.40214   0.79869   0.45425   0.00000  Uiso   1.00
C626   C     0.09786   0.86798   0.54575   0.00000  Uiso   1.00
C627   C     0.44843   0.79728   0.45455   0.00000  Uiso   1.00
C628   C     0.05157   0.86938   0.54545   0.00000  Uiso   1.00
C629   C     0.47665   0.83439   0.49939   0.00000  Uiso   1.00
C630   C     0.02335   0.83228   0.50061   0.00000  Uiso   1.00
C631   C     0.45824   0.87356   0.54300   0.00000  Uiso   1.00
C632   C     0.25178   0.93342   0.51563   0.00000  Uiso   1.00
C633   C     0.04176   0.79310   0.45700   0.00000  Uiso   1.00
C634   C     0.46687   0.75875   0.41135   0.00000  Uiso   1.00
C635   C     0.03313   0.90791   0.58865   0.00000  Uiso   1.00
C636   C     0.38493   0.95664   0.55511   0.00000  Uiso   1.00
C637   C     0.11503   0.71000   0.44488   0.00000  Uiso   1.00
C638   C     0.19207   0.74521   0.65260   0.00000  Uiso   1.00
C639   C     0.30793   0.92145   0.34740   0.00000  Uiso   1.00
C640   C     0.01316   0.75665   0.41250   0.00000  Uiso   1.00
C641   C     0.48684   0.91001   0.58750   0.00000  Uiso   1.00
C642   C     0.24604   0.67708   0.47594   0.00000  Uiso   1.00
C643   C     0.25396   0.98958   0.52406   0.00000  Uiso   1.00
C644   C     0.16452   0.83223   0.50052   0.00000  Uiso   1.00
C645   C     0.33548   0.83444   0.49948   0.00000  Uiso   1.00
C646   C     0.41155   0.87541   0.54121   0.00000  Uiso   1.00
Cu647  Cu    0.25500   0.83913   0.56146   0.00000  Uiso   1.00
Cu648  Cu    0.24499   0.82754   0.43854   0.00000  Uiso   1.00
H649   H     0.38023   0.76946   0.42090   0.00000  Uiso   1.00
H650   H     0.41650   0.97399   0.54214   0.00000  Uiso   1.00
H651   H     0.37088   0.98820   0.58875   0.00000  Uiso   1.00
H652   H     0.13985   0.72237   0.48586   0.00000  Uiso   1.00
H653   H     0.12933   0.67858   0.41138   0.00000  Uiso   1.00
H654   H     0.08339   0.69248   0.45745   0.00000  Uiso   1.00
H655   H     0.17713   0.74599   0.36269   0.00000  Uiso   1.00
H656   H     0.22311   0.72379   0.65079   0.00000  Uiso   1.00
H657   H     0.16762   0.72264   0.61481   0.00000  Uiso   1.00
H658   H     0.27689   0.94288   0.34921   0.00000  Uiso   1.00
H659   H     0.32287   0.92067   0.63731   0.00000  Uiso   1.00
H660   H     0.11977   0.89721   0.57910   0.00000  Uiso   1.00
H661   H     0.33238   0.94403   0.38520   0.00000  Uiso   1.00
H662   H     0.44547   0.73009   0.37677   0.00000  Uiso   1.00
H663   H     0.05453   0.93658   0.62323   0.00000  Uiso   1.00
H664   H     0.02642   0.72641   0.37842   0.00000  Uiso   1.00
H665   H     0.47358   0.94026   0.62157   0.00000  Uiso   1.00
H666   H     0.23729   0.98613   0.42994   0.00000  Uiso   1.00
H667   H     0.26271   0.68053   0.57006   0.00000  Uiso   1.00
H668   H     0.35988   0.94429   0.51439   0.00000  Uiso   1.00
N669   N     0.23744   0.81881   0.34617   0.00000  Uiso   1.00
N670   N     0.26255   0.84786   0.65383   0.00000  Uiso   1.00
O671   O     0.25325   0.76204   0.53992   0.00000  Uiso   1.00
O672   O     0.10698   0.75249   0.41730   0.00000  Uiso   1.00
O673   O     0.19983   0.79666   0.64437   0.00000  Uiso   1.00
O674   O     0.30017   0.87001   0.35563   0.00000  Uiso   1.00
O675   O     0.24674   0.90462   0.46008   0.00000  Uiso   1.00
O676   O     0.24480   0.75226   0.43612   0.00000  Uiso   1.00
O677   O     0.25520   0.91441   0.56388   0.00000  Uiso   1.00
O678   O     0.18935   0.83821   0.55191   0.00000  Uiso   1.00
O679   O     0.31064   0.82845   0.44809   0.00000  Uiso   1.00
O680   O     0.18090   0.82843   0.44810   0.00000  Uiso   1.00
O681   O     0.31910   0.83824   0.55190   0.00000  Uiso   1.00
O682   O     0.39303   0.91418   0.58271   0.00000  Uiso   1.00
C683   C     0.74822   0.73324   0.48437   0.00000  Uiso   1.00
C684   C     0.58845   0.79125   0.45880   0.00000  Uiso   1.00
C685   C     0.88381   0.83647   0.49820   0.00000  Uiso   1.00
C686   C     0.61619   0.83020   0.50179   0.00000  Uiso   1.00
C687   C     0.90214   0.79869   0.45425   0.00000  Uiso   1.00
C688   C     0.59786   0.86798   0.54575   0.00000  Uiso   1.00
C689   C     0.94843   0.79728   0.45455   0.00000  Uiso   1.00
C690   C     0.55157   0.86938   0.54545   0.00000  Uiso   1.00
C691   C     0.97665   0.83439   0.49939   0.00000  Uiso   1.00
C692   C     0.52335   0.83228   0.50061   0.00000  Uiso   1.00
C693   C     0.95824   0.87356   0.54300   0.00000  Uiso   1.00
C694   C     0.75178   0.93342   0.51563   0.00000  Uiso   1.00
C695   C     0.54176   0.79310   0.45700   0.00000  Uiso   1.00
C696   C     0.96687   0.75875   0.41135   0.00000  Uiso   1.00
C697   C     0.53313   0.90791   0.58865   0.00000  Uiso   1.00
C698   C     0.88493   0.95664   0.55511   0.00000  Uiso   1.00
C699   C     0.61503   0.71000   0.44488   0.00000  Uiso   1.00
C700   C     0.69207   0.74521   0.65260   0.00000  Uiso   1.00
C701   C     0.80793   0.92145   0.34740   0.00000  Uiso   1.00
C702   C     0.51316   0.75665   0.41250   0.00000  Uiso   1.00
C703   C     0.98684   0.91001   0.58750   0.00000  Uiso   1.00
C704   C     0.74604   0.67708   0.47594   0.00000  Uiso   1.00
C705   C     0.75396   0.98958   0.52406   0.00000  Uiso   1.00
C706   C     0.66452   0.83223   0.50052   0.00000  Uiso   1.00
C707   C     0.83548   0.83444   0.49948   0.00000  Uiso   1.00
C708   C     0.91155   0.87541   0.54121   0.00000  Uiso   1.00
Cu709  Cu    0.75500   0.83913   0.56146   0.00000  Uiso   1.00
Cu710  Cu    0.74499   0.82754   0.43854   0.00000  Uiso   1.00
H711   H     0.88023   0.76946   0.42090   0.00000  Uiso   1.00
H712   H     0.91650   0.97399   0.54214   0.00000  Uiso   1.00
H713   H     0.87088   0.98820   0.58875   0.00000  Uiso   1.00
H714   H     0.63985   0.72237   0.48586   0.00000  Uiso   1.00
H715   H     0.62933   0.67858   0.41138   0.00000  Uiso   1.00
H716   H     0.58339   0.69248   0.45745   0.00000  Uiso   1.00
H717   H     0.67713   0.74599   0.36269   0.00000  Uiso   1.00
H718   H     0.72311   0.72379   0.65079   0.00000  Uiso   1.00
H719   H     0.66762   0.72264   0.61481   0.00000  Uiso   1.00
H720   H     0.77689   0.94288   0.34921   0.00000  Uiso   1.00
H721   H     0.82287   0.92067   0.63731   0.00000  Uiso   1.00
H722   H     0.61977   0.89721   0.57910   0.00000  Uiso   1.00
H723   H     0.83238   0.94403   0.38520   0.00000  Uiso   1.00
H724   H     0.94547   0.73009   0.37677   0.00000  Uiso   1.00
H725   H     0.55453   0.93658   0.62323   0.00000  Uiso   1.00
H726   H     0.52642   0.72641   0.37842   0.00000  Uiso   1.00
H727   H     0.97358   0.94026   0.62157   0.00000  Uiso   1.00
H728   H     0.73729   0.98613   0.42994   0.00000  Uiso   1.00
H729   H     0.76271   0.68053   0.57006   0.00000  Uiso   1.00
H730   H     0.85988   0.94429   0.51439   0.00000  Uiso   1.00
N731   N     0.73744   0.81881   0.34617   0.00000  Uiso   1.00
N732   N     0.76255   0.84786   0.65383   0.00000  Uiso   1.00
O733   O     0.75325   0.76204   0.53992   0.00000  Uiso   1.00
O734   O     0.60698   0.75249   0.41730   0.00000  Uiso   1.00
O735   O     0.69983   0.79666   0.64437   0.00000  Uiso   1.00
O736   O     0.80017   0.87001   0.35563   0.00000  Uiso   1.00
O737   O     0.74674   0.90462   0.46008   0.00000  Uiso   1.00
O738   O     0.74480   0.75226   0.43612   0.00000  Uiso   1.00
O739   O     0.75520   0.91441   0.56388   0.00000  Uiso   1.00
O740   O     0.68935   0.83821   0.55191   0.00000  Uiso   1.00
O741   O     0.81064   0.82845   0.44809   0.00000  Uiso   1.00
O742   O     0.68090   0.82843   0.44810   0.00000  Uiso   1.00
O743   O     0.81910   0.83824   0.55190   0.00000  Uiso   1.00
O744   O     0.89303   0.91418   0.58271   0.00000  Uiso   1.00
C745   C     0.24822   0.06657   0.81771   0.00000  Uiso   1.00
C746   C     0.08845   0.12458   0.79213   0.00000  Uiso   1.00
C747   C     0.38381   0.16980   0.83154   0.00000  Uiso   1.00
C748   C     0.11619   0.16353   0.83513   0.00000  Uiso   1.00
C749   C     0.40214   0.13202   0.78758   0.00000  Uiso   1.00
C750   C     0.09786   0.20131   0.87908   0.00000  Uiso   1.00
C751   C     0.44843   0.13062   0.78788   0.00000  Uiso   1.00
C752   C     0.05157   0.20272   0.87878   0.00000  Uiso   1.00
C753   C     0.47665   0.16772   0.83272   0.00000  Uiso   1.00
C754   C     0.02335   0.16561   0.83394   0.00000  Uiso   1.00
C755   C     0.45824   0.20690   0.87634   0.00000  Uiso   1.00
C756   C     0.25178   0.26676   0.84896   0.00000  Uiso   1.00
C757   C     0.04176   0.12643   0.79033   0.00000  Uiso   1.00
C758   C     0.46687   0.09209   0.74468   0.00000  Uiso   1.00
C759   C     0.03313   0.24125   0.92198   0.00000  Uiso   1.00
C760   C     0.38493   0.28997   0.88844   0.00000  Uiso   1.00
C761   C     0.11503   0.04334   0.77822   0.00000  Uiso   1.00
C762   C     0.19207   0.07855   0.98593   0.00000  Uiso   1.00
C763   C     0.30793   0.25479   0.68073   0.00000  Uiso   1.00
C764   C     0.01316   0.08999   0.74583   0.00000  Uiso   1.00
C765   C     0.48684   0.24335   0.92083   0.00000  Uiso   1.00
C766   C     0.24604   0.01042   0.80927   0.00000  Uiso   1.00
C767   C     0.25396   0.32292   0.85740   0.00000  Uiso   1.00
C768   C     0.16452   0.16556   0.83385   0.00000  Uiso   1.00
C769   C     0.33548   0.16777   0.83282   0.00000  Uiso   1.00
C770   C     0.41155   0.20875   0.87454   0.00000  Uiso   1.00
Cu771  Cu    0.25500   0.17246   0.89479   0.00000  Uiso   1.00
Cu772  Cu    0.24499   0.16087   0.77187   0.00000  Uiso   1.00
H773   H     0.38023   0.10279   0.75423   0.00000  Uiso   1.00
H774   H     0.41650   0.30732   0.87548   0.00000  Uiso   1.00
H775   H     0.37088   0.32153   0.92208   0.00000  Uiso   1.00
H776   H     0.13985   0.05570   0.81919   0.00000  Uiso   1.00
H777   H     0.12933   0.01191   0.74471   0.00000  Uiso   1.00
H778   H     0.08339   0.02582   0.79078   0.00000  Uiso   1.00
H779   H     0.17713   0.07933   0.69602   0.00000  Uiso   1.00
H780   H     0.22311   0.05712   0.98412   0.00000  Uiso   1.00
H781   H     0.16762   0.05597   0.94814   0.00000  Uiso   1.00
H782   H     0.27689   0.27621   0.68254   0.00000  Uiso   1.00
H783   H     0.32287   0.25401   0.97065   0.00000  Uiso   1.00
H784   H     0.11977   0.23054   0.91243   0.00000  Uiso   1.00
H785   H     0.33238   0.27736   0.71853   0.00000  Uiso   1.00
H786   H     0.44547   0.06342   0.71010   0.00000  Uiso   1.00
H787   H     0.05453   0.26992   0.95656   0.00000  Uiso   1.00
H788   H     0.02642   0.05975   0.71175   0.00000  Uiso   1.00
H789   H     0.47358   0.27359   0.95491   0.00000  Uiso   1.00
H790   H     0.23729   0.31947   0.76327   0.00000  Uiso   1.00
H791   H     0.26271   0.01387   0.90340   0.00000  Uiso   1.00
H792   H     0.35988   0.27763   0.84772   0.00000  Uiso   1.00
N793   N     0.23744   0.15214   0.67951   0.00000  Uiso   1.00
N794   N     0.26255   0.18119   0.98716   0.00000  Uiso   1.00
O795   O     0.25325   0.09538   0.87326   0.00000  Uiso   1.00
O796   O     0.10698   0.08582   0.75063   0.00000  Uiso   1.00
O797   O     0.19983   0.12999   0.97771   0.00000  Uiso   1.00
O798   O     0.30017   0.20334   0.68896   0.00000  Uiso   1.00
O799   O     0.24674   0.23796   0.79341   0.00000  Uiso   1.00
O800   O     0.24480   0.08559   0.76945   0.00000  Uiso   1.00
O801   O     0.25520   0.24774   0.89721   0.00000  Uiso   1.00
O802   O     0.18935   0.17155   0.88524   0.00000  Uiso   1.00
O803   O     0.31064   0.16179   0.78143   0.00000  Uiso   1.00
O804   O     0.18090   0.16176   0.78143   0.00000  Uiso   1.00
O805   O     0.31910   0.17157   0.88523   0.00000  Uiso   1.00
O806   O     0.39303   0.24752   0.91605   0.00000  Uiso   1.00
C807   C     0.74822   0.06657   0.81771   0.00000  Uiso   1.00
C808   C     0.58845   0.12458   0.79213   0.00000  Uiso   1.00
C809   C     0.88381   0.16980   0.83154   0.00000  Uiso   1.00
C810   C     0.61619   0.16353   0.83513   0.00000  Uiso   1.00
C811   C     0.90214   0.13202   0.78758   0.00000  Uiso   1.00
C812   C     0.59786   0.20131   0.87908   0.00000  Uiso   1.00
C813   C     0.94843   0.13062   0.78788   0.00000  Uiso   1.00
C814   C     0.55157   0.20272   0.87878   0.00000  Uiso   1.00
C815   C     0.97665   0.16772   0.83272   0.00000  Uiso   1.00
C816   C     0.52335   0.16561   0.83394   0.00000  Uiso   1.00
C817   C     0.95824   0.20690   0.87634   0.00000  Uiso   1.00
C818   C     0.75178   0.26676   0.84896   0.00000  Uiso   1.00
C819   C     0.54176   0.12643   0.79033   0.00000  Uiso   1.00
C820   C     0.96687   0.09209   0.74468   0.00000  Uiso   1.00
C821   C     0.53313   0.24125   0.92198   0.00000  Uiso   1.00
C822   C     0.88493   0.28997   0.88844   0.00000  Uiso   1.00
C823   C     0.61503   0.04334   0.77822   0.00000  Uiso   1.00
C824   C     0.69207   0.07855   0.98593   0.00000  Uiso   1.00
C825   C     0.80793   0.25479   0.68073   0.00000  Uiso   1.00
C826   C     0.51316   0.08999   0.74583   0.00000  Uiso   1.00
C827   C     0.98684   0.24335   0.92083   0.00000  Uiso   1.00
C828   C     0.74604   0.01042   0.80927   0.00000  Uiso   1.00
C829   C     0.75396   0.32292   0.85740   0.00000  Uiso   1.00
C830   C     0.66452   0.16556   0.83385   0.00000  Uiso   1.00
C831   C     0.83548   0.16777   0.83282   0.00000  Uiso   1.00
C832   C     0.91155   0.20875   0.87454   0.00000  Uiso   1.00
Cu833  Cu    0.75500   0.17246   0.89479   0.00000  Uiso   1.00
Cu834  Cu    0.74499   0.16087   0.77187   0.00000  Uiso   1.00
H835   H     0.88023   0.10279   0.75423   0.00000  Uiso   1.00
H836   H     0.91650   0.30732   0.87548   0.00000  Uiso   1.00
H837   H     0.87088   0.32153   0.92208   0.00000  Uiso   1.00
H838   H     0.63985   0.05570   0.81919   0.00000  Uiso   1.00
H839   H     0.62933   0.01191   0.74471   0.00000  Uiso   1.00
H840   H     0.58339   0.02582   0.79078   0.00000  Uiso   1.00
H841   H     0.67713   0.07933   0.69602   0.00000  Uiso   1.00
H842   H     0.72311   0.05712   0.98412   0.00000  Uiso   1.00
H843   H     0.66762   0.05597   0.94814   0.00000  Uiso   1.00
H844   H     0.77689   0.27621   0.68254   0.00000  Uiso   1.00
H845   H     0.82287   0.25401   0.97065   0.00000  Uiso   1.00
H846   H     0.61977   0.23054   0.91243   0.00000  Uiso   1.00
H847   H     0.83238   0.27736   0.71853   0.00000  Uiso   1.00
H848   H     0.94547   0.06342   0.71010   0.00000  Uiso   1.00
H849   H     0.55453   0.26992   0.95656   0.00000  Uiso   1.00
H850   H     0.52642   0.05975   0.71175   0.00000  Uiso   1.00
H851   H     0.97358   0.27359   0.95491   0.00000  Uiso   1.00
H852   H     0.73729   0.31947   0.76327   0.00000  Uiso   1.00
H853   H     0.76271   0.01387   0.90340   0.00000  Uiso   1.00
H854   H     0.85988   0.27763   0.84772   0.00000  Uiso   1.00
N855   N     0.73744   0.15214   0.67951   0.00000  Uiso   1.00
N856   N     0.76255   0.18119   0.98716   0.00000  Uiso   1.00
O857   O     0.75325   0.09538   0.87326   0.00000  Uiso   1.00
O858   O     0.60698   0.08582   0.75063   0.00000  Uiso   1.00
O859   O     0.69983   0.12999   0.97771   0.00000  Uiso   1.00
O860   O     0.80017   0.20334   0.68896   0.00000  Uiso   1.00
O861   O     0.74674   0.23796   0.79341   0.00000  Uiso   1.00
O862   O     0.74480   0.08559   0.76945   0.00000  Uiso   1.00
O863   O     0.75520   0.24774   0.89721   0.00000  Uiso   1.00
O864   O     0.68935   0.17155   0.88524   0.00000  Uiso   1.00
O865   O     0.81064   0.16179   0.78143   0.00000  Uiso   1.00
O866   O     0.68090   0.16176   0.78143   0.00000  Uiso   1.00
O867   O     0.81910   0.17157   0.88523   0.00000  Uiso   1.00
O868   O     0.89303   0.24752   0.91605   0.00000  Uiso   1.00
C869   C     0.24822   0.39991   0.81771   0.00000  Uiso   1.00
C870   C     0.08845   0.45792   0.79213   0.00000  Uiso   1.00
C871   C     0.38381   0.50313   0.83154   0.00000  Uiso   1.00
C872   C     0.11619   0.49687   0.83513   0.00000  Uiso   1.00
C873   C     0.40214   0.46536   0.78758   0.00000  Uiso   1.00
C874   C     0.09786   0.53464   0.87908   0.00000  Uiso   1.00
C875   C     0.44843   0.46395   0.78788   0.00000  Uiso   1.00
C876   C     0.05157   0.53605   0.87878   0.00000  Uiso   1.00
C877   C     0.47665   0.50105   0.83272   0.00000  Uiso   1.00
C878   C     0.02335   0.49894   0.83394   0.00000  Uiso   1.00
C879   C     0.45824   0.54023   0.87634   0.00000  Uiso   1.00
C880   C     0.25178   0.60009   0.84896   0.00000  Uiso   1.00
C881   C     0.04176   0.45977   0.79033   0.00000  Uiso   1.00
C882   C     0.46687   0.42542   0.74468   0.00000  Uiso   1.00
C883   C     0.03313   0.57458   0.92198   0.00000  Uiso   1.00
C884   C     0.38493   0.62331   0.88844   0.00000  Uiso   1.00
C885   C     0.11503   0.37667   0.77822   0.00000  Uiso   1.00
C886   C     0.19207   0.41188   0.98593   0.00000  Uiso   1.00
C887   C     0.30793   0.58812   0.68073   0.00000  Uiso   1.00
C888   C     0.01316   0.42332   0.74583   0.00000  Uiso   1.00
C889   C     0.48684   0.57668   0.92083   0.00000  Uiso   1.00
C890   C     0.24604   0.34375   0.80927   0.00000  Uiso   1.00
C891   C     0.25396   0.65625   0.85740   0.00000  Uiso   1.00
C892   C     0.16452   0.49890   0.83385   0.00000  Uiso   1.00
C893   C     0.33548   0.50110   0.83282   0.00000  Uiso   1.00
C894   C     0.41155   0.54208   0.87454   0.00000  Uiso   1.00
Cu895  Cu    0.25500   0.50579   0.89479   0.00000  Uiso   1.00
Cu896  Cu    0.24499   0.49421   0.77187   0.00000  Uiso   1.00
H897   H     0.38023   0.43613   0.75423   0.00000  Uiso   1.00
H898   H     0.41650   0.64065   0.87548   0.00000  Uiso   1.00
H899   H     0.37088   0.65487   0.92208   0.00000  Uiso   1.00
H900   H     0.13985   0.38904   0.81919   0.00000  Uiso   1.00
H901   H     0.12933   0.34524   0.74471   0.00000  Uiso   1.00
H902   H     0.08339   0.35915   0.79078   0.00000  Uiso   1.00
H903   H     0.17713   0.41266   0.69602   0.00000  Uiso   1.00
H904   H     0.22311   0.39046   0.98412   0.00000  Uiso   1.00
H905   H     0.16762   0.38931   0.94814   0.00000  Uiso   1.00
H906   H     0.27689   0.60954   0.68254   0.00000  Uiso   1.00
H907   H     0.32287   0.58734   0.97065   0.00000  Uiso   1.00
H908   H     0.11977   0.56388   0.91243   0.00000  Uiso   1.00
H909   H     0.33238   0.61069   0.71853   0.00000  Uiso   1.00
H910   H     0.44547   0.39675   0.71010   0.00000  Uiso   1.00
H911   H     0.05453   0.60325   0.95656   0.00000  Uiso   1.00
H912   H     0.02642   0.39308   0.71175   0.00000  Uiso   1.00
H913   H     0.47358   0.60692   0.95491   0.00000  Uiso   1.00
H914   H     0.23729   0.65280   0.76327   0.00000  Uiso   1.00
H915   H     0.26271   0.34720   0.90340   0.00000  Uiso   1.00
H916   H     0.35988   0.61096   0.84772   0.00000  Uiso   1.00
N917   N     0.23744   0.48547   0.67951   0.00000  Uiso   1.00
N918   N     0.26255   0.51453   0.98716   0.00000  Uiso   1.00
O919   O     0.25325   0.42871   0.87326   0.00000  Uiso   1.00
O920   O     0.10698   0.41915   0.75063   0.00000  Uiso   1.00
O921   O     0.19983   0.46332   0.97771   0.00000  Uiso   1.00
O922   O     0.30017   0.53668   0.68896   0.00000  Uiso   1.00
O923   O     0.24674   0.57129   0.79341   0.00000  Uiso   1.00
O924   O     0.24480   0.41892   0.76945   0.00000  Uiso   1.00
O925   O     0.25520   0.58108   0.89721   0.00000  Uiso   1.00
O926   O     0.18935   0.50488   0.88524   0.00000  Uiso   1.00
O927   O     0.31064   0.49512   0.78143   0.00000  Uiso   1.00
O928   O     0.18090   0.49510   0.78143   0.00000  Uiso   1.00
O929   O     0.31910   0.50490   0.88523   0.00000  Uiso   1.00
O930   O     0.39303   0.58085   0.91605   0.00000  Uiso   1.00
C931   C     0.74822   0.39991   0.81771   0.00000  Uiso   1.00
C932   C     0.58845   0.45792   0.79213   0.00000  Uiso   1.00
C933   C     0.88381   0.50313   0.83154   0.00000  Uiso   1.00
C934   C     0.61619   0.49687   0.83513   0.00000  Uiso   1.00
C935   C     0.90214   0.46536   0.78758   0.00000  Uiso   1.00
C936   C     0.59786   0.53464   0.87908   0.00000  Uiso   1.00
C937   C     0.94843   0.46395   0.78788   0.00000  Uiso   1.00
C938   C     0.55157   0.53605   0.87878   0.00000  Uiso   1.00
C939   C     0.97665   0.50105   0.83272   0.00000  Uiso   1.00
C940   C     0.52335   0.49894   0.83394   0.00000  Uiso   1.00
C941   C     0.95824   0.54023   0.87634   0.00000  Uiso   1.00
C942   C     0.75178   0.60009   0.84896   0.00000  Uiso   1.00
C943   C     0.54176   0.45977   0.79033   0.00000  Uiso   1.00
C944   C     0.96687   0.42542   0.74468   0.00000  Uiso   1.00
C945   C     0.53313   0.57458   0.92198   0.00000  Uiso   1.00
C946   C     0.88493   0.62331   0.88844   0.00000  Uiso   1.00
C947   C     0.61503   0.37667   0.77822   0.00000  Uiso   1.00
C948   C     0.69207   0.41188   0.98593   0.00000  Uiso   1.00
C949   C     0.80793   0.58812   0.68073   0.00000  Uiso   1.00
C950   C     0.51316   0.42332   0.74583   0.00000  Uiso   1.00
C951   C     0.98684   0.57668   0.92083   0.00000  Uiso   1.00
C952   C     0.74604   0.34375   0.80927   0.00000  Uiso   1.00
C953   C     0.75396   0.65625   0.85740   0.00000  Uiso   1.00
C954   C     0.66452   0.49890   0.83385   0.00000  Uiso   1.00
C955   C     0.83548   0.50110   0.83282   0.00000  Uiso   1.00
C956   C     0.91155   0.54208   0.87454   0.00000  Uiso   1.00
Cu957  Cu    0.75500   0.50579   0.89479   0.00000  Uiso   1.00
Cu958  Cu    0.74499   0.49421   0.77187   0.00000  Uiso   1.00
H959   H     0.88023   0.43613   0.75423   0.00000  Uiso   1.00
H960   H     0.91650   0.64065   0.87548   0.00000  Uiso   1.00
H961   H     0.87088   0.65487   0.92208   0.00000  Uiso   1.00
H962   H     0.63985   0.38904   0.81919   0.00000  Uiso   1.00
H963   H     0.62933   0.34524   0.74471   0.00000  Uiso   1.00
H964   H     0.58339   0.35915   0.79078   0.00000  Uiso   1.00
H965   H     0.67713   0.41266   0.69602   0.00000  Uiso   1.00
H966   H     0.72311   0.39046   0.98412   0.00000  Uiso   1.00
H967   H     0.66762   0.38931   0.94814   0.00000  Uiso   1.00
H968   H     0.77689   0.60954   0.68254   0.00000  Uiso   1.00
H969   H     0.82287   0.58734   0.97065   0.00000  Uiso   1.00
H970   H     0.61977   0.56388   0.91243   0.00000  Uiso   1.00
H971   H     0.83238   0.61069   0.71853   0.00000  Uiso   1.00
H972   H     0.94547   0.39675   0.71010   0.00000  Uiso   1.00
H973   H     0.55453   0.60325   0.95656   0.00000  Uiso   1.00
H974   H     0.52642   0.39308   0.71175   0.00000  Uiso   1.00
H975   H     0.97358   0.60692   0.95491   0.00000  Uiso   1.00
H976   H     0.73729   0.65280   0.76327   0.00000  Uiso   1.00
H977   H     0.76271   0.34720   0.90340   0.00000  Uiso   1.00
H978   H     0.85988   0.61096   0.84772   0.00000  Uiso   1.00
N979   N     0.73744   0.48547   0.67951   0.00000  Uiso   1.00
N980   N     0.76255   0.51453   0.98716   0.00000  Uiso   1.00
O981   O     0.75325   0.42871   0.87326   0.00000  Uiso   1.00
O982   O     0.60698   0.41915   0.75063   0.00000  Uiso   1.00
O983   O     0.69983   0.46332   0.97771   0.00000  Uiso   1.00
O984   O     0.80017   0.53668   0.68896   0.00000  Uiso   1.00
O985   O     0.74674   0.57129   0.79341   0.00000  Uiso   1.00
O986   O     0.74480   0.41892   0.76945   0.00000  Uiso   1.00
O987   O     0.75520   0.58108   0.89721   0.00000  Uiso   1.00
O988   O     0.68935   0.50488   0.88524   0.00000  Uiso   1.00
O989   O     0.81064   0.49512   0.78143   0.00000  Uiso   1.00
O990   O     0.68090   0.49510   0.78143   0.00000  Uiso   1.00
O991   O     0.81910   0.50490   0.88523   0.00000  Uiso   1.00
O992   O     0.89303   0.58085   0.91605   0.00000  Uiso   1.00
C993   C     0.24822   0.73324   0.81771   0.00000  Uiso   1.00
C994   C     0.08845   0.79125   0.79213   0.00000  Uiso   1.00
C995   C     0.38381   0.83647   0.83154   0.00000  Uiso   1.00
C996   C     0.11619   0.83020   0.83513   0.00000  Uiso   1.00
C997   C     0.40214   0.79869   0.78758   0.00000  Uiso   1.00
C998   C     0.09786   0.86798   0.87908   0.00000  Uiso   1.00
C999   C     0.44843   0.79728   0.78788   0.00000  Uiso   1.00
C1000  C     0.05157   0.86938   0.87878   0.00000  Uiso   1.00
C1001  C     0.47665   0.83439   0.83272   0.00000  Uiso   1.00
C1002  C     0.02335   0.83228   0.83394   0.00000  Uiso   1.00
C1003  C     0.45824   0.87356   0.87634   0.00000  Uiso   1.00
C1004  C     0.25178   0.93342   0.84896   0.00000  Uiso   1.00
C1005  C     0.04176   0.79310   0.79033   0.00000  Uiso   1.00
C1006  C     0.46687   0.75875   0.74468   0.00000  Uiso   1.00
C1007  C     0.03313   0.90791   0.92198   0.00000  Uiso   1.00
C1008  C     0.38493   0.95664   0.88844   0.00000  Uiso   1.00
C1009  C     0.11503   0.71000   0.77822   0.00000  Uiso   1.00
C1010  C     0.19207   0.74521   0.98593   0.00000  Uiso   1.00
C1011  C     0.30793   0.92145   0.68073   0.00000  Uiso   1.00
C1012  C     0.01316   0.75665   0.74583   0.00000  Uiso   1.00
C1013  C     0.48684   0.91001   0.92083   0.00000  Uiso   1.00
C1014  C     0.24604   0.67708   0.80927   0.00000  Uiso   1.00
C1015  C     0.25396   0.98958   0.85740   0.00000  Uiso   1.00
C1016  C     0.16452   0.83223   0.83385   0.00000  Uiso   1.00
C1017  C     0.33548   0.83444   0.83282   0.00000  Uiso   1.00
C1018  C     0.41155   0.87541   0.87454   0.00000  Uiso   1.00
Cu1019 Cu    0.25500   0.83913   0.89479   0.00000  Uiso   1.00
Cu1020 Cu    0.24499   0.82754   0.77187   0.00000  Uiso   1.00
H1021  H     0.38023   0.76946   0.75423   0.00000  Uiso   1.00
H1022  H     0.41650   0.97399   0.87548   0.00000  Uiso   1.00
H1023  H     0.37088   0.98820   0.92208   0.00000  Uiso   1.00
H1024  H     0.13985   0.72237   0.81919   0.00000  Uiso   1.00
H1025  H     0.12933   0.67858   0.74471   0.00000  Uiso   1.00
H1026  H     0.08339   0.69248   0.79078   0.00000  Uiso   1.00
H1027  H     0.17713   0.74599   0.69602   0.00000  Uiso   1.00
H1028  H     0.22311   0.72379   0.98412   0.00000  Uiso   1.00
H1029  H     0.16762   0.72264   0.94814   0.00000  Uiso   1.00
H1030  H     0.27689   0.94288   0.68254   0.00000  Uiso   1.00
H1031  H     0.32287   0.92067   0.97065   0.00000  Uiso   1.00
H1032  H     0.11977   0.89721   0.91243   0.00000  Uiso   1.00
H1033  H     0.33238   0.94403   0.71853   0.00000  Uiso   1.00
H1034  H     0.44547   0.73009   0.71010   0.00000  Uiso   1.00
H1035  H     0.05453   0.93658   0.95656   0.00000  Uiso   1.00
H1036  H     0.02642   0.72641   0.71175   0.00000  Uiso   1.00
H1037  H     0.47358   0.94026   0.95491   0.00000  Uiso   1.00
H1038  H     0.23729   0.98613   0.76327   0.00000  Uiso   1.00
H1039  H     0.26271   0.68053   0.90340   0.00000  Uiso   1.00
H1040  H     0.35988   0.94429   0.84772   0.00000  Uiso   1.00
N1041  N     0.23744   0.81881   0.67951   0.00000  Uiso   1.00
N1042  N     0.26255   0.84786   0.98716   0.00000  Uiso   1.00
O1043  O     0.25325   0.76204   0.87326   0.00000  Uiso   1.00
O1044  O     0.10698   0.75249   0.75063   0.00000  Uiso   1.00
O1045  O     0.19983   0.79666   0.97771   0.00000  Uiso   1.00
O1046  O     0.30017   0.87001   0.68896   0.00000  Uiso   1.00
O1047  O     0.24674   0.90462   0.79341   0.00000  Uiso   1.00
O1048  O     0.24480   0.75226   0.76945   0.00000  Uiso   1.00
O1049  O     0.25520   0.91441   0.89721   0.00000  Uiso   1.00
O1050  O     0.18935   0.83821   0.88524   0.00000  Uiso   1.00
O1051  O     0.31064   0.82845   0.78143   0.00000  Uiso   1.00
O1052  O     0.18090   0.82843   0.78143   0.00000  Uiso   1.00
O1053  O     0.31910   0.83824   0.88523   0.00000  Uiso   1.00
O1054  O     0.39303   0.91418   0.91605   0.00000  Uiso   1.00
C1055  C     0.74822   0.73324   0.81771   0.00000  Uiso   1.00
C1056  C     0.58845   0.79125   0.79213   0.00000  Uiso   1.00
C1057  C     0.88381   0.83647   0.83154   0.00000  Uiso   1.00
C1058  C     0.61619   0.83020   0.83513   0.00000  Uiso   1.00
C1059  C     0.90214   0.79869   0.78758   0.00000  Uiso   1.00
C1060  C     0.59786   0.86798   0.87908   0.00000  Uiso   1.00
C1061  C     0.94843   0.79728   0.78788   0.00000  Uiso   1.00
C1062  C     0.55157   0.86938   0.87878   0.00000  Uiso   1.00
C1063  C     0.97665   0.83439   0.83272   0.00000  Uiso   1.00
C1064  C     0.52335   0.83228   0.83394   0.00000  Uiso   1.00
C1065  C     0.95824   0.87356   0.87634   0.00000  Uiso   1.00
C1066  C     0.75178   0.93342   0.84896   0.00000  Uiso   1.00
C1067  C     0.54176   0.79310   0.79033   0.00000  Uiso   1.00
C1068  C     0.96687   0.75875   0.74468   0.00000  Uiso   1.00
C1069  C     0.53313   0.90791   0.92198   0.00000  Uiso   1.00
C1070  C     0.88493   0.95664   0.88844   0.00000  Uiso   1.00
C1071  C     0.61503   0.71000   0.77822   0.00000  Uiso   1.00
C1072  C     0.69207   0.74521   0.98593   0.00000  Uiso   1.00
C1073  C     0.80793   0.92145   0.68073   0.00000  Uiso   1.00
C1074  C     0.51316   0.75665   0.74583   0.00000  Uiso   1.00
C1075  C     0.98684   0.91001   0.92083   0.00000  Uiso   1.00
C1076  C     0.74604   0.67708   0.80927   0.00000  Uiso   1.00
C1077  C     0.75396   0.98958   0.85740   0.00000  Uiso   1.00
C1078  C     0.66452   0.83223   0.83385   0.00000  Uiso   1.00
C1079  C     0.83548   0.83444   0.83282   0.00000  Uiso   1.00
C1080  C     0.91155   0.87541   0.87454   0.00000  Uiso   1.00
Cu1081 Cu    0.75500   0.83913   0.89479   0.00000  Uiso   1.00
Cu1082 Cu    0.74499   0.82754   0.77187   0.00000  Uiso   1.00
H1083  H     0.88023   0.76946   0.75423   0.00000  Uiso   1.00
H1084  H     0.91650   0.97399   0.87548   0.00000  Uiso   1.00
H1085  H     0.87088   0.98820   0.92208   0.00000  Uiso   1.00
H1086  H     0.63985   0.72237   0.81919   0.00000  Uiso   1.00
H1087  H     0.62933   0.67858   0.74471   0.00000  Uiso   1.00
H1088  H     0.58339   0.69248   0.79078   0.00000  Uiso   1.00
H1089  H     0.67713   0.74599   0.69602   0.00000  Uiso   1.00
H1090  H     0.72311   0.72379   0.98412   0.00000  Uiso   1.00
H1091  H     0.66762   0.72264   0.94814   0.00000  Uiso   1.00
H1092  H     0.77689   0.94288   0.68254   0.00000  Uiso   1.00
H1093  H     0.82287   0.92067   0.97065   0.00000  Uiso   1.00
H1094  H     0.61977   0.89721   0.91243   0.00000  Uiso   1.00
H1095  H     0.83238   0.94403   0.71853   0.00000  Uiso   1.00
H1096  H     0.94547   0.73009   0.71010   0.00000  Uiso   1.00
H1097  H     0.55453   0.93658   0.95656   0.00000  Uiso   1.00
H1098  H     0.52642   0.72641   0.71175   0.00000  Uiso   1.00
H1099  H     0.97358   0.94026   0.95491   0.00000  Uiso   1.00
H1100  H     0.73729   0.98613   0.76327   0.00000  Uiso   1.00
H1101  H     0.76271   0.68053   0.90340   0.00000  Uiso   1.00
H1102  H     0.85988   0.94429   0.84772   0.00000  Uiso   1.00
N1103  N     0.73744   0.81881   0.67951   0.00000  Uiso   1.00
N1104  N     0.76255   0.84786   0.98716   0.00000  Uiso   1.00
O1105  O     0.75325   0.76204   0.87326   0.00000  Uiso   1.00
O1106  O     0.60698   0.75249   0.75063   0.00000  Uiso   1.00
O1107  O     0.69983   0.79666   0.97771   0.00000  Uiso   1.00
O1108  O     0.80017   0.87001   0.68896   0.00000  Uiso   1.00
O1109  O     0.74674   0.90462   0.79341   0.00000  Uiso   1.00
O1110  O     0.74480   0.75226   0.76945   0.00000  Uiso   1.00
O1111  O     0.75520   0.91441   0.89721   0.00000  Uiso   1.00
O1112  O     0.68935   0.83821   0.88524   0.00000  Uiso   1.00
O1113  O     0.81064   0.82845   0.78143   0.00000  Uiso   1.00
O1114  O     0.68090   0.82843   0.78143   0.00000  Uiso   1.00
O1115  O     0.81910   0.83824   0.88523   0.00000  Uiso   1.00
O1116  O     0.89303   0.91418   0.91605   0.00000  Uiso   1.00
loop_
_geom_bond_atom_site_label_1
_geom_bond_atom_site_label_2
_geom_bond_distance
_geom_bond_site_symmetry_2
_ccdc_geom_bond_type
C1     O51     1.294   .     A
C1     C22     1.428   .     S
C1     O56     1.293   .     A
C2     C4      1.409   .     A
C2     O52     1.383   .     S
C2     C13     1.402   .     A
C3     C26     1.409   .     A
C3     C25     1.451   .     S
C3     C5      1.396   .     A
C4     C24     1.451   .     S
C4     C6      1.396   .     A
C5     H29     1.085   .     S
C5     C7      1.391   .     A
C6     H40     1.085   .     S
C6     C8      1.391   .     A
C7     C9      1.412   .     A
C7     C14     1.400   .     A
C8     C10     1.412   .     A
C8     C15     1.400   .     A
C9     C11     1.414   .     A
C9     C72     1.404   .     S
C10    C13     1.414   .     A
C10    C71     1.404   1_455 S
C11    C21     1.405   .     A
C11    C26     1.402   .     A
C12    C23     1.428   .     S
C12    O57     1.293   .     A
C12    O55     1.294   .     A
C13    C20     1.405   .     A
C14    H42     1.084   .     S
C14    C82     1.392   .     S
C15    H43     1.084   .     S
C15    C83     1.392   1_455 S
C16    H48     1.113   .     S
C16    H31     1.109   .     S
C16    O62     1.411   .     S
C16    H30     1.113   .     S
C17    H33     1.109   .     S
C17    O52     1.411   .     S
C17    H34     1.113   .     S
C17    H32     1.113   .     S
C18    O53     1.403   .     S
C18    H36     1.112   .     S
C18    H37     1.109   .     S
C18    H407    1.103   .     S
C19    H38     1.112   .     S
C19    O54     1.403   .     S
C19    H41     1.109   .     S
C19    H783    1.103   1_554 S
C20    H44     1.083   .     S
C20    C76     1.392   1_455 S
C21    H45     1.083   .     S
C21    C77     1.392   .     S
C22    C271    1.331   1_545 S
C22    H294    1.086   1_545 S
C23    C146    1.331   .     S
C23    H171    1.086   .     S
C24    O60     1.298   .     A
C24    O58     1.299   .     A
C25    O61     1.298   .     A
C25    O59     1.299   .     A
C26    O62     1.383   .     S
Cu27   N50     2.032   .     S
Cu27   O58     1.963   .     S
Cu27   O51     1.950   .     S
Cu27   O57     1.948   .     S
Cu27   Cu28    2.705   .     S
Cu27   O61     1.953   .     S
Cu28   N49     2.032   .     S
Cu28   O56     1.948   .     S
Cu28   O55     1.950   .     S
Cu28   O60     1.953   .     S
Cu28   O59     1.963   .     S
H35    C762    1.103   1_554 S
H39    C391    1.103   .     S
H46    C146    1.086   .     S
H47    C271    1.086   1_545 S
N49    N794    1.295   1_554 S
N49    O797    1.345   1_554 S
N50    N421    1.295   .     S
N50    O426    1.345   .     S
O53    N421    1.345   .     S
O54    N794    1.345   1_554 S
C63    O113    1.294   .     A
C63    C84     1.428   .     S
C63    O118    1.293   .     A
C64    C66     1.409   .     A
C64    O114    1.383   .     S
C64    C75     1.402   .     A
C65    C88     1.409   .     A
C65    C87     1.451   .     S
C65    C67     1.396   .     A
C66    C86     1.451   .     S
C66    C68     1.396   .     A
C67    H91     1.085   .     S
C67    C69     1.391   .     A
C68    H102    1.085   .     S
C68    C70     1.391   .     A
C69    C71     1.412   .     A
C69    C76     1.400   .     A
C70    C72     1.412   .     A
C70    C77     1.400   .     A
C71    C73     1.414   .     A
C71    C10     1.404   1_655 S
C72    C75     1.414   .     A
C73    C83     1.405   .     A
C73    C88     1.402   .     A
C74    C85     1.428   .     S
C74    O119    1.293   .     A
C74    O117    1.294   .     A
C75    C82     1.405   .     A
C76    H104    1.084   .     S
C76    C20     1.392   1_655 S
C77    H105    1.084   .     S
C78    H110    1.113   .     S
C78    H93     1.109   .     S
C78    O124    1.411   .     S
C78    H92     1.113   .     S
C79    H95     1.109   .     S
C79    O114    1.411   .     S
C79    H96     1.113   .     S
C79    H94     1.113   .     S
C80    O115    1.403   .     S
C80    H98     1.112   .     S
C80    H99     1.109   .     S
C80    H469    1.103   .     S
C81    H100    1.112   .     S
C81    O116    1.403   .     S
C81    H103    1.109   .     S
C81    H845    1.103   1_554 S
C82    H106    1.083   .     S
C83    H107    1.083   .     S
C83    C15     1.392   1_655 S
C84    C333    1.331   1_545 S
C84    H356    1.086   1_545 S
C85    C208    1.331   .     S
C85    H233    1.086   .     S
C86    O122    1.298   .     A
C86    O120    1.299   .     A
C87    O123    1.298   .     A
C87    O121    1.299   .     A
C88    O124    1.383   .     S
Cu89   N112    2.032   .     S
Cu89   O120    1.963   .     S
Cu89   O113    1.950   .     S
Cu89   O119    1.948   .     S
Cu89   Cu90    2.705   .     S
Cu89   O123    1.953   .     S
Cu90   N111    2.032   .     S
Cu90   O118    1.948   .     S
Cu90   O117    1.950   .     S
Cu90   O122    1.953   .     S
Cu90   O121    1.963   .     S
H97    C824    1.103   1_554 S
H101   C453    1.103   .     S
H108   C208    1.086   .     S
H109   C333    1.086   1_545 S
N111   N856    1.295   1_554 S
N111   O859    1.345   1_554 S
N112   N483    1.295   .     S
N112   O488    1.345   .     S
O115   N483    1.345   .     S
O116   N856    1.345   1_554 S
C125   O175    1.294   .     A
C125   C146    1.428   .     S
C125   O180    1.293   .     A
C126   C128    1.409   .     A
C126   O176    1.383   .     S
C126   C137    1.402   .     A
C127   C150    1.409   .     A
C127   C149    1.451   .     S
C127   C129    1.396   .     A
C128   C148    1.451   .     S
C128   C130    1.396   .     A
C129   H153    1.085   .     S
C129   C131    1.391   .     A
C130   H164    1.085   .     S
C130   C132    1.391   .     A
C131   C133    1.412   .     A
C131   C138    1.400   .     A
C132   C134    1.412   .     A
C132   C139    1.400   .     A
C133   C135    1.414   .     A
C133   C196    1.404   .     S
C134   C137    1.414   .     A
C134   C195    1.404   1_455 S
C135   C145    1.405   .     A
C135   C150    1.402   .     A
C136   C147    1.428   .     S
C136   O181    1.293   .     A
C136   O179    1.294   .     A
C137   C144    1.405   .     A
C138   H166    1.084   .     S
C138   C206    1.392   .     S
C139   H167    1.084   .     S
C139   C207    1.392   1_455 S
C140   H172    1.113   .     S
C140   H155    1.109   .     S
C140   O186    1.411   .     S
C140   H154    1.113   .     S
C141   H157    1.109   .     S
C141   O176    1.411   .     S
C141   H158    1.113   .     S
C141   H156    1.113   .     S
C142   O177    1.403   .     S
C142   H160    1.112   .     S
C142   H161    1.109   .     S
C142   H531    1.103   .     S
C143   H162    1.112   .     S
C143   O178    1.403   .     S
C143   H165    1.109   .     S
C143   H907    1.103   1_554 S
C144   H168    1.083   .     S
C144   C200    1.392   1_455 S
C145   H169    1.083   .     S
C145   C201    1.392   .     S
C147   C270    1.331   .     S
C147   H295    1.086   .     S
C148   O184    1.298   .     A
C148   O182    1.299   .     A
C149   O185    1.298   .     A
C149   O183    1.299   .     A
C150   O186    1.383   .     S
Cu151  N174    2.032   .     S
Cu151  O182    1.963   .     S
Cu151  O175    1.950   .     S
Cu151  O181    1.948   .     S
Cu151  Cu152   2.705   .     S
Cu151  O185    1.953   .     S
Cu152  N173    2.032   .     S
Cu152  O180    1.948   .     S
Cu152  O179    1.950   .     S
Cu152  O184    1.953   .     S
Cu152  O183    1.963   .     S
H159   C886    1.103   1_554 S
H163   C515    1.103   .     S
H170   C270    1.086   .     S
N173   N918    1.295   1_554 S
N173   O921    1.345   1_554 S
N174   N545    1.295   .     S
N174   O550    1.345   .     S
O177   N545    1.345   .     S
O178   N918    1.345   1_554 S
C187   O237    1.294   .     A
C187   C208    1.428   .     S
C187   O242    1.293   .     A
C188   C190    1.409   .     A
C188   O238    1.383   .     S
C188   C199    1.402   .     A
C189   C212    1.409   .     A
C189   C211    1.451   .     S
C189   C191    1.396   .     A
C190   C210    1.451   .     S
C190   C192    1.396   .     A
C191   H215    1.085   .     S
C191   C193    1.391   .     A
C192   H226    1.085   .     S
C192   C194    1.391   .     A
C193   C195    1.412   .     A
C193   C200    1.400   .     A
C194   C196    1.412   .     A
C194   C201    1.400   .     A
C195   C197    1.414   .     A
C195   C134    1.404   1_655 S
C196   C199    1.414   .     A
C197   C207    1.405   .     A
C197   C212    1.402   .     A
C198   C209    1.428   .     S
C198   O243    1.293   .     A
C198   O241    1.294   .     A
C199   C206    1.405   .     A
C200   H228    1.084   .     S
C200   C144    1.392   1_655 S
C201   H229    1.084   .     S
C202   H234    1.113   .     S
C202   H217    1.109   .     S
C202   O248    1.411   .     S
C202   H216    1.113   .     S
C203   H219    1.109   .     S
C203   O238    1.411   .     S
C203   H220    1.113   .     S
C203   H218    1.113   .     S
C204   O239    1.403   .     S
C204   H222    1.112   .     S
C204   H223    1.109   .     S
C204   H593    1.103   .     S
C205   H224    1.112   .     S
C205   O240    1.403   .     S
C205   H227    1.109   .     S
C205   H969    1.103   1_554 S
C206   H230    1.083   .     S
C207   H231    1.083   .     S
C207   C139    1.392   1_655 S
C209   C332    1.331   .     S
C209   H357    1.086   .     S
C210   O246    1.298   .     A
C210   O244    1.299   .     A
C211   O247    1.298   .     A
C211   O245    1.299   .     A
C212   O248    1.383   .     S
Cu213  N236    2.032   .     S
Cu213  O244    1.963   .     S
Cu213  O237    1.950   .     S
Cu213  O243    1.948   .     S
Cu213  Cu214   2.705   .     S
Cu213  O247    1.953   .     S
Cu214  N235    2.032   .     S
Cu214  O242    1.948   .     S
Cu214  O241    1.950   .     S
Cu214  O246    1.953   .     S
Cu214  O245    1.963   .     S
H221   C948    1.103   1_554 S
H225   C577    1.103   .     S
H232   C332    1.086   .     S
N235   N980    1.295   1_554 S
N235   O983    1.345   1_554 S
N236   N607    1.295   .     S
N236   O612    1.345   .     S
O239   N607    1.345   .     S
O240   N980    1.345   1_554 S
C249   O299    1.294   .     A
C249   C270    1.428   .     S
C249   O304    1.293   .     A
C250   C252    1.409   .     A
C250   O300    1.383   .     S
C250   C261    1.402   .     A
C251   C274    1.409   .     A
C251   C273    1.451   .     S
C251   C253    1.396   .     A
C252   C272    1.451   .     S
C252   C254    1.396   .     A
C253   H277    1.085   .     S
C253   C255    1.391   .     A
C254   H288    1.085   .     S
C254   C256    1.391   .     A
C255   C257    1.412   .     A
C255   C262    1.400   .     A
C256   C258    1.412   .     A
C256   C263    1.400   .     A
C257   C259    1.414   .     A
C257   C320    1.404   .     S
C258   C261    1.414   .     A
C258   C319    1.404   1_455 S
C259   C269    1.405   .     A
C259   C274    1.402   .     A
C260   C271    1.428   .     S
C260   O305    1.293   .     A
C260   O303    1.294   .     A
C261   C268    1.405   .     A
C262   H290    1.084   .     S
C262   C330    1.392   .     S
C263   H291    1.084   .     S
C263   C331    1.392   1_455 S
C264   H296    1.113   .     S
C264   H279    1.109   .     S
C264   O310    1.411   .     S
C264   H278    1.113   .     S
C265   H281    1.109   .     S
C265   O300    1.411   .     S
C265   H282    1.113   .     S
C265   H280    1.113   .     S
C266   O301    1.403   .     S
C266   H284    1.112   .     S
C266   H285    1.109   .     S
C266   H655    1.103   .     S
C267   H286    1.112   .     S
C267   O302    1.403   .     S
C267   H289    1.109   .     S
C267   H1031   1.103   1_554 S
C268   H292    1.083   .     S
C268   C324    1.392   1_455 S
C269   H293    1.083   .     S
C269   C325    1.392   .     S
C271   C22     1.331   1_565 S
C271   H47     1.086   1_565 S
C272   O308    1.298   .     A
C272   O306    1.299   .     A
C273   O309    1.298   .     A
C273   O307    1.299   .     A
C274   O310    1.383   .     S
Cu275  N298    2.032   .     S
Cu275  O306    1.963   .     S
Cu275  O299    1.950   .     S
Cu275  O305    1.948   .     S
Cu275  Cu276   2.705   .     S
Cu275  O309    1.953   .     S
Cu276  N297    2.032   .     S
Cu276  O304    1.948   .     S
Cu276  O303    1.950   .     S
Cu276  O308    1.953   .     S
Cu276  O307    1.963   .     S
H283   C1010   1.103   1_554 S
H287   C639    1.103   .     S
H294   C22     1.086   1_565 S
N297   N1042   1.295   1_554 S
N297   O1045   1.345   1_554 S
N298   N669    1.295   .     S
N298   O674    1.345   .     S
O301   N669    1.345   .     S
O302   N1042   1.345   1_554 S
C311   O361    1.294   .     A
C311   C332    1.428   .     S
C311   O366    1.293   .     A
C312   C314    1.409   .     A
C312   O362    1.383   .     S
C312   C323    1.402   .     A
C313   C336    1.409   .     A
C313   C335    1.451   .     S
C313   C315    1.396   .     A
C314   C334    1.451   .     S
C314   C316    1.396   .     A
C315   H339    1.085   .     S
C315   C317    1.391   .     A
C316   H350    1.085   .     S
C316   C318    1.391   .     A
C317   C319    1.412   .     A
C317   C324    1.400   .     A
C318   C320    1.412   .     A
C318   C325    1.400   .     A
C319   C321    1.414   .     A
C319   C258    1.404   1_655 S
C320   C323    1.414   .     A
C321   C331    1.405   .     A
C321   C336    1.402   .     A
C322   C333    1.428   .     S
C322   O367    1.293   .     A
C322   O365    1.294   .     A
C323   C330    1.405   .     A
C324   H352    1.084   .     S
C324   C268    1.392   1_655 S
C325   H353    1.084   .     S
C326   H358    1.113   .     S
C326   H341    1.109   .     S
C326   O372    1.411   .     S
C326   H340    1.113   .     S
C327   H343    1.109   .     S
C327   O362    1.411   .     S
C327   H344    1.113   .     S
C327   H342    1.113   .     S
C328   O363    1.403   .     S
C328   H346    1.112   .     S
C328   H347    1.109   .     S
C328   H717    1.103   .     S
C329   H348    1.112   .     S
C329   O364    1.403   .     S
C329   H351    1.109   .     S
C329   H1093   1.103   1_554 S
C330   H354    1.083   .     S
C331   H355    1.083   .     S
C331   C263    1.392   1_655 S
C333   C84     1.331   1_565 S
C333   H109    1.086   1_565 S
C334   O370    1.298   .     A
C334   O368    1.299   .     A
C335   O371    1.298   .     A
C335   O369    1.299   .     A
C336   O372    1.383   .     S
Cu337  N360    2.032   .     S
Cu337  O368    1.963   .     S
Cu337  O361    1.950   .     S
Cu337  O367    1.948   .     S
Cu337  Cu338   2.705   .     S
Cu337  O371    1.953   .     S
Cu338  N359    2.032   .     S
Cu338  O366    1.948   .     S
Cu338  O365    1.950   .     S
Cu338  O370    1.953   .     S
Cu338  O369    1.963   .     S
H345   C1072   1.103   1_554 S
H349   C701    1.103   .     S
H356   C84     1.086   1_565 S
N359   N1104   1.295   1_554 S
N359   O1107   1.345   1_554 S
N360   N731    1.295   .     S
N360   O736    1.345   .     S
O363   N731    1.345   .     S
O364   N1104   1.345   1_554 S
C373   O423    1.294   .     A
C373   C394    1.428   .     S
C373   O428    1.293   .     A
C374   C376    1.409   .     A
C374   O424    1.383   .     S
C374   C385    1.402   .     A
C375   C398    1.409   .     A
C375   C397    1.451   .     S
C375   C377    1.396   .     A
C376   C396    1.451   .     S
C376   C378    1.396   .     A
C377   H401    1.085   .     S
C377   C379    1.391   .     A
C378   H412    1.085   .     S
C378   C380    1.391   .     A
C379   C381    1.412   .     A
C379   C386    1.400   .     A
C380   C382    1.412   .     A
C380   C387    1.400   .     A
C381   C383    1.414   .     A
C381   C444    1.404   .     S
C382   C385    1.414   .     A
C382   C443    1.404   1_455 S
C383   C393    1.405   .     A
C383   C398    1.402   .     A
C384   C395    1.428   .     S
C384   O429    1.293   .     A
C384   O427    1.294   .     A
C385   C392    1.405   .     A
C386   H414    1.084   .     S
C386   C454    1.392   .     S
C387   H415    1.084   .     S
C387   C455    1.392   1_455 S
C388   H420    1.113   .     S
C388   H403    1.109   .     S
C388   O434    1.411   .     S
C388   H402    1.113   .     S
C389   H405    1.109   .     S
C389   O424    1.411   .     S
C389   H406    1.113   .     S
C389   H404    1.113   .     S
C390   O425    1.403   .     S
C390   H408    1.112   .     S
C390   H409    1.109   .     S
C390   H779    1.103   .     S
C391   H410    1.112   .     S
C391   O426    1.403   .     S
C391   H413    1.109   .     S
C392   H416    1.083   .     S
C392   C448    1.392   1_455 S
C393   H417    1.083   .     S
C393   C449    1.392   .     S
C394   C643    1.331   1_545 S
C394   H666    1.086   1_545 S
C395   C518    1.331   .     S
C395   H543    1.086   .     S
C396   O432    1.298   .     A
C396   O430    1.299   .     A
C397   O433    1.298   .     A
C397   O431    1.299   .     A
C398   O434    1.383   .     S
Cu399  N422    2.032   .     S
Cu399  O430    1.963   .     S
Cu399  O423    1.950   .     S
Cu399  O429    1.948   .     S
Cu399  Cu400   2.705   .     S
Cu399  O433    1.953   .     S
Cu400  N421    2.032   .     S
Cu400  O428    1.948   .     S
Cu400  O427    1.950   .     S
Cu400  O432    1.953   .     S
Cu400  O431    1.963   .     S
H411   C763    1.103   .     S
H418   C518    1.086   .     S
H419   C643    1.086   1_545 S
N422   N793    1.295   .     S
N422   O798    1.345   .     S
O425   N793    1.345   .     S
C435   O485    1.294   .     A
C435   C456    1.428   .     S
C435   O490    1.293   .     A
C436   C438    1.409   .     A
C436   O486    1.383   .     S
C436   C447    1.402   .     A
C437   C460    1.409   .     A
C437   C459    1.451   .     S
C437   C439    1.396   .     A
C438   C458    1.451   .     S
C438   C440    1.396   .     A
C439   H463    1.085   .     S
C439   C441    1.391   .     A
C440   H474    1.085   .     S
C440   C442    1.391   .     A
C441   C443    1.412   .     A
C441   C448    1.400   .     A
C442   C444    1.412   .     A
C442   C449    1.400   .     A
C443   C445    1.414   .     A
C443   C382    1.404   1_655 S
C444   C447    1.414   .     A
C445   C455    1.405   .     A
C445   C460    1.402   .     A
C446   C457    1.428   .     S
C446   O491    1.293   .     A
C446   O489    1.294   .     A
C447   C454    1.405   .     A
C448   H476    1.084   .     S
C448   C392    1.392   1_655 S
C449   H477    1.084   .     S
C450   H482    1.113   .     S
C450   H465    1.109   .     S
C450   O496    1.411   .     S
C450   H464    1.113   .     S
C451   H467    1.109   .     S
C451   O486    1.411   .     S
C451   H468    1.113   .     S
C451   H466    1.113   .     S
C452   O487    1.403   .     S
C452   H470    1.112   .     S
C452   H471    1.109   .     S
C452   H841    1.103   .     S
C453   H472    1.112   .     S
C453   O488    1.403   .     S
C453   H475    1.109   .     S
C454   H478    1.083   .     S
C455   H479    1.083   .     S
C455   C387    1.392   1_655 S
C456   C705    1.331   1_545 S
C456   H728    1.086   1_545 S
C457   C580    1.331   .     S
C457   H605    1.086   .     S
C458   O494    1.298   .     A
C458   O492    1.299   .     A
C459   O495    1.298   .     A
C459   O493    1.299   .     A
C460   O496    1.383   .     S
Cu461  N484    2.032   .     S
Cu461  O492    1.963   .     S
Cu461  O485    1.950   .     S
Cu461  O491    1.948   .     S
Cu461  Cu462   2.705   .     S
Cu461  O495    1.953   .     S
Cu462  N483    2.032   .     S
Cu462  O490    1.948   .     S
Cu462  O489    1.950   .     S
Cu462  O494    1.953   .     S
Cu462  O493    1.963   .     S
H473   C825    1.103   .     S
H480   C580    1.086   .     S
H481   C705    1.086   1_545 S
N484   N855    1.295   .     S
N484   O860    1.345   .     S
O487   N855    1.345   .     S
C497   O547    1.294   .     A
C497   C518    1.428   .     S
C497   O552    1.293   .     A
C498   C500    1.409   .     A
C498   O548    1.383   .     S
C498   C509    1.402   .     A
C499   C522    1.409   .     A
C499   C521    1.451   .     S
C499   C501    1.396   .     A
C500   C520    1.451   .     S
C500   C502    1.396   .     A
C501   H525    1.085   .     S
C501   C503    1.391   .     A
C502   H536    1.085   .     S
C502   C504    1.391   .     A
C503   C505    1.412   .     A
C503   C510    1.400   .     A
C504   C506    1.412   .     A
C504   C511    1.400   .     A
C505   C507    1.414   .     A
C505   C568    1.404   .     S
C506   C509    1.414   .     A
C506   C567    1.404   1_455 S
C507   C517    1.405   .     A
C507   C522    1.402   .     A
C508   C519    1.428   .     S
C508   O553    1.293   .     A
C508   O551    1.294   .     A
C509   C516    1.405   .     A
C510   H538    1.084   .     S
C510   C578    1.392   .     S
C511   H539    1.084   .     S
C511   C579    1.392   1_455 S
C512   H544    1.113   .     S
C512   H527    1.109   .     S
C512   O558    1.411   .     S
C512   H526    1.113   .     S
C513   H529    1.109   .     S
C513   O548    1.411   .     S
C513   H530    1.113   .     S
C513   H528    1.113   .     S
C514   O549    1.403   .     S
C514   H532    1.112   .     S
C514   H533    1.109   .     S
C514   H903    1.103   .     S
C515   H534    1.112   .     S
C515   O550    1.403   .     S
C515   H537    1.109   .     S
C516   H540    1.083   .     S
C516   C572    1.392   1_455 S
C517   H541    1.083   .     S
C517   C573    1.392   .     S
C519   C642    1.331   .     S
C519   H667    1.086   .     S
C520   O556    1.298   .     A
C520   O554    1.299   .     A
C521   O557    1.298   .     A
C521   O555    1.299   .     A
C522   O558    1.383   .     S
Cu523  N546    2.032   .     S
Cu523  O554    1.963   .     S
Cu523  O547    1.950   .     S
Cu523  O553    1.948   .     S
Cu523  Cu524   2.705   .     S
Cu523  O557    1.953   .     S
Cu524  N545    2.032   .     S
Cu524  O552    1.948   .     S
Cu524  O551    1.950   .     S
Cu524  O556    1.953   .     S
Cu524  O555    1.963   .     S
H535   C887    1.103   .     S
H542   C642    1.086   .     S
N546   N917    1.295   .     S
N546   O922    1.345   .     S
O549   N917    1.345   .     S
C559   O609    1.294   .     A
C559   C580    1.428   .     S
C559   O614    1.293   .     A
C560   C562    1.409   .     A
C560   O610    1.383   .     S
C560   C571    1.402   .     A
C561   C584    1.409   .     A
C561   C583    1.451   .     S
C561   C563    1.396   .     A
C562   C582    1.451   .     S
C562   C564    1.396   .     A
C563   H587    1.085   .     S
C563   C565    1.391   .     A
C564   H598    1.085   .     S
C564   C566    1.391   .     A
C565   C567    1.412   .     A
C565   C572    1.400   .     A
C566   C568    1.412   .     A
C566   C573    1.400   .     A
C567   C569    1.414   .     A
C567   C506    1.404   1_655 S
C568   C571    1.414   .     A
C569   C579    1.405   .     A
C569   C584    1.402   .     A
C570   C581    1.428   .     S
C570   O615    1.293   .     A
C570   O613    1.294   .     A
C571   C578    1.405   .     A
C572   H600    1.084   .     S
C572   C516    1.392   1_655 S
C573   H601    1.084   .     S
C574   H606    1.113   .     S
C574   H589    1.109   .     S
C574   O620    1.411   .     S
C574   H588    1.113   .     S
C575   H591    1.109   .     S
C575   O610    1.411   .     S
C575   H592    1.113   .     S
C575   H590    1.113   .     S
C576   O611    1.403   .     S
C576   H594    1.112   .     S
C576   H595    1.109   .     S
C576   H965    1.103   .     S
C577   H596    1.112   .     S
C577   O612    1.403   .     S
C577   H599    1.109   .     S
C578   H602    1.083   .     S
C579   H603    1.083   .     S
C579   C511    1.392   1_655 S
C581   C704    1.331   .     S
C581   H729    1.086   .     S
C582   O618    1.298   .     A
C582   O616    1.299   .     A
C583   O619    1.298   .     A
C583   O617    1.299   .     A
C584   O620    1.383   .     S
Cu585  N608    2.032   .     S
Cu585  O616    1.963   .     S
Cu585  O609    1.950   .     S
Cu585  O615    1.948   .     S
Cu585  Cu586   2.705   .     S
Cu585  O619    1.953   .     S
Cu586  N607    2.032   .     S
Cu586  O614    1.948   .     S
Cu586  O613    1.950   .     S
Cu586  O618    1.953   .     S
Cu586  O617    1.963   .     S
H597   C949    1.103   .     S
H604   C704    1.086   .     S
N608   N979    1.295   .     S
N608   O984    1.345   .     S
O611   N979    1.345   .     S
C621   O671    1.294   .     A
C621   C642    1.428   .     S
C621   O676    1.293   .     A
C622   C624    1.409   .     A
C622   O672    1.383   .     S
C622   C633    1.402   .     A
C623   C646    1.409   .     A
C623   C645    1.451   .     S
C623   C625    1.396   .     A
C624   C644    1.451   .     S
C624   C626    1.396   .     A
C625   H649    1.085   .     S
C625   C627    1.391   .     A
C626   H660    1.085   .     S
C626   C628    1.391   .     A
C627   C629    1.412   .     A
C627   C634    1.400   .     A
C628   C630    1.412   .     A
C628   C635    1.400   .     A
C629   C631    1.414   .     A
C629   C692    1.404   .     S
C630   C633    1.414   .     A
C630   C691    1.404   1_455 S
C631   C641    1.405   .     A
C631   C646    1.402   .     A
C632   C643    1.428   .     S
C632   O677    1.293   .     A
C632   O675    1.294   .     A
C633   C640    1.405   .     A
C634   H662    1.084   .     S
C634   C702    1.392   .     S
C635   H663    1.084   .     S
C635   C703    1.392   1_455 S
C636   H668    1.113   .     S
C636   H651    1.109   .     S
C636   O682    1.411   .     S
C636   H650    1.113   .     S
C637   H653    1.109   .     S
C637   O672    1.411   .     S
C637   H654    1.113   .     S
C637   H652    1.113   .     S
C638   O673    1.403   .     S
C638   H656    1.112   .     S
C638   H657    1.109   .     S
C638   H1027   1.103   .     S
C639   H658    1.112   .     S
C639   O674    1.403   .     S
C639   H661    1.109   .     S
C640   H664    1.083   .     S
C640   C696    1.392   1_455 S
C641   H665    1.083   .     S
C641   C697    1.392   .     S
C643   C394    1.331   1_565 S
C643   H419    1.086   1_565 S
C644   O680    1.298   .     A
C644   O678    1.299   .     A
C645   O681    1.298   .     A
C645   O679    1.299   .     A
C646   O682    1.383   .     S
Cu647  N670    2.032   .     S
Cu647  O678    1.963   .     S
Cu647  O671    1.950   .     S
Cu647  O677    1.948   .     S
Cu647  Cu648   2.705   .     S
Cu647  O681    1.953   .     S
Cu648  N669    2.032   .     S
Cu648  O676    1.948   .     S
Cu648  O675    1.950   .     S
Cu648  O680    1.953   .     S
Cu648  O679    1.963   .     S
H659   C1011   1.103   .     S
H666   C394    1.086   1_565 S
N670   N1041   1.295   .     S
N670   O1046   1.345   .     S
O673   N1041   1.345   .     S
C683   O733    1.294   .     A
C683   C704    1.428   .     S
C683   O738    1.293   .     A
C684   C686    1.409   .     A
C684   O734    1.383   .     S
C684   C695    1.402   .     A
C685   C708    1.409   .     A
C685   C707    1.451   .     S
C685   C687    1.396   .     A
C686   C706    1.451   .     S
C686   C688    1.396   .     A
C687   H711    1.085   .     S
C687   C689    1.391   .     A
C688   H722    1.085   .     S
C688   C690    1.391   .     A
C689   C691    1.412   .     A
C689   C696    1.400   .     A
C690   C692    1.412   .     A
C690   C697    1.400   .     A
C691   C693    1.414   .     A
C691   C630    1.404   1_655 S
C692   C695    1.414   .     A
C693   C703    1.405   .     A
C693   C708    1.402   .     A
C694   C705    1.428   .     S
C694   O739    1.293   .     A
C694   O737    1.294   .     A
C695   C702    1.405   .     A
C696   H724    1.084   .     S
C696   C640    1.392   1_655 S
C697   H725    1.084   .     S
C698   H730    1.113   .     S
C698   H713    1.109   .     S
C698   O744    1.411   .     S
C698   H712    1.113   .     S
C699   H715    1.109   .     S
C699   O734    1.411   .     S
C699   H716    1.113   .     S
C699   H714    1.113   .     S
C700   O735    1.403   .     S
C700   H718    1.112   .     S
C700   H719    1.109   .     S
C700   H1089   1.103   .     S
C701   H720    1.112   .     S
C701   O736    1.403   .     S
C701   H723    1.109   .     S
C702   H726    1.083   .     S
C703   H727    1.083   .     S
C703   C635    1.392   1_655 S
C705   C456    1.331   1_565 S
C705   H481    1.086   1_565 S
C706   O742    1.298   .     A
C706   O740    1.299   .     A
C707   O743    1.298   .     A
C707   O741    1.299   .     A
C708   O744    1.383   .     S
Cu709  N732    2.032   .     S
Cu709  O740    1.963   .     S
Cu709  O733    1.950   .     S
Cu709  O739    1.948   .     S
Cu709  Cu710   2.705   .     S
Cu709  O743    1.953   .     S
Cu710  N731    2.032   .     S
Cu710  O738    1.948   .     S
Cu710  O737    1.950   .     S
Cu710  O742    1.953   .     S
Cu710  O741    1.963   .     S
H721   C1073   1.103   .     S
H728   C456    1.086   1_565 S
N732   N1103   1.295   .     S
N732   O1108   1.345   .     S
O735   N1103   1.345   .     S
C745   O795    1.294   .     A
C745   C766    1.428   .     S
C745   O800    1.293   .     A
C746   C748    1.409   .     A
C746   O796    1.383   .     S
C746   C757    1.402   .     A
C747   C770    1.409   .     A
C747   C769    1.451   .     S
C747   C749    1.396   .     A
C748   C768    1.451   .     S
C748   C750    1.396   .     A
C749   H773    1.085   .     S
C749   C751    1.391   .     A
C750   H784    1.085   .     S
C750   C752    1.391   .     A
C751   C753    1.412   .     A
C751   C758    1.400   .     A
C752   C754    1.412   .     A
C752   C759    1.400   .     A
C753   C755    1.414   .     A
C753   C816    1.404   .     S
C754   C757    1.414   .     A
C754   C815    1.404   1_455 S
C755   C765    1.405   .     A
C755   C770    1.402   .     A
C756   C767    1.428   .     S
C756   O801    1.293   .     A
C756   O799    1.294   .     A
C757   C764    1.405   .     A
C758   H786    1.084   .     S
C758   C826    1.392   .     S
C759   H787    1.084   .     S
C759   C827    1.392   1_455 S
C760   H792    1.113   .     S
C760   H775    1.109   .     S
C760   O806    1.411   .     S
C760   H774    1.113   .     S
C761   H777    1.109   .     S
C761   O796    1.411   .     S
C761   H778    1.113   .     S
C761   H776    1.113   .     S
C762   O797    1.403   .     S
C762   H780    1.112   .     S
C762   H781    1.109   .     S
C762   H35     1.103   1_556 S
C763   H782    1.112   .     S
C763   O798    1.403   .     S
C763   H785    1.109   .     S
C764   H788    1.083   .     S
C764   C820    1.392   1_455 S
C765   H789    1.083   .     S
C765   C821    1.392   .     S
C766   C1015   1.331   1_545 S
C766   H1038   1.086   1_545 S
C767   C890    1.331   .     S
C767   H915    1.086   .     S
C768   O804    1.298   .     A
C768   O802    1.299   .     A
C769   O805    1.298   .     A
C769   O803    1.299   .     A
C770   O806    1.383   .     S
Cu771  N794    2.032   .     S
Cu771  O802    1.963   .     S
Cu771  O795    1.950   .     S
Cu771  O801    1.948   .     S
Cu771  Cu772   2.705   .     S
Cu771  O805    1.953   .     S
Cu772  N793    2.032   .     S
Cu772  O800    1.948   .     S
Cu772  O799    1.950   .     S
Cu772  O804    1.953   .     S
Cu772  O803    1.963   .     S
H783   C19     1.103   1_556 S
H790   C890    1.086   .     S
H791   C1015   1.086   1_545 S
N794   N49     1.295   1_556 S
N794   O54     1.345   1_556 S
O797   N49     1.345   1_556 S
C807   O857    1.294   .     A
C807   C828    1.428   .     S
C807   O862    1.293   .     A
C808   C810    1.409   .     A
C808   O858    1.383   .     S
C808   C819    1.402   .     A
C809   C832    1.409   .     A
C809   C831    1.451   .     S
C809   C811    1.396   .     A
C810   C830    1.451   .     S
C810   C812    1.396   .     A
C811   H835    1.085   .     S
C811   C813    1.391   .     A
C812   H846    1.085   .     S
C812   C814    1.391   .     A
C813   C815    1.412   .     A
C813   C820    1.400   .     A
C814   C816    1.412   .     A
C814   C821    1.400   .     A
C815   C817    1.414   .     A
C815   C754    1.404   1_655 S
C816   C819    1.414   .     A
C817   C827    1.405   .     A
C817   C832    1.402   .     A
C818   C829    1.428   .     S
C818   O863    1.293   .     A
C818   O861    1.294   .     A
C819   C826    1.405   .     A
C820   H848    1.084   .     S
C820   C764    1.392   1_655 S
C821   H849    1.084   .     S
C822   H854    1.113   .     S
C822   H837    1.109   .     S
C822   O868    1.411   .     S
C822   H836    1.113   .     S
C823   H839    1.109   .     S
C823   O858    1.411   .     S
C823   H840    1.113   .     S
C823   H838    1.113   .     S
C824   O859    1.403   .     S
C824   H842    1.112   .     S
C824   H843    1.109   .     S
C824   H97     1.103   1_556 S
C825   H844    1.112   .     S
C825   O860    1.403   .     S
C825   H847    1.109   .     S
C826   H850    1.083   .     S
C827   H851    1.083   .     S
C827   C759    1.392   1_655 S
C828   C1077   1.331   1_545 S
C828   H1100   1.086   1_545 S
C829   C952    1.331   .     S
C829   H977    1.086   .     S
C830   O866    1.298   .     A
C830   O864    1.299   .     A
C831   O867    1.298   .     A
C831   O865    1.299   .     A
C832   O868    1.383   .     S
Cu833  N856    2.032   .     S
Cu833  O864    1.963   .     S
Cu833  O857    1.950   .     S
Cu833  O863    1.948   .     S
Cu833  Cu834   2.705   .     S
Cu833  O867    1.953   .     S
Cu834  N855    2.032   .     S
Cu834  O862    1.948   .     S
Cu834  O861    1.950   .     S
Cu834  O866    1.953   .     S
Cu834  O865    1.963   .     S
H845   C81     1.103   1_556 S
H852   C952    1.086   .     S
H853   C1077   1.086   1_545 S
N856   N111    1.295   1_556 S
N856   O116    1.345   1_556 S
O859   N111    1.345   1_556 S
C869   O919    1.294   .     A
C869   C890    1.428   .     S
C869   O924    1.293   .     A
C870   C872    1.409   .     A
C870   O920    1.383   .     S
C870   C881    1.402   .     A
C871   C894    1.409   .     A
C871   C893    1.451   .     S
C871   C873    1.396   .     A
C872   C892    1.451   .     S
C872   C874    1.396   .     A
C873   H897    1.085   .     S
C873   C875    1.391   .     A
C874   H908    1.085   .     S
C874   C876    1.391   .     A
C875   C877    1.412   .     A
C875   C882    1.400   .     A
C876   C878    1.412   .     A
C876   C883    1.400   .     A
C877   C879    1.414   .     A
C877   C940    1.404   .     S
C878   C881    1.414   .     A
C878   C939    1.404   1_455 S
C879   C889    1.405   .     A
C879   C894    1.402   .     A
C880   C891    1.428   .     S
C880   O925    1.293   .     A
C880   O923    1.294   .     A
C881   C888    1.405   .     A
C882   H910    1.084   .     S
C882   C950    1.392   .     S
C883   H911    1.084   .     S
C883   C951    1.392   1_455 S
C884   H916    1.113   .     S
C884   H899    1.109   .     S
C884   O930    1.411   .     S
C884   H898    1.113   .     S
C885   H901    1.109   .     S
C885   O920    1.411   .     S
C885   H902    1.113   .     S
C885   H900    1.113   .     S
C886   O921    1.403   .     S
C886   H904    1.112   .     S
C886   H905    1.109   .     S
C886   H159    1.103   1_556 S
C887   H906    1.112   .     S
C887   O922    1.403   .     S
C887   H909    1.109   .     S
C888   H912    1.083   .     S
C888   C944    1.392   1_455 S
C889   H913    1.083   .     S
C889   C945    1.392   .     S
C891   C1014   1.331   .     S
C891   H1039   1.086   .     S
C892   O928    1.298   .     A
C892   O926    1.299   .     A
C893   O929    1.298   .     A
C893   O927    1.299   .     A
C894   O930    1.383   .     S
Cu895  N918    2.032   .     S
Cu895  O926    1.963   .     S
Cu895  O919    1.950   .     S
Cu895  O925    1.948   .     S
Cu895  Cu896   2.705   .     S
Cu895  O929    1.953   .     S
Cu896  N917    2.032   .     S
Cu896  O924    1.948   .     S
Cu896  O923    1.950   .     S
Cu896  O928    1.953   .     S
Cu896  O927    1.963   .     S
H907   C143    1.103   1_556 S
H914   C1014   1.086   .     S
N918   N173    1.295   1_556 S
N918   O178    1.345   1_556 S
O921   N173    1.345   1_556 S
C931   O981    1.294   .     A
C931   C952    1.428   .     S
C931   O986    1.293   .     A
C932   C934    1.409   .     A
C932   O982    1.383   .     S
C932   C943    1.402   .     A
C933   C956    1.409   .     A
C933   C955    1.451   .     S
C933   C935    1.396   .     A
C934   C954    1.451   .     S
C934   C936    1.396   .     A
C935   H959    1.085   .     S
C935   C937    1.391   .     A
C936   H970    1.085   .     S
C936   C938    1.391   .     A
C937   C939    1.412   .     A
C937   C944    1.400   .     A
C938   C940    1.412   .     A
C938   C945    1.400   .     A
C939   C941    1.414   .     A
C939   C878    1.404   1_655 S
C940   C943    1.414   .     A
C941   C951    1.405   .     A
C941   C956    1.402   .     A
C942   C953    1.428   .     S
C942   O987    1.293   .     A
C942   O985    1.294   .     A
C943   C950    1.405   .     A
C944   H972    1.084   .     S
C944   C888    1.392   1_655 S
C945   H973    1.084   .     S
C946   H978    1.113   .     S
C946   H961    1.109   .     S
C946   O992    1.411   .     S
C946   H960    1.113   .     S
C947   H963    1.109   .     S
C947   O982    1.411   .     S
C947   H964    1.113   .     S
C947   H962    1.113   .     S
C948   O983    1.403   .     S
C948   H966    1.112   .     S
C948   H967    1.109   .     S
C948   H221    1.103   1_556 S
C949   H968    1.112   .     S
C949   O984    1.403   .     S
C949   H971    1.109   .     S
C950   H974    1.083   .     S
C951   H975    1.083   .     S
C951   C883    1.392   1_655 S
C953   C1076   1.331   .     S
C953   H1101   1.086   .     S
C954   O990    1.298   .     A
C954   O988    1.299   .     A
C955   O991    1.298   .     A
C955   O989    1.299   .     A
C956   O992    1.383   .     S
Cu957  N980    2.032   .     S
Cu957  O988    1.963   .     S
Cu957  O981    1.950   .     S
Cu957  O987    1.948   .     S
Cu957  Cu958   2.705   .     S
Cu957  O991    1.953   .     S
Cu958  N979    2.032   .     S
Cu958  O986    1.948   .     S
Cu958  O985    1.950   .     S
Cu958  O990    1.953   .     S
Cu958  O989    1.963   .     S
H969   C205    1.103   1_556 S
H976   C1076   1.086   .     S
N980   N235    1.295   1_556 S
N980   O240    1.345   1_556 S
O983   N235    1.345   1_556 S
C993   O1043   1.294   .     A
C993   C1014   1.428   .     S
C993   O1048   1.293   .     A
C994   C996    1.409   .     A
C994   O1044   1.383   .     S
C994   C1005   1.402   .     A
C995   C1018   1.409   .     A
C995   C1017   1.451   .     S
C995   C997    1.396   .     A
C996   C1016   1.451   .     S
C996   C998    1.396   .     A
C997   H1021   1.085   .     S
C997   C999    1.391   .     A
C998   H1032   1.085   .     S
C998   C1000   1.391   .     A
C999   C1001   1.412   .     A
C999   C1006   1.400   .     A
C1000  C1002   1.412   .     A
C1000  C1007   1.400   .     A
C1001  C1003   1.414   .     A
C1001  C1064   1.404   .     S
C1002  C1005   1.414   .     A
C1002  C1063   1.404   1_455 S
C1003  C1013   1.405   .     A
C1003  C1018   1.402   .     A
C1004  C1015   1.428   .     S
C1004  O1049   1.293   .     A
C1004  O1047   1.294   .     A
C1005  C1012   1.405   .     A
C1006  H1034   1.084   .     S
C1006  C1074   1.392   .     S
C1007  H1035   1.084   .     S
C1007  C1075   1.392   1_455 S
C1008  H1040   1.113   .     S
C1008  H1023   1.109   .     S
C1008  O1054   1.411   .     S
C1008  H1022   1.113   .     S
C1009  H1025   1.109   .     S
C1009  O1044   1.411   .     S
C1009  H1026   1.113   .     S
C1009  H1024   1.113   .     S
C1010  O1045   1.403   .     S
C1010  H1028   1.112   .     S
C1010  H1029   1.109   .     S
C1010  H283    1.103   1_556 S
C1011  H1030   1.112   .     S
C1011  O1046   1.403   .     S
C1011  H1033   1.109   .     S
C1012  H1036   1.083   .     S
C1012  C1068   1.392   1_455 S
C1013  H1037   1.083   .     S
C1013  C1069   1.392   .     S
C1015  C766    1.331   1_565 S
C1015  H791    1.086   1_565 S
C1016  O1052   1.298   .     A
C1016  O1050   1.299   .     A
C1017  O1053   1.298   .     A
C1017  O1051   1.299   .     A
C1018  O1054   1.383   .     S
Cu1019 N1042   2.032   .     S
Cu1019 O1050   1.963   .     S
Cu1019 O1043   1.950   .     S
Cu1019 O1049   1.948   .     S
Cu1019 Cu1020  2.705   .     S
Cu1019 O1053   1.953   .     S
Cu1020 N1041   2.032   .     S
Cu1020 O1048   1.948   .     S
Cu1020 O1047   1.950   .     S
Cu1020 O1052   1.953   .     S
Cu1020 O1051   1.963   .     S
H1031  C267    1.103   1_556 S
H1038  C766    1.086   1_565 S
N1042  N297    1.295   1_556 S
N1042  O302    1.345   1_556 S
O1045  N297    1.345   1_556 S
C1055  O1105   1.294   .     A
C1055  C1076   1.428   .     S
C1055  O1110   1.293   .     A
C1056  C1058   1.409   .     A
C1056  O1106   1.383   .     S
C1056  C1067   1.402   .     A
C1057  C1080   1.409   .     A
C1057  C1079   1.451   .     S
C1057  C1059   1.396   .     A
C1058  C1078   1.451   .     S
C1058  C1060   1.396   .     A
C1059  H1083   1.085   .     S
C1059  C1061   1.391   .     A
C1060  H1094   1.085   .     S
C1060  C1062   1.391   .     A
C1061  C1063   1.412   .     A
C1061  C1068   1.400   .     A
C1062  C1064   1.412   .     A
C1062  C1069   1.400   .     A
C1063  C1065   1.414   .     A
C1063  C1002   1.404   1_655 S
C1064  C1067   1.414   .     A
C1065  C1075   1.405   .     A
C1065  C1080   1.402   .     A
C1066  C1077   1.428   .     S
C1066  O1111   1.293   .     A
C1066  O1109   1.294   .     A
C1067  C1074   1.405   .     A
C1068  H1096   1.084   .     S
C1068  C1012   1.392   1_655 S
C1069  H1097   1.084   .     S
C1070  H1102   1.113   .     S
C1070  H1085   1.109   .     S
C1070  O1116   1.411   .     S
C1070  H1084   1.113   .     S
C1071  H1087   1.109   .     S
C1071  O1106   1.411   .     S
C1071  H1088   1.113   .     S
C1071  H1086   1.113   .     S
C1072  O1107   1.403   .     S
C1072  H1090   1.112   .     S
C1072  H1091   1.109   .     S
C1072  H345    1.103   1_556 S
C1073  H1092   1.112   .     S
C1073  O1108   1.403   .     S
C1073  H1095   1.109   .     S
C1074  H1098   1.083   .     S
C1075  H1099   1.083   .     S
C1075  C1007   1.392   1_655 S
C1077  C828    1.331   1_565 S
C1077  H853    1.086   1_565 S
C1078  O1114   1.298   .     A
C1078  O1112   1.299   .     A
C1079  O1115   1.298   .     A
C1079  O1113   1.299   .     A
C1080  O1116   1.383   .     S
Cu1081 N1104   2.032   .     S
Cu1081 O1112   1.963   .     S
Cu1081 O1105   1.950   .     S
Cu1081 O1111   1.948   .     S
Cu1081 Cu1082  2.705   .     S
Cu1081 O1115   1.953   .     S
Cu1082 N1103   2.032   .     S
Cu1082 O1110   1.948   .     S
Cu1082 O1109   1.950   .     S
Cu1082 O1114   1.953   .     S
Cu1082 O1113   1.963   .     S
H1093  C329    1.103   1_556 S
H1100  C828    1.086   1_565 S
N1104  N359    1.295   1_556 S
N1104  O364    1.345   1_556 S
O1107  N359    1.345   1_556 S
