data_str_m2_o2_o5_pcu_sym.98
_audit_creation_date              2020-01-03
_audit_creation_method            'Materials Studio'
_symmetry_space_group_name_H-M    'P1'
_symmetry_Int_Tables_number       1
_symmetry_cell_setting            triclinic
loop_
_symmetry_equiv_pos_as_xyz
  x,y,z
_cell_length_a                    30.2958
_cell_length_b                    27.7195
_cell_length_c                    27.2079
_cell_angle_alpha                 89.9519
_cell_angle_beta                  89.7656
_cell_angle_gamma                 89.7924
loop_
_atom_site_label
_atom_site_type_symbol
_atom_site_fract_x
_atom_site_fract_y
_atom_site_fract_z
_atom_site_U_iso_or_equiv
_atom_site_adp_type
_atom_site_occupancy
C1     C     0.16484   0.25014   0.16668   0.00000  Uiso   1.00
C2     C     0.28195   0.44594   0.14030   0.00000  Uiso   1.00
C3     C     0.25003   0.25001   0.07351   0.00000  Uiso   1.00
C4     C     0.24999   0.24999   0.25982   0.00000  Uiso   1.00
C5     C     0.24996   0.02721   0.16666   0.00000  Uiso   1.00
C6     C     0.24997   0.47259   0.16666   0.00000  Uiso   1.00
C7     C     0.25003   0.25001   0.02184   0.00000  Uiso   1.00
C8     C     0.25002   0.24997   0.31149   0.00000  Uiso   1.00
C9     C     0.04640   0.28663   0.14233   0.00000  Uiso   1.00
C10    C     0.45254   0.21641   0.13490   0.00000  Uiso   1.00
C11    C     0.45304   0.27922   0.19800   0.00000  Uiso   1.00
C12    C     0.33506   0.24992   0.16640   0.00000  Uiso   1.00
C13    C     0.04723   0.21121   0.18894   0.00000  Uiso   1.00
C14    C     0.09260   0.28677   0.14142   0.00000  Uiso   1.00
C15    C     0.40639   0.21727   0.13487   0.00000  Uiso   1.00
C16    C     0.40686   0.28080   0.19745   0.00000  Uiso   1.00
C17    C     0.09323   0.21418   0.19288   0.00000  Uiso   1.00
C18    C     0.11637   0.25032   0.16671   0.00000  Uiso   1.00
C19    C     0.38336   0.24957   0.16602   0.00000  Uiso   1.00
C20    C     0.02400   0.24821   0.16509   0.00000  Uiso   1.00
C21    C     0.47571   0.24784   0.16605   0.00000  Uiso   1.00
C22    C     0.00898   0.32093   0.07812   0.00000  Uiso   1.00
C23    C     0.26511   0.10449   0.12665   0.00000  Uiso   1.00
C24    C     0.48775   0.19917   0.06232   0.00000  Uiso   1.00
C25    C     0.48493   0.28756   0.27310   0.00000  Uiso   1.00
C26    C     0.02770   0.13123   0.18930   0.00000  Uiso   1.00
C27    C     0.21871   0.39537   0.19269   0.00000  Uiso   1.00
C28    C     0.23488   0.10456   0.20668   0.00000  Uiso   1.00
C29    C     0.28127   0.39519   0.14065   0.00000  Uiso   1.00
C30    C     0.26526   0.05374   0.12584   0.00000  Uiso   1.00
C31    C     0.21800   0.44613   0.19303   0.00000  Uiso   1.00
C32    C     0.23469   0.05380   0.20749   0.00000  Uiso   1.00
Cu33   Cu    0.25000   0.29821   0.16667   0.00000  Uiso   1.00
Cu34   Cu    0.25000   0.20178   0.16667   0.00000  Uiso   1.00
H35    H     0.27709   0.12381   0.09484   0.00000  Uiso   1.00
H36    H     0.03424   0.30361   0.05398   0.00000  Uiso   1.00
H37    H     0.00178   0.35696   0.06225   0.00000  Uiso   1.00
H38    H     0.01905   0.21942   0.06578   0.00000  Uiso   1.00
H39    H     0.46185   0.22169   0.04444   0.00000  Uiso   1.00
H40    H     0.49441   0.16822   0.03754   0.00000  Uiso   1.00
H41    H     0.45445   0.27315   0.29067   0.00000  Uiso   1.00
H42    H     0.49915   0.31448   0.29859   0.00000  Uiso   1.00
H43    H     0.00960   0.25820   0.26864   0.00000  Uiso   1.00
H44    H     0.49427   0.11539   0.18598   0.00000  Uiso   1.00
H45    H     0.04786   0.10599   0.21159   0.00000  Uiso   1.00
H46    H     0.19396   0.37574   0.21322   0.00000  Uiso   1.00
H47    H     0.04216   0.13329   0.15153   0.00000  Uiso   1.00
H48    H     0.22292   0.12393   0.23850   0.00000  Uiso   1.00
H49    H     0.30603   0.37541   0.12009   0.00000  Uiso   1.00
H50    H     0.27674   0.03559   0.09298   0.00000  Uiso   1.00
H51    H     0.19208   0.46435   0.21332   0.00000  Uiso   1.00
H52    H     0.22319   0.03569   0.24034   0.00000  Uiso   1.00
H53    H     0.30785   0.46400   0.11999   0.00000  Uiso   1.00
H54    H     0.47770   0.30035   0.07770   0.00000  Uiso   1.00
I55    I     0.12358   0.34318   0.09995   0.00000  Uiso   1.00
I56    I     0.37368   0.17088   0.08390   0.00000  Uiso   1.00
I57    I     0.37466   0.32952   0.24720   0.00000  Uiso   1.00
I58    I     0.12482   0.16880   0.24600   0.00000  Uiso   1.00
N59    N     0.25000   0.12934   0.16667   0.00000  Uiso   1.00
N60    N     0.25000   0.37065   0.16667   0.00000  Uiso   1.00
O61    O     0.18573   0.29071   0.16667   0.00000  Uiso   1.00
O62    O     0.47457   0.18096   0.10848   0.00000  Uiso   1.00
O63    O     0.47617   0.31059   0.22786   0.00000  Uiso   1.00
O64    O     0.02397   0.17595   0.21408   0.00000  Uiso   1.00
O65    O     0.31427   0.20928   0.16666   0.00000  Uiso   1.00
O66    O     0.31427   0.29071   0.16666   0.00000  Uiso   1.00
O67    O     0.18573   0.20928   0.16667   0.00000  Uiso   1.00
O68    O     0.25000   0.29071   0.09613   0.00000  Uiso   1.00
O69    O     0.25000   0.20929   0.23720   0.00000  Uiso   1.00
O70    O     0.25000   0.29071   0.23720   0.00000  Uiso   1.00
O71    O     0.25000   0.20929   0.09613   0.00000  Uiso   1.00
O72    O     0.02360   0.32729   0.12680   0.00000  Uiso   1.00
C73    C     0.66484   0.25014   0.16668   0.00000  Uiso   1.00
C74    C     0.78195   0.44594   0.14030   0.00000  Uiso   1.00
C75    C     0.75003   0.25001   0.07351   0.00000  Uiso   1.00
C76    C     0.74999   0.24999   0.25982   0.00000  Uiso   1.00
C77    C     0.74996   0.02721   0.16666   0.00000  Uiso   1.00
C78    C     0.74997   0.47259   0.16666   0.00000  Uiso   1.00
C79    C     0.75003   0.25001   0.02184   0.00000  Uiso   1.00
C80    C     0.75002   0.24997   0.31149   0.00000  Uiso   1.00
C81    C     0.54640   0.28663   0.14233   0.00000  Uiso   1.00
C82    C     0.95254   0.21641   0.13490   0.00000  Uiso   1.00
C83    C     0.95304   0.27922   0.19800   0.00000  Uiso   1.00
C84    C     0.83506   0.24992   0.16640   0.00000  Uiso   1.00
C85    C     0.54723   0.21121   0.18894   0.00000  Uiso   1.00
C86    C     0.59260   0.28677   0.14142   0.00000  Uiso   1.00
C87    C     0.90639   0.21727   0.13487   0.00000  Uiso   1.00
C88    C     0.90686   0.28080   0.19745   0.00000  Uiso   1.00
C89    C     0.59323   0.21418   0.19288   0.00000  Uiso   1.00
C90    C     0.61637   0.25032   0.16671   0.00000  Uiso   1.00
C91    C     0.88336   0.24957   0.16602   0.00000  Uiso   1.00
C92    C     0.52400   0.24821   0.16509   0.00000  Uiso   1.00
C93    C     0.97571   0.24784   0.16605   0.00000  Uiso   1.00
C94    C     0.50898   0.32093   0.07812   0.00000  Uiso   1.00
C95    C     0.76511   0.10449   0.12665   0.00000  Uiso   1.00
C96    C     0.98775   0.19917   0.06232   0.00000  Uiso   1.00
C97    C     0.98493   0.28756   0.27310   0.00000  Uiso   1.00
C98    C     0.52770   0.13123   0.18930   0.00000  Uiso   1.00
C99    C     0.71871   0.39537   0.19269   0.00000  Uiso   1.00
C100   C     0.73488   0.10456   0.20668   0.00000  Uiso   1.00
C101   C     0.78127   0.39519   0.14065   0.00000  Uiso   1.00
C102   C     0.76526   0.05374   0.12584   0.00000  Uiso   1.00
C103   C     0.71800   0.44613   0.19303   0.00000  Uiso   1.00
C104   C     0.73469   0.05380   0.20749   0.00000  Uiso   1.00
Cu105  Cu    0.75000   0.29821   0.16667   0.00000  Uiso   1.00
Cu106  Cu    0.75000   0.20178   0.16667   0.00000  Uiso   1.00
H107   H     0.77709   0.12381   0.09484   0.00000  Uiso   1.00
H108   H     0.53424   0.30361   0.05398   0.00000  Uiso   1.00
H109   H     0.50178   0.35696   0.06225   0.00000  Uiso   1.00
H110   H     0.51905   0.21942   0.06578   0.00000  Uiso   1.00
H111   H     0.96185   0.22169   0.04444   0.00000  Uiso   1.00
H112   H     0.99441   0.16822   0.03754   0.00000  Uiso   1.00
H113   H     0.95445   0.27315   0.29067   0.00000  Uiso   1.00
H114   H     0.99915   0.31448   0.29859   0.00000  Uiso   1.00
H115   H     0.50960   0.25820   0.26864   0.00000  Uiso   1.00
H116   H     0.99427   0.11539   0.18598   0.00000  Uiso   1.00
H117   H     0.54786   0.10599   0.21159   0.00000  Uiso   1.00
H118   H     0.69396   0.37574   0.21322   0.00000  Uiso   1.00
H119   H     0.54216   0.13329   0.15153   0.00000  Uiso   1.00
H120   H     0.72292   0.12393   0.23850   0.00000  Uiso   1.00
H121   H     0.80603   0.37541   0.12009   0.00000  Uiso   1.00
H122   H     0.77674   0.03559   0.09298   0.00000  Uiso   1.00
H123   H     0.69208   0.46435   0.21332   0.00000  Uiso   1.00
H124   H     0.72319   0.03569   0.24034   0.00000  Uiso   1.00
H125   H     0.80785   0.46400   0.11999   0.00000  Uiso   1.00
H126   H     0.97770   0.30035   0.07770   0.00000  Uiso   1.00
I127   I     0.62358   0.34318   0.09995   0.00000  Uiso   1.00
I128   I     0.87368   0.17088   0.08390   0.00000  Uiso   1.00
I129   I     0.87466   0.32952   0.24720   0.00000  Uiso   1.00
I130   I     0.62482   0.16880   0.24600   0.00000  Uiso   1.00
N131   N     0.75000   0.12934   0.16667   0.00000  Uiso   1.00
N132   N     0.75000   0.37065   0.16667   0.00000  Uiso   1.00
O133   O     0.68573   0.29071   0.16667   0.00000  Uiso   1.00
O134   O     0.97457   0.18096   0.10848   0.00000  Uiso   1.00
O135   O     0.97617   0.31059   0.22786   0.00000  Uiso   1.00
O136   O     0.52397   0.17595   0.21408   0.00000  Uiso   1.00
O137   O     0.81427   0.20928   0.16666   0.00000  Uiso   1.00
O138   O     0.81427   0.29071   0.16666   0.00000  Uiso   1.00
O139   O     0.68573   0.20928   0.16667   0.00000  Uiso   1.00
O140   O     0.75000   0.29071   0.09613   0.00000  Uiso   1.00
O141   O     0.75000   0.20929   0.23720   0.00000  Uiso   1.00
O142   O     0.75000   0.29071   0.23720   0.00000  Uiso   1.00
O143   O     0.75000   0.20929   0.09613   0.00000  Uiso   1.00
O144   O     0.52360   0.32729   0.12680   0.00000  Uiso   1.00
C145   C     0.16484   0.75014   0.16668   0.00000  Uiso   1.00
C146   C     0.28195   0.94594   0.14030   0.00000  Uiso   1.00
C147   C     0.25003   0.75001   0.07351   0.00000  Uiso   1.00
C148   C     0.24999   0.74999   0.25982   0.00000  Uiso   1.00
C149   C     0.24996   0.52721   0.16666   0.00000  Uiso   1.00
C150   C     0.24997   0.97259   0.16666   0.00000  Uiso   1.00
C151   C     0.25003   0.75001   0.02184   0.00000  Uiso   1.00
C152   C     0.25002   0.74997   0.31149   0.00000  Uiso   1.00
C153   C     0.04640   0.78663   0.14233   0.00000  Uiso   1.00
C154   C     0.45254   0.71641   0.13490   0.00000  Uiso   1.00
C155   C     0.45304   0.77922   0.19800   0.00000  Uiso   1.00
C156   C     0.33506   0.74992   0.16640   0.00000  Uiso   1.00
C157   C     0.04723   0.71121   0.18894   0.00000  Uiso   1.00
C158   C     0.09260   0.78677   0.14142   0.00000  Uiso   1.00
C159   C     0.40639   0.71727   0.13487   0.00000  Uiso   1.00
C160   C     0.40686   0.78080   0.19745   0.00000  Uiso   1.00
C161   C     0.09323   0.71418   0.19288   0.00000  Uiso   1.00
C162   C     0.11637   0.75032   0.16671   0.00000  Uiso   1.00
C163   C     0.38336   0.74957   0.16602   0.00000  Uiso   1.00
C164   C     0.02400   0.74821   0.16509   0.00000  Uiso   1.00
C165   C     0.47571   0.74784   0.16605   0.00000  Uiso   1.00
C166   C     0.00898   0.82093   0.07812   0.00000  Uiso   1.00
C167   C     0.26511   0.60449   0.12665   0.00000  Uiso   1.00
C168   C     0.48775   0.69917   0.06232   0.00000  Uiso   1.00
C169   C     0.48493   0.78756   0.27310   0.00000  Uiso   1.00
C170   C     0.02770   0.63123   0.18930   0.00000  Uiso   1.00
C171   C     0.21871   0.89537   0.19269   0.00000  Uiso   1.00
C172   C     0.23488   0.60456   0.20668   0.00000  Uiso   1.00
C173   C     0.28127   0.89519   0.14065   0.00000  Uiso   1.00
C174   C     0.26526   0.55374   0.12584   0.00000  Uiso   1.00
C175   C     0.21800   0.94613   0.19303   0.00000  Uiso   1.00
C176   C     0.23469   0.55380   0.20749   0.00000  Uiso   1.00
Cu177  Cu    0.25000   0.79821   0.16667   0.00000  Uiso   1.00
Cu178  Cu    0.25000   0.70178   0.16667   0.00000  Uiso   1.00
H179   H     0.27709   0.62381   0.09484   0.00000  Uiso   1.00
H180   H     0.03424   0.80361   0.05398   0.00000  Uiso   1.00
H181   H     0.00178   0.85696   0.06225   0.00000  Uiso   1.00
H182   H     0.01905   0.71942   0.06578   0.00000  Uiso   1.00
H183   H     0.46185   0.72169   0.04444   0.00000  Uiso   1.00
H184   H     0.49441   0.66822   0.03754   0.00000  Uiso   1.00
H185   H     0.45445   0.77315   0.29067   0.00000  Uiso   1.00
H186   H     0.49915   0.81448   0.29859   0.00000  Uiso   1.00
H187   H     0.00960   0.75820   0.26864   0.00000  Uiso   1.00
H188   H     0.49427   0.61539   0.18598   0.00000  Uiso   1.00
H189   H     0.04786   0.60599   0.21159   0.00000  Uiso   1.00
H190   H     0.19396   0.87574   0.21322   0.00000  Uiso   1.00
H191   H     0.04216   0.63329   0.15153   0.00000  Uiso   1.00
H192   H     0.22292   0.62393   0.23850   0.00000  Uiso   1.00
H193   H     0.30603   0.87541   0.12009   0.00000  Uiso   1.00
H194   H     0.27674   0.53559   0.09298   0.00000  Uiso   1.00
H195   H     0.19208   0.96435   0.21332   0.00000  Uiso   1.00
H196   H     0.22319   0.53569   0.24034   0.00000  Uiso   1.00
H197   H     0.30785   0.96400   0.11999   0.00000  Uiso   1.00
H198   H     0.47770   0.80035   0.07770   0.00000  Uiso   1.00
I199   I     0.12358   0.84318   0.09995   0.00000  Uiso   1.00
I200   I     0.37368   0.67088   0.08390   0.00000  Uiso   1.00
I201   I     0.37466   0.82952   0.24720   0.00000  Uiso   1.00
I202   I     0.12482   0.66880   0.24600   0.00000  Uiso   1.00
N203   N     0.25000   0.62934   0.16667   0.00000  Uiso   1.00
N204   N     0.25000   0.87065   0.16667   0.00000  Uiso   1.00
O205   O     0.18573   0.79071   0.16667   0.00000  Uiso   1.00
O206   O     0.47457   0.68096   0.10848   0.00000  Uiso   1.00
O207   O     0.47617   0.81059   0.22786   0.00000  Uiso   1.00
O208   O     0.02397   0.67595   0.21408   0.00000  Uiso   1.00
O209   O     0.31427   0.70928   0.16666   0.00000  Uiso   1.00
O210   O     0.31427   0.79071   0.16666   0.00000  Uiso   1.00
O211   O     0.18573   0.70928   0.16667   0.00000  Uiso   1.00
O212   O     0.25000   0.79071   0.09613   0.00000  Uiso   1.00
O213   O     0.25000   0.70929   0.23720   0.00000  Uiso   1.00
O214   O     0.25000   0.79071   0.23720   0.00000  Uiso   1.00
O215   O     0.25000   0.70929   0.09613   0.00000  Uiso   1.00
O216   O     0.02360   0.82729   0.12680   0.00000  Uiso   1.00
C217   C     0.66484   0.75014   0.16668   0.00000  Uiso   1.00
C218   C     0.78195   0.94594   0.14030   0.00000  Uiso   1.00
C219   C     0.75003   0.75001   0.07351   0.00000  Uiso   1.00
C220   C     0.74999   0.74999   0.25982   0.00000  Uiso   1.00
C221   C     0.74996   0.52721   0.16666   0.00000  Uiso   1.00
C222   C     0.74997   0.97259   0.16666   0.00000  Uiso   1.00
C223   C     0.75003   0.75001   0.02184   0.00000  Uiso   1.00
C224   C     0.75002   0.74997   0.31149   0.00000  Uiso   1.00
C225   C     0.54640   0.78663   0.14233   0.00000  Uiso   1.00
C226   C     0.95254   0.71641   0.13490   0.00000  Uiso   1.00
C227   C     0.95304   0.77922   0.19800   0.00000  Uiso   1.00
C228   C     0.83506   0.74992   0.16640   0.00000  Uiso   1.00
C229   C     0.54723   0.71121   0.18894   0.00000  Uiso   1.00
C230   C     0.59260   0.78677   0.14142   0.00000  Uiso   1.00
C231   C     0.90639   0.71727   0.13487   0.00000  Uiso   1.00
C232   C     0.90686   0.78080   0.19745   0.00000  Uiso   1.00
C233   C     0.59323   0.71418   0.19288   0.00000  Uiso   1.00
C234   C     0.61637   0.75032   0.16671   0.00000  Uiso   1.00
C235   C     0.88336   0.74957   0.16602   0.00000  Uiso   1.00
C236   C     0.52400   0.74821   0.16509   0.00000  Uiso   1.00
C237   C     0.97571   0.74784   0.16605   0.00000  Uiso   1.00
C238   C     0.50898   0.82093   0.07812   0.00000  Uiso   1.00
C239   C     0.76511   0.60449   0.12665   0.00000  Uiso   1.00
C240   C     0.98775   0.69917   0.06232   0.00000  Uiso   1.00
C241   C     0.98493   0.78756   0.27310   0.00000  Uiso   1.00
C242   C     0.52770   0.63123   0.18930   0.00000  Uiso   1.00
C243   C     0.71871   0.89537   0.19269   0.00000  Uiso   1.00
C244   C     0.73488   0.60456   0.20668   0.00000  Uiso   1.00
C245   C     0.78127   0.89519   0.14065   0.00000  Uiso   1.00
C246   C     0.76526   0.55374   0.12584   0.00000  Uiso   1.00
C247   C     0.71800   0.94613   0.19303   0.00000  Uiso   1.00
C248   C     0.73469   0.55380   0.20749   0.00000  Uiso   1.00
Cu249  Cu    0.75000   0.79821   0.16667   0.00000  Uiso   1.00
Cu250  Cu    0.75000   0.70178   0.16667   0.00000  Uiso   1.00
H251   H     0.77709   0.62381   0.09484   0.00000  Uiso   1.00
H252   H     0.53424   0.80361   0.05398   0.00000  Uiso   1.00
H253   H     0.50178   0.85696   0.06225   0.00000  Uiso   1.00
H254   H     0.51905   0.71942   0.06578   0.00000  Uiso   1.00
H255   H     0.96185   0.72169   0.04444   0.00000  Uiso   1.00
H256   H     0.99441   0.66822   0.03754   0.00000  Uiso   1.00
H257   H     0.95445   0.77315   0.29067   0.00000  Uiso   1.00
H258   H     0.99915   0.81448   0.29859   0.00000  Uiso   1.00
H259   H     0.50960   0.75820   0.26864   0.00000  Uiso   1.00
H260   H     0.99427   0.61539   0.18598   0.00000  Uiso   1.00
H261   H     0.54786   0.60599   0.21159   0.00000  Uiso   1.00
H262   H     0.69396   0.87574   0.21322   0.00000  Uiso   1.00
H263   H     0.54216   0.63329   0.15153   0.00000  Uiso   1.00
H264   H     0.72292   0.62393   0.23850   0.00000  Uiso   1.00
H265   H     0.80603   0.87541   0.12009   0.00000  Uiso   1.00
H266   H     0.77674   0.53559   0.09298   0.00000  Uiso   1.00
H267   H     0.69208   0.96435   0.21332   0.00000  Uiso   1.00
H268   H     0.72319   0.53569   0.24034   0.00000  Uiso   1.00
H269   H     0.80785   0.96400   0.11999   0.00000  Uiso   1.00
H270   H     0.97770   0.80035   0.07770   0.00000  Uiso   1.00
I271   I     0.62358   0.84318   0.09995   0.00000  Uiso   1.00
I272   I     0.87368   0.67088   0.08390   0.00000  Uiso   1.00
I273   I     0.87466   0.82952   0.24720   0.00000  Uiso   1.00
I274   I     0.62482   0.66880   0.24600   0.00000  Uiso   1.00
N275   N     0.75000   0.62934   0.16667   0.00000  Uiso   1.00
N276   N     0.75000   0.87065   0.16667   0.00000  Uiso   1.00
O277   O     0.68573   0.79071   0.16667   0.00000  Uiso   1.00
O278   O     0.97457   0.68096   0.10848   0.00000  Uiso   1.00
O279   O     0.97617   0.81059   0.22786   0.00000  Uiso   1.00
O280   O     0.52397   0.67595   0.21408   0.00000  Uiso   1.00
O281   O     0.81427   0.70928   0.16666   0.00000  Uiso   1.00
O282   O     0.81427   0.79071   0.16666   0.00000  Uiso   1.00
O283   O     0.68573   0.70928   0.16667   0.00000  Uiso   1.00
O284   O     0.75000   0.79071   0.09613   0.00000  Uiso   1.00
O285   O     0.75000   0.70929   0.23720   0.00000  Uiso   1.00
O286   O     0.75000   0.79071   0.23720   0.00000  Uiso   1.00
O287   O     0.75000   0.70929   0.09613   0.00000  Uiso   1.00
O288   O     0.52360   0.82729   0.12680   0.00000  Uiso   1.00
C289   C     0.16484   0.25014   0.50001   0.00000  Uiso   1.00
C290   C     0.28195   0.44594   0.47363   0.00000  Uiso   1.00
C291   C     0.25003   0.25001   0.40684   0.00000  Uiso   1.00
C292   C     0.24999   0.24999   0.59315   0.00000  Uiso   1.00
C293   C     0.24996   0.02721   0.49999   0.00000  Uiso   1.00
C294   C     0.24997   0.47259   0.49999   0.00000  Uiso   1.00
C295   C     0.25003   0.25001   0.35518   0.00000  Uiso   1.00
C296   C     0.25002   0.24997   0.64482   0.00000  Uiso   1.00
C297   C     0.04640   0.28663   0.47566   0.00000  Uiso   1.00
C298   C     0.45254   0.21641   0.46823   0.00000  Uiso   1.00
C299   C     0.45304   0.27922   0.53134   0.00000  Uiso   1.00
C300   C     0.33506   0.24992   0.49974   0.00000  Uiso   1.00
C301   C     0.04723   0.21121   0.52227   0.00000  Uiso   1.00
C302   C     0.09260   0.28677   0.47475   0.00000  Uiso   1.00
C303   C     0.40639   0.21727   0.46820   0.00000  Uiso   1.00
C304   C     0.40686   0.28080   0.53078   0.00000  Uiso   1.00
C305   C     0.09323   0.21418   0.52621   0.00000  Uiso   1.00
C306   C     0.11637   0.25032   0.50004   0.00000  Uiso   1.00
C307   C     0.38336   0.24957   0.49936   0.00000  Uiso   1.00
C308   C     0.02400   0.24821   0.49842   0.00000  Uiso   1.00
C309   C     0.47571   0.24784   0.49938   0.00000  Uiso   1.00
C310   C     0.00898   0.32093   0.41145   0.00000  Uiso   1.00
C311   C     0.26511   0.10449   0.45998   0.00000  Uiso   1.00
C312   C     0.48775   0.19917   0.39566   0.00000  Uiso   1.00
C313   C     0.48493   0.28756   0.60644   0.00000  Uiso   1.00
C314   C     0.02770   0.13123   0.52263   0.00000  Uiso   1.00
C315   C     0.21871   0.39537   0.52602   0.00000  Uiso   1.00
C316   C     0.23488   0.10456   0.54002   0.00000  Uiso   1.00
C317   C     0.28127   0.39519   0.47398   0.00000  Uiso   1.00
C318   C     0.26526   0.05374   0.45917   0.00000  Uiso   1.00
C319   C     0.21800   0.44613   0.52636   0.00000  Uiso   1.00
C320   C     0.23469   0.05380   0.54082   0.00000  Uiso   1.00
Cu321  Cu    0.25000   0.29821   0.50000   0.00000  Uiso   1.00
Cu322  Cu    0.25000   0.20178   0.50000   0.00000  Uiso   1.00
H323   H     0.27709   0.12381   0.42817   0.00000  Uiso   1.00
H324   H     0.03424   0.30361   0.38731   0.00000  Uiso   1.00
H325   H     0.00178   0.35696   0.39559   0.00000  Uiso   1.00
H326   H     0.01905   0.21942   0.39912   0.00000  Uiso   1.00
H327   H     0.46185   0.22169   0.37778   0.00000  Uiso   1.00
H328   H     0.49441   0.16822   0.37087   0.00000  Uiso   1.00
H329   H     0.45445   0.27315   0.62400   0.00000  Uiso   1.00
H330   H     0.49915   0.31448   0.63192   0.00000  Uiso   1.00
H331   H     0.00960   0.25820   0.60198   0.00000  Uiso   1.00
H332   H     0.49427   0.11539   0.51931   0.00000  Uiso   1.00
H333   H     0.04786   0.10599   0.54492   0.00000  Uiso   1.00
H334   H     0.19396   0.37574   0.54655   0.00000  Uiso   1.00
H335   H     0.04216   0.13329   0.48486   0.00000  Uiso   1.00
H336   H     0.22292   0.12393   0.57184   0.00000  Uiso   1.00
H337   H     0.30603   0.37541   0.45342   0.00000  Uiso   1.00
H338   H     0.27674   0.03559   0.42631   0.00000  Uiso   1.00
H339   H     0.19208   0.46435   0.54666   0.00000  Uiso   1.00
H340   H     0.22319   0.03569   0.57368   0.00000  Uiso   1.00
H341   H     0.30785   0.46400   0.45332   0.00000  Uiso   1.00
H342   H     0.47770   0.30035   0.41103   0.00000  Uiso   1.00
I343   I     0.12358   0.34318   0.43328   0.00000  Uiso   1.00
I344   I     0.37368   0.17088   0.41723   0.00000  Uiso   1.00
I345   I     0.37466   0.32952   0.58053   0.00000  Uiso   1.00
I346   I     0.12482   0.16880   0.57934   0.00000  Uiso   1.00
N347   N     0.25000   0.12934   0.50000   0.00000  Uiso   1.00
N348   N     0.25000   0.37065   0.50000   0.00000  Uiso   1.00
O349   O     0.18573   0.29071   0.50000   0.00000  Uiso   1.00
O350   O     0.47457   0.18096   0.44181   0.00000  Uiso   1.00
O351   O     0.47617   0.31059   0.56119   0.00000  Uiso   1.00
O352   O     0.02397   0.17595   0.54741   0.00000  Uiso   1.00
O353   O     0.31427   0.20928   0.50000   0.00000  Uiso   1.00
O354   O     0.31427   0.29071   0.50000   0.00000  Uiso   1.00
O355   O     0.18573   0.20928   0.50000   0.00000  Uiso   1.00
O356   O     0.25000   0.29071   0.42946   0.00000  Uiso   1.00
O357   O     0.25000   0.20929   0.57054   0.00000  Uiso   1.00
O358   O     0.25000   0.29071   0.57054   0.00000  Uiso   1.00
O359   O     0.25000   0.20929   0.42946   0.00000  Uiso   1.00
O360   O     0.02360   0.32729   0.46013   0.00000  Uiso   1.00
C361   C     0.66484   0.25014   0.50001   0.00000  Uiso   1.00
C362   C     0.78195   0.44594   0.47363   0.00000  Uiso   1.00
C363   C     0.75003   0.25001   0.40684   0.00000  Uiso   1.00
C364   C     0.74999   0.24999   0.59315   0.00000  Uiso   1.00
C365   C     0.74996   0.02721   0.49999   0.00000  Uiso   1.00
C366   C     0.74997   0.47259   0.49999   0.00000  Uiso   1.00
C367   C     0.75003   0.25001   0.35518   0.00000  Uiso   1.00
C368   C     0.75002   0.24997   0.64482   0.00000  Uiso   1.00
C369   C     0.54640   0.28663   0.47566   0.00000  Uiso   1.00
C370   C     0.95254   0.21641   0.46823   0.00000  Uiso   1.00
C371   C     0.95304   0.27922   0.53134   0.00000  Uiso   1.00
C372   C     0.83506   0.24992   0.49974   0.00000  Uiso   1.00
C373   C     0.54723   0.21121   0.52227   0.00000  Uiso   1.00
C374   C     0.59260   0.28677   0.47475   0.00000  Uiso   1.00
C375   C     0.90639   0.21727   0.46820   0.00000  Uiso   1.00
C376   C     0.90686   0.28080   0.53078   0.00000  Uiso   1.00
C377   C     0.59323   0.21418   0.52621   0.00000  Uiso   1.00
C378   C     0.61637   0.25032   0.50004   0.00000  Uiso   1.00
C379   C     0.88336   0.24957   0.49936   0.00000  Uiso   1.00
C380   C     0.52400   0.24821   0.49842   0.00000  Uiso   1.00
C381   C     0.97571   0.24784   0.49938   0.00000  Uiso   1.00
C382   C     0.50898   0.32093   0.41145   0.00000  Uiso   1.00
C383   C     0.76511   0.10449   0.45998   0.00000  Uiso   1.00
C384   C     0.98775   0.19917   0.39566   0.00000  Uiso   1.00
C385   C     0.98493   0.28756   0.60644   0.00000  Uiso   1.00
C386   C     0.52770   0.13123   0.52263   0.00000  Uiso   1.00
C387   C     0.71871   0.39537   0.52602   0.00000  Uiso   1.00
C388   C     0.73488   0.10456   0.54002   0.00000  Uiso   1.00
C389   C     0.78127   0.39519   0.47398   0.00000  Uiso   1.00
C390   C     0.76526   0.05374   0.45917   0.00000  Uiso   1.00
C391   C     0.71800   0.44613   0.52636   0.00000  Uiso   1.00
C392   C     0.73469   0.05380   0.54082   0.00000  Uiso   1.00
Cu393  Cu    0.75000   0.29821   0.50000   0.00000  Uiso   1.00
Cu394  Cu    0.75000   0.20178   0.50000   0.00000  Uiso   1.00
H395   H     0.77709   0.12381   0.42817   0.00000  Uiso   1.00
H396   H     0.53424   0.30361   0.38731   0.00000  Uiso   1.00
H397   H     0.50178   0.35696   0.39559   0.00000  Uiso   1.00
H398   H     0.51905   0.21942   0.39912   0.00000  Uiso   1.00
H399   H     0.96185   0.22169   0.37778   0.00000  Uiso   1.00
H400   H     0.99441   0.16822   0.37087   0.00000  Uiso   1.00
H401   H     0.95445   0.27315   0.62400   0.00000  Uiso   1.00
H402   H     0.99915   0.31448   0.63192   0.00000  Uiso   1.00
H403   H     0.50960   0.25820   0.60198   0.00000  Uiso   1.00
H404   H     0.99427   0.11539   0.51931   0.00000  Uiso   1.00
H405   H     0.54786   0.10599   0.54492   0.00000  Uiso   1.00
H406   H     0.69396   0.37574   0.54655   0.00000  Uiso   1.00
H407   H     0.54216   0.13329   0.48486   0.00000  Uiso   1.00
H408   H     0.72292   0.12393   0.57184   0.00000  Uiso   1.00
H409   H     0.80603   0.37541   0.45342   0.00000  Uiso   1.00
H410   H     0.77674   0.03559   0.42631   0.00000  Uiso   1.00
H411   H     0.69208   0.46435   0.54666   0.00000  Uiso   1.00
H412   H     0.72319   0.03569   0.57368   0.00000  Uiso   1.00
H413   H     0.80785   0.46400   0.45332   0.00000  Uiso   1.00
H414   H     0.97770   0.30035   0.41103   0.00000  Uiso   1.00
I415   I     0.62358   0.34318   0.43328   0.00000  Uiso   1.00
I416   I     0.87368   0.17088   0.41723   0.00000  Uiso   1.00
I417   I     0.87466   0.32952   0.58053   0.00000  Uiso   1.00
I418   I     0.62482   0.16880   0.57934   0.00000  Uiso   1.00
N419   N     0.75000   0.12934   0.50000   0.00000  Uiso   1.00
N420   N     0.75000   0.37065   0.50000   0.00000  Uiso   1.00
O421   O     0.68573   0.29071   0.50000   0.00000  Uiso   1.00
O422   O     0.97457   0.18096   0.44181   0.00000  Uiso   1.00
O423   O     0.97617   0.31059   0.56119   0.00000  Uiso   1.00
O424   O     0.52397   0.17595   0.54741   0.00000  Uiso   1.00
O425   O     0.81427   0.20928   0.50000   0.00000  Uiso   1.00
O426   O     0.81427   0.29071   0.50000   0.00000  Uiso   1.00
O427   O     0.68573   0.20928   0.50000   0.00000  Uiso   1.00
O428   O     0.75000   0.29071   0.42946   0.00000  Uiso   1.00
O429   O     0.75000   0.20929   0.57054   0.00000  Uiso   1.00
O430   O     0.75000   0.29071   0.57054   0.00000  Uiso   1.00
O431   O     0.75000   0.20929   0.42946   0.00000  Uiso   1.00
O432   O     0.52360   0.32729   0.46013   0.00000  Uiso   1.00
C433   C     0.16484   0.75014   0.50001   0.00000  Uiso   1.00
C434   C     0.28195   0.94594   0.47363   0.00000  Uiso   1.00
C435   C     0.25003   0.75001   0.40684   0.00000  Uiso   1.00
C436   C     0.24999   0.74999   0.59315   0.00000  Uiso   1.00
C437   C     0.24996   0.52721   0.49999   0.00000  Uiso   1.00
C438   C     0.24997   0.97259   0.49999   0.00000  Uiso   1.00
C439   C     0.25003   0.75001   0.35518   0.00000  Uiso   1.00
C440   C     0.25002   0.74997   0.64482   0.00000  Uiso   1.00
C441   C     0.04640   0.78663   0.47566   0.00000  Uiso   1.00
C442   C     0.45254   0.71641   0.46823   0.00000  Uiso   1.00
C443   C     0.45304   0.77922   0.53134   0.00000  Uiso   1.00
C444   C     0.33506   0.74992   0.49974   0.00000  Uiso   1.00
C445   C     0.04723   0.71121   0.52227   0.00000  Uiso   1.00
C446   C     0.09260   0.78677   0.47475   0.00000  Uiso   1.00
C447   C     0.40639   0.71727   0.46820   0.00000  Uiso   1.00
C448   C     0.40686   0.78080   0.53078   0.00000  Uiso   1.00
C449   C     0.09323   0.71418   0.52621   0.00000  Uiso   1.00
C450   C     0.11637   0.75032   0.50004   0.00000  Uiso   1.00
C451   C     0.38336   0.74957   0.49936   0.00000  Uiso   1.00
C452   C     0.02400   0.74821   0.49842   0.00000  Uiso   1.00
C453   C     0.47571   0.74784   0.49938   0.00000  Uiso   1.00
C454   C     0.00898   0.82093   0.41145   0.00000  Uiso   1.00
C455   C     0.26511   0.60449   0.45998   0.00000  Uiso   1.00
C456   C     0.48775   0.69917   0.39566   0.00000  Uiso   1.00
C457   C     0.48493   0.78756   0.60644   0.00000  Uiso   1.00
C458   C     0.02770   0.63123   0.52263   0.00000  Uiso   1.00
C459   C     0.21871   0.89537   0.52602   0.00000  Uiso   1.00
C460   C     0.23488   0.60456   0.54002   0.00000  Uiso   1.00
C461   C     0.28127   0.89519   0.47398   0.00000  Uiso   1.00
C462   C     0.26526   0.55374   0.45917   0.00000  Uiso   1.00
C463   C     0.21800   0.94613   0.52636   0.00000  Uiso   1.00
C464   C     0.23469   0.55380   0.54082   0.00000  Uiso   1.00
Cu465  Cu    0.25000   0.79821   0.50000   0.00000  Uiso   1.00
Cu466  Cu    0.25000   0.70178   0.50000   0.00000  Uiso   1.00
H467   H     0.27709   0.62381   0.42817   0.00000  Uiso   1.00
H468   H     0.03424   0.80361   0.38731   0.00000  Uiso   1.00
H469   H     0.00178   0.85696   0.39559   0.00000  Uiso   1.00
H470   H     0.01905   0.71942   0.39912   0.00000  Uiso   1.00
H471   H     0.46185   0.72169   0.37778   0.00000  Uiso   1.00
H472   H     0.49441   0.66822   0.37087   0.00000  Uiso   1.00
H473   H     0.45445   0.77315   0.62400   0.00000  Uiso   1.00
H474   H     0.49915   0.81448   0.63192   0.00000  Uiso   1.00
H475   H     0.00960   0.75820   0.60198   0.00000  Uiso   1.00
H476   H     0.49427   0.61539   0.51931   0.00000  Uiso   1.00
H477   H     0.04786   0.60599   0.54492   0.00000  Uiso   1.00
H478   H     0.19396   0.87574   0.54655   0.00000  Uiso   1.00
H479   H     0.04216   0.63329   0.48486   0.00000  Uiso   1.00
H480   H     0.22292   0.62393   0.57184   0.00000  Uiso   1.00
H481   H     0.30603   0.87541   0.45342   0.00000  Uiso   1.00
H482   H     0.27674   0.53559   0.42631   0.00000  Uiso   1.00
H483   H     0.19208   0.96435   0.54666   0.00000  Uiso   1.00
H484   H     0.22319   0.53569   0.57368   0.00000  Uiso   1.00
H485   H     0.30785   0.96400   0.45332   0.00000  Uiso   1.00
H486   H     0.47770   0.80035   0.41103   0.00000  Uiso   1.00
I487   I     0.12358   0.84318   0.43328   0.00000  Uiso   1.00
I488   I     0.37368   0.67088   0.41723   0.00000  Uiso   1.00
I489   I     0.37466   0.82952   0.58053   0.00000  Uiso   1.00
I490   I     0.12482   0.66880   0.57934   0.00000  Uiso   1.00
N491   N     0.25000   0.62934   0.50000   0.00000  Uiso   1.00
N492   N     0.25000   0.87065   0.50000   0.00000  Uiso   1.00
O493   O     0.18573   0.79071   0.50000   0.00000  Uiso   1.00
O494   O     0.47457   0.68096   0.44181   0.00000  Uiso   1.00
O495   O     0.47617   0.81059   0.56119   0.00000  Uiso   1.00
O496   O     0.02397   0.67595   0.54741   0.00000  Uiso   1.00
O497   O     0.31427   0.70928   0.50000   0.00000  Uiso   1.00
O498   O     0.31427   0.79071   0.50000   0.00000  Uiso   1.00
O499   O     0.18573   0.70928   0.50000   0.00000  Uiso   1.00
O500   O     0.25000   0.79071   0.42946   0.00000  Uiso   1.00
O501   O     0.25000   0.70929   0.57054   0.00000  Uiso   1.00
O502   O     0.25000   0.79071   0.57054   0.00000  Uiso   1.00
O503   O     0.25000   0.70929   0.42946   0.00000  Uiso   1.00
O504   O     0.02360   0.82729   0.46013   0.00000  Uiso   1.00
C505   C     0.66484   0.75014   0.50001   0.00000  Uiso   1.00
C506   C     0.78195   0.94594   0.47363   0.00000  Uiso   1.00
C507   C     0.75003   0.75001   0.40684   0.00000  Uiso   1.00
C508   C     0.74999   0.74999   0.59315   0.00000  Uiso   1.00
C509   C     0.74996   0.52721   0.49999   0.00000  Uiso   1.00
C510   C     0.74997   0.97259   0.49999   0.00000  Uiso   1.00
C511   C     0.75003   0.75001   0.35518   0.00000  Uiso   1.00
C512   C     0.75002   0.74997   0.64482   0.00000  Uiso   1.00
C513   C     0.54640   0.78663   0.47566   0.00000  Uiso   1.00
C514   C     0.95254   0.71641   0.46823   0.00000  Uiso   1.00
C515   C     0.95304   0.77922   0.53134   0.00000  Uiso   1.00
C516   C     0.83506   0.74992   0.49974   0.00000  Uiso   1.00
C517   C     0.54723   0.71121   0.52227   0.00000  Uiso   1.00
C518   C     0.59260   0.78677   0.47475   0.00000  Uiso   1.00
C519   C     0.90639   0.71727   0.46820   0.00000  Uiso   1.00
C520   C     0.90686   0.78080   0.53078   0.00000  Uiso   1.00
C521   C     0.59323   0.71418   0.52621   0.00000  Uiso   1.00
C522   C     0.61637   0.75032   0.50004   0.00000  Uiso   1.00
C523   C     0.88336   0.74957   0.49936   0.00000  Uiso   1.00
C524   C     0.52400   0.74821   0.49842   0.00000  Uiso   1.00
C525   C     0.97571   0.74784   0.49938   0.00000  Uiso   1.00
C526   C     0.50898   0.82093   0.41145   0.00000  Uiso   1.00
C527   C     0.76511   0.60449   0.45998   0.00000  Uiso   1.00
C528   C     0.98775   0.69917   0.39566   0.00000  Uiso   1.00
C529   C     0.98493   0.78756   0.60644   0.00000  Uiso   1.00
C530   C     0.52770   0.63123   0.52263   0.00000  Uiso   1.00
C531   C     0.71871   0.89537   0.52602   0.00000  Uiso   1.00
C532   C     0.73488   0.60456   0.54002   0.00000  Uiso   1.00
C533   C     0.78127   0.89519   0.47398   0.00000  Uiso   1.00
C534   C     0.76526   0.55374   0.45917   0.00000  Uiso   1.00
C535   C     0.71800   0.94613   0.52636   0.00000  Uiso   1.00
C536   C     0.73469   0.55380   0.54082   0.00000  Uiso   1.00
Cu537  Cu    0.75000   0.79821   0.50000   0.00000  Uiso   1.00
Cu538  Cu    0.75000   0.70178   0.50000   0.00000  Uiso   1.00
H539   H     0.77709   0.62381   0.42817   0.00000  Uiso   1.00
H540   H     0.53424   0.80361   0.38731   0.00000  Uiso   1.00
H541   H     0.50178   0.85696   0.39559   0.00000  Uiso   1.00
H542   H     0.51905   0.71942   0.39912   0.00000  Uiso   1.00
H543   H     0.96185   0.72169   0.37778   0.00000  Uiso   1.00
H544   H     0.99441   0.66822   0.37087   0.00000  Uiso   1.00
H545   H     0.95445   0.77315   0.62400   0.00000  Uiso   1.00
H546   H     0.99915   0.81448   0.63192   0.00000  Uiso   1.00
H547   H     0.50960   0.75820   0.60198   0.00000  Uiso   1.00
H548   H     0.99427   0.61539   0.51931   0.00000  Uiso   1.00
H549   H     0.54786   0.60599   0.54492   0.00000  Uiso   1.00
H550   H     0.69396   0.87574   0.54655   0.00000  Uiso   1.00
H551   H     0.54216   0.63329   0.48486   0.00000  Uiso   1.00
H552   H     0.72292   0.62393   0.57184   0.00000  Uiso   1.00
H553   H     0.80603   0.87541   0.45342   0.00000  Uiso   1.00
H554   H     0.77674   0.53559   0.42631   0.00000  Uiso   1.00
H555   H     0.69208   0.96435   0.54666   0.00000  Uiso   1.00
H556   H     0.72319   0.53569   0.57368   0.00000  Uiso   1.00
H557   H     0.80785   0.96400   0.45332   0.00000  Uiso   1.00
H558   H     0.97770   0.80035   0.41103   0.00000  Uiso   1.00
I559   I     0.62358   0.84318   0.43328   0.00000  Uiso   1.00
I560   I     0.87368   0.67088   0.41723   0.00000  Uiso   1.00
I561   I     0.87466   0.82952   0.58053   0.00000  Uiso   1.00
I562   I     0.62482   0.66880   0.57934   0.00000  Uiso   1.00
N563   N     0.75000   0.62934   0.50000   0.00000  Uiso   1.00
N564   N     0.75000   0.87065   0.50000   0.00000  Uiso   1.00
O565   O     0.68573   0.79071   0.50000   0.00000  Uiso   1.00
O566   O     0.97457   0.68096   0.44181   0.00000  Uiso   1.00
O567   O     0.97617   0.81059   0.56119   0.00000  Uiso   1.00
O568   O     0.52397   0.67595   0.54741   0.00000  Uiso   1.00
O569   O     0.81427   0.70928   0.50000   0.00000  Uiso   1.00
O570   O     0.81427   0.79071   0.50000   0.00000  Uiso   1.00
O571   O     0.68573   0.70928   0.50000   0.00000  Uiso   1.00
O572   O     0.75000   0.79071   0.42946   0.00000  Uiso   1.00
O573   O     0.75000   0.70929   0.57054   0.00000  Uiso   1.00
O574   O     0.75000   0.79071   0.57054   0.00000  Uiso   1.00
O575   O     0.75000   0.70929   0.42946   0.00000  Uiso   1.00
O576   O     0.52360   0.82729   0.46013   0.00000  Uiso   1.00
C577   C     0.16484   0.25014   0.83335   0.00000  Uiso   1.00
C578   C     0.28195   0.44594   0.80697   0.00000  Uiso   1.00
C579   C     0.25003   0.25001   0.74018   0.00000  Uiso   1.00
C580   C     0.24999   0.24999   0.92649   0.00000  Uiso   1.00
C581   C     0.24996   0.02721   0.83333   0.00000  Uiso   1.00
C582   C     0.24997   0.47259   0.83333   0.00000  Uiso   1.00
C583   C     0.25003   0.25001   0.68851   0.00000  Uiso   1.00
C584   C     0.25002   0.24997   0.97816   0.00000  Uiso   1.00
C585   C     0.04640   0.28663   0.80900   0.00000  Uiso   1.00
C586   C     0.45254   0.21641   0.80156   0.00000  Uiso   1.00
C587   C     0.45304   0.27922   0.86467   0.00000  Uiso   1.00
C588   C     0.33506   0.24992   0.83307   0.00000  Uiso   1.00
C589   C     0.04723   0.21121   0.85560   0.00000  Uiso   1.00
C590   C     0.09260   0.28677   0.80809   0.00000  Uiso   1.00
C591   C     0.40639   0.21727   0.80153   0.00000  Uiso   1.00
C592   C     0.40686   0.28080   0.86412   0.00000  Uiso   1.00
C593   C     0.09323   0.21418   0.85955   0.00000  Uiso   1.00
C594   C     0.11637   0.25032   0.83337   0.00000  Uiso   1.00
C595   C     0.38336   0.24957   0.83269   0.00000  Uiso   1.00
C596   C     0.02400   0.24821   0.83176   0.00000  Uiso   1.00
C597   C     0.47571   0.24784   0.83271   0.00000  Uiso   1.00
C598   C     0.00898   0.32093   0.74479   0.00000  Uiso   1.00
C599   C     0.26511   0.10449   0.79332   0.00000  Uiso   1.00
C600   C     0.48775   0.19917   0.72899   0.00000  Uiso   1.00
C601   C     0.48493   0.28756   0.93977   0.00000  Uiso   1.00
C602   C     0.02770   0.13123   0.85596   0.00000  Uiso   1.00
C603   C     0.21871   0.39537   0.85935   0.00000  Uiso   1.00
C604   C     0.23488   0.10456   0.87335   0.00000  Uiso   1.00
C605   C     0.28127   0.39519   0.80731   0.00000  Uiso   1.00
C606   C     0.26526   0.05374   0.79250   0.00000  Uiso   1.00
C607   C     0.21800   0.44613   0.85969   0.00000  Uiso   1.00
C608   C     0.23469   0.05380   0.87415   0.00000  Uiso   1.00
Cu609  Cu    0.25000   0.29821   0.83333   0.00000  Uiso   1.00
Cu610  Cu    0.25000   0.20178   0.83333   0.00000  Uiso   1.00
H611   H     0.27709   0.12381   0.76150   0.00000  Uiso   1.00
H612   H     0.03424   0.30361   0.72064   0.00000  Uiso   1.00
H613   H     0.00178   0.35696   0.72892   0.00000  Uiso   1.00
H614   H     0.01905   0.21942   0.73245   0.00000  Uiso   1.00
H615   H     0.46185   0.22169   0.71111   0.00000  Uiso   1.00
H616   H     0.49441   0.16822   0.70421   0.00000  Uiso   1.00
H617   H     0.45445   0.27315   0.95734   0.00000  Uiso   1.00
H618   H     0.49915   0.31448   0.96525   0.00000  Uiso   1.00
H619   H     0.00960   0.25820   0.93531   0.00000  Uiso   1.00
H620   H     0.49427   0.11539   0.85265   0.00000  Uiso   1.00
H621   H     0.04786   0.10599   0.87825   0.00000  Uiso   1.00
H622   H     0.19396   0.37574   0.87989   0.00000  Uiso   1.00
H623   H     0.04216   0.13329   0.81820   0.00000  Uiso   1.00
H624   H     0.22292   0.12393   0.90517   0.00000  Uiso   1.00
H625   H     0.30603   0.37541   0.78676   0.00000  Uiso   1.00
H626   H     0.27674   0.03559   0.75964   0.00000  Uiso   1.00
H627   H     0.19208   0.46435   0.87999   0.00000  Uiso   1.00
H628   H     0.22319   0.03569   0.90701   0.00000  Uiso   1.00
H629   H     0.30785   0.46400   0.78666   0.00000  Uiso   1.00
H630   H     0.47770   0.30035   0.74436   0.00000  Uiso   1.00
I631   I     0.12358   0.34318   0.76662   0.00000  Uiso   1.00
I632   I     0.37368   0.17088   0.75056   0.00000  Uiso   1.00
I633   I     0.37466   0.32952   0.91387   0.00000  Uiso   1.00
I634   I     0.12482   0.16880   0.91267   0.00000  Uiso   1.00
N635   N     0.25000   0.12934   0.83333   0.00000  Uiso   1.00
N636   N     0.25000   0.37065   0.83333   0.00000  Uiso   1.00
O637   O     0.18573   0.29071   0.83334   0.00000  Uiso   1.00
O638   O     0.47457   0.18096   0.77515   0.00000  Uiso   1.00
O639   O     0.47617   0.31059   0.89452   0.00000  Uiso   1.00
O640   O     0.02397   0.17595   0.88074   0.00000  Uiso   1.00
O641   O     0.31427   0.20928   0.83333   0.00000  Uiso   1.00
O642   O     0.31427   0.29071   0.83333   0.00000  Uiso   1.00
O643   O     0.18573   0.20928   0.83334   0.00000  Uiso   1.00
O644   O     0.25000   0.29071   0.76280   0.00000  Uiso   1.00
O645   O     0.25000   0.20929   0.90387   0.00000  Uiso   1.00
O646   O     0.25000   0.29071   0.90387   0.00000  Uiso   1.00
O647   O     0.25000   0.20929   0.76280   0.00000  Uiso   1.00
O648   O     0.02360   0.32729   0.79347   0.00000  Uiso   1.00
C649   C     0.66484   0.25014   0.83335   0.00000  Uiso   1.00
C650   C     0.78195   0.44594   0.80697   0.00000  Uiso   1.00
C651   C     0.75003   0.25001   0.74018   0.00000  Uiso   1.00
C652   C     0.74999   0.24999   0.92649   0.00000  Uiso   1.00
C653   C     0.74996   0.02721   0.83333   0.00000  Uiso   1.00
C654   C     0.74997   0.47259   0.83333   0.00000  Uiso   1.00
C655   C     0.75003   0.25001   0.68851   0.00000  Uiso   1.00
C656   C     0.75002   0.24997   0.97816   0.00000  Uiso   1.00
C657   C     0.54640   0.28663   0.80900   0.00000  Uiso   1.00
C658   C     0.95254   0.21641   0.80156   0.00000  Uiso   1.00
C659   C     0.95304   0.27922   0.86467   0.00000  Uiso   1.00
C660   C     0.83506   0.24992   0.83307   0.00000  Uiso   1.00
C661   C     0.54723   0.21121   0.85560   0.00000  Uiso   1.00
C662   C     0.59260   0.28677   0.80809   0.00000  Uiso   1.00
C663   C     0.90639   0.21727   0.80153   0.00000  Uiso   1.00
C664   C     0.90686   0.28080   0.86412   0.00000  Uiso   1.00
C665   C     0.59323   0.21418   0.85955   0.00000  Uiso   1.00
C666   C     0.61637   0.25032   0.83337   0.00000  Uiso   1.00
C667   C     0.88336   0.24957   0.83269   0.00000  Uiso   1.00
C668   C     0.52400   0.24821   0.83176   0.00000  Uiso   1.00
C669   C     0.97571   0.24784   0.83271   0.00000  Uiso   1.00
C670   C     0.50898   0.32093   0.74479   0.00000  Uiso   1.00
C671   C     0.76511   0.10449   0.79332   0.00000  Uiso   1.00
C672   C     0.98775   0.19917   0.72899   0.00000  Uiso   1.00
C673   C     0.98493   0.28756   0.93977   0.00000  Uiso   1.00
C674   C     0.52770   0.13123   0.85596   0.00000  Uiso   1.00
C675   C     0.71871   0.39537   0.85935   0.00000  Uiso   1.00
C676   C     0.73488   0.10456   0.87335   0.00000  Uiso   1.00
C677   C     0.78127   0.39519   0.80731   0.00000  Uiso   1.00
C678   C     0.76526   0.05374   0.79250   0.00000  Uiso   1.00
C679   C     0.71800   0.44613   0.85969   0.00000  Uiso   1.00
C680   C     0.73469   0.05380   0.87415   0.00000  Uiso   1.00
Cu681  Cu    0.75000   0.29821   0.83333   0.00000  Uiso   1.00
Cu682  Cu    0.75000   0.20178   0.83333   0.00000  Uiso   1.00
H683   H     0.77709   0.12381   0.76150   0.00000  Uiso   1.00
H684   H     0.53424   0.30361   0.72064   0.00000  Uiso   1.00
H685   H     0.50178   0.35696   0.72892   0.00000  Uiso   1.00
H686   H     0.51905   0.21942   0.73245   0.00000  Uiso   1.00
H687   H     0.96185   0.22169   0.71111   0.00000  Uiso   1.00
H688   H     0.99441   0.16822   0.70421   0.00000  Uiso   1.00
H689   H     0.95445   0.27315   0.95734   0.00000  Uiso   1.00
H690   H     0.99915   0.31448   0.96525   0.00000  Uiso   1.00
H691   H     0.50960   0.25820   0.93531   0.00000  Uiso   1.00
H692   H     0.99427   0.11539   0.85265   0.00000  Uiso   1.00
H693   H     0.54786   0.10599   0.87825   0.00000  Uiso   1.00
H694   H     0.69396   0.37574   0.87989   0.00000  Uiso   1.00
H695   H     0.54216   0.13329   0.81820   0.00000  Uiso   1.00
H696   H     0.72292   0.12393   0.90517   0.00000  Uiso   1.00
H697   H     0.80603   0.37541   0.78676   0.00000  Uiso   1.00
H698   H     0.77674   0.03559   0.75964   0.00000  Uiso   1.00
H699   H     0.69208   0.46435   0.87999   0.00000  Uiso   1.00
H700   H     0.72319   0.03569   0.90701   0.00000  Uiso   1.00
H701   H     0.80785   0.46400   0.78666   0.00000  Uiso   1.00
H702   H     0.97770   0.30035   0.74436   0.00000  Uiso   1.00
I703   I     0.62358   0.34318   0.76662   0.00000  Uiso   1.00
I704   I     0.87368   0.17088   0.75056   0.00000  Uiso   1.00
I705   I     0.87466   0.32952   0.91387   0.00000  Uiso   1.00
I706   I     0.62482   0.16880   0.91267   0.00000  Uiso   1.00
N707   N     0.75000   0.12934   0.83333   0.00000  Uiso   1.00
N708   N     0.75000   0.37065   0.83333   0.00000  Uiso   1.00
O709   O     0.68573   0.29071   0.83334   0.00000  Uiso   1.00
O710   O     0.97457   0.18096   0.77515   0.00000  Uiso   1.00
O711   O     0.97617   0.31059   0.89452   0.00000  Uiso   1.00
O712   O     0.52397   0.17595   0.88074   0.00000  Uiso   1.00
O713   O     0.81427   0.20928   0.83333   0.00000  Uiso   1.00
O714   O     0.81427   0.29071   0.83333   0.00000  Uiso   1.00
O715   O     0.68573   0.20928   0.83334   0.00000  Uiso   1.00
O716   O     0.75000   0.29071   0.76280   0.00000  Uiso   1.00
O717   O     0.75000   0.20929   0.90387   0.00000  Uiso   1.00
O718   O     0.75000   0.29071   0.90387   0.00000  Uiso   1.00
O719   O     0.75000   0.20929   0.76280   0.00000  Uiso   1.00
O720   O     0.52360   0.32729   0.79347   0.00000  Uiso   1.00
C721   C     0.16484   0.75014   0.83335   0.00000  Uiso   1.00
C722   C     0.28195   0.94594   0.80697   0.00000  Uiso   1.00
C723   C     0.25003   0.75001   0.74018   0.00000  Uiso   1.00
C724   C     0.24999   0.74999   0.92649   0.00000  Uiso   1.00
C725   C     0.24996   0.52721   0.83333   0.00000  Uiso   1.00
C726   C     0.24997   0.97259   0.83333   0.00000  Uiso   1.00
C727   C     0.25003   0.75001   0.68851   0.00000  Uiso   1.00
C728   C     0.25002   0.74997   0.97816   0.00000  Uiso   1.00
C729   C     0.04640   0.78663   0.80900   0.00000  Uiso   1.00
C730   C     0.45254   0.71641   0.80156   0.00000  Uiso   1.00
C731   C     0.45304   0.77922   0.86467   0.00000  Uiso   1.00
C732   C     0.33506   0.74992   0.83307   0.00000  Uiso   1.00
C733   C     0.04723   0.71121   0.85560   0.00000  Uiso   1.00
C734   C     0.09260   0.78677   0.80809   0.00000  Uiso   1.00
C735   C     0.40639   0.71727   0.80153   0.00000  Uiso   1.00
C736   C     0.40686   0.78080   0.86412   0.00000  Uiso   1.00
C737   C     0.09323   0.71418   0.85955   0.00000  Uiso   1.00
C738   C     0.11637   0.75032   0.83337   0.00000  Uiso   1.00
C739   C     0.38336   0.74957   0.83269   0.00000  Uiso   1.00
C740   C     0.02400   0.74821   0.83176   0.00000  Uiso   1.00
C741   C     0.47571   0.74784   0.83271   0.00000  Uiso   1.00
C742   C     0.00898   0.82093   0.74479   0.00000  Uiso   1.00
C743   C     0.26511   0.60449   0.79332   0.00000  Uiso   1.00
C744   C     0.48775   0.69917   0.72899   0.00000  Uiso   1.00
C745   C     0.48493   0.78756   0.93977   0.00000  Uiso   1.00
C746   C     0.02770   0.63123   0.85596   0.00000  Uiso   1.00
C747   C     0.21871   0.89537   0.85935   0.00000  Uiso   1.00
C748   C     0.23488   0.60456   0.87335   0.00000  Uiso   1.00
C749   C     0.28127   0.89519   0.80731   0.00000  Uiso   1.00
C750   C     0.26526   0.55374   0.79250   0.00000  Uiso   1.00
C751   C     0.21800   0.94613   0.85969   0.00000  Uiso   1.00
C752   C     0.23469   0.55380   0.87415   0.00000  Uiso   1.00
Cu753  Cu    0.25000   0.79821   0.83333   0.00000  Uiso   1.00
Cu754  Cu    0.25000   0.70178   0.83333   0.00000  Uiso   1.00
H755   H     0.27709   0.62381   0.76150   0.00000  Uiso   1.00
H756   H     0.03424   0.80361   0.72064   0.00000  Uiso   1.00
H757   H     0.00178   0.85696   0.72892   0.00000  Uiso   1.00
H758   H     0.01905   0.71942   0.73245   0.00000  Uiso   1.00
H759   H     0.46185   0.72169   0.71111   0.00000  Uiso   1.00
H760   H     0.49441   0.66822   0.70421   0.00000  Uiso   1.00
H761   H     0.45445   0.77315   0.95734   0.00000  Uiso   1.00
H762   H     0.49915   0.81448   0.96525   0.00000  Uiso   1.00
H763   H     0.00960   0.75820   0.93531   0.00000  Uiso   1.00
H764   H     0.49427   0.61539   0.85265   0.00000  Uiso   1.00
H765   H     0.04786   0.60599   0.87825   0.00000  Uiso   1.00
H766   H     0.19396   0.87574   0.87989   0.00000  Uiso   1.00
H767   H     0.04216   0.63329   0.81820   0.00000  Uiso   1.00
H768   H     0.22292   0.62393   0.90517   0.00000  Uiso   1.00
H769   H     0.30603   0.87541   0.78676   0.00000  Uiso   1.00
H770   H     0.27674   0.53559   0.75964   0.00000  Uiso   1.00
H771   H     0.19208   0.96435   0.87999   0.00000  Uiso   1.00
H772   H     0.22319   0.53569   0.90701   0.00000  Uiso   1.00
H773   H     0.30785   0.96400   0.78666   0.00000  Uiso   1.00
H774   H     0.47770   0.80035   0.74436   0.00000  Uiso   1.00
I775   I     0.12358   0.84318   0.76662   0.00000  Uiso   1.00
I776   I     0.37368   0.67088   0.75056   0.00000  Uiso   1.00
I777   I     0.37466   0.82952   0.91387   0.00000  Uiso   1.00
I778   I     0.12482   0.66880   0.91267   0.00000  Uiso   1.00
N779   N     0.25000   0.62934   0.83333   0.00000  Uiso   1.00
N780   N     0.25000   0.87065   0.83333   0.00000  Uiso   1.00
O781   O     0.18573   0.79071   0.83334   0.00000  Uiso   1.00
O782   O     0.47457   0.68096   0.77515   0.00000  Uiso   1.00
O783   O     0.47617   0.81059   0.89452   0.00000  Uiso   1.00
O784   O     0.02397   0.67595   0.88074   0.00000  Uiso   1.00
O785   O     0.31427   0.70928   0.83333   0.00000  Uiso   1.00
O786   O     0.31427   0.79071   0.83333   0.00000  Uiso   1.00
O787   O     0.18573   0.70928   0.83334   0.00000  Uiso   1.00
O788   O     0.25000   0.79071   0.76280   0.00000  Uiso   1.00
O789   O     0.25000   0.70929   0.90387   0.00000  Uiso   1.00
O790   O     0.25000   0.79071   0.90387   0.00000  Uiso   1.00
O791   O     0.25000   0.70929   0.76280   0.00000  Uiso   1.00
O792   O     0.02360   0.82729   0.79347   0.00000  Uiso   1.00
C793   C     0.66484   0.75014   0.83335   0.00000  Uiso   1.00
C794   C     0.78195   0.94594   0.80697   0.00000  Uiso   1.00
C795   C     0.75003   0.75001   0.74018   0.00000  Uiso   1.00
C796   C     0.74999   0.74999   0.92649   0.00000  Uiso   1.00
C797   C     0.74996   0.52721   0.83333   0.00000  Uiso   1.00
C798   C     0.74997   0.97259   0.83333   0.00000  Uiso   1.00
C799   C     0.75003   0.75001   0.68851   0.00000  Uiso   1.00
C800   C     0.75002   0.74997   0.97816   0.00000  Uiso   1.00
C801   C     0.54640   0.78663   0.80900   0.00000  Uiso   1.00
C802   C     0.95254   0.71641   0.80156   0.00000  Uiso   1.00
C803   C     0.95304   0.77922   0.86467   0.00000  Uiso   1.00
C804   C     0.83506   0.74992   0.83307   0.00000  Uiso   1.00
C805   C     0.54723   0.71121   0.85560   0.00000  Uiso   1.00
C806   C     0.59260   0.78677   0.80809   0.00000  Uiso   1.00
C807   C     0.90639   0.71727   0.80153   0.00000  Uiso   1.00
C808   C     0.90686   0.78080   0.86412   0.00000  Uiso   1.00
C809   C     0.59323   0.71418   0.85955   0.00000  Uiso   1.00
C810   C     0.61637   0.75032   0.83337   0.00000  Uiso   1.00
C811   C     0.88336   0.74957   0.83269   0.00000  Uiso   1.00
C812   C     0.52400   0.74821   0.83176   0.00000  Uiso   1.00
C813   C     0.97571   0.74784   0.83271   0.00000  Uiso   1.00
C814   C     0.50898   0.82093   0.74479   0.00000  Uiso   1.00
C815   C     0.76511   0.60449   0.79332   0.00000  Uiso   1.00
C816   C     0.98775   0.69917   0.72899   0.00000  Uiso   1.00
C817   C     0.98493   0.78756   0.93977   0.00000  Uiso   1.00
C818   C     0.52770   0.63123   0.85596   0.00000  Uiso   1.00
C819   C     0.71871   0.89537   0.85935   0.00000  Uiso   1.00
C820   C     0.73488   0.60456   0.87335   0.00000  Uiso   1.00
C821   C     0.78127   0.89519   0.80731   0.00000  Uiso   1.00
C822   C     0.76526   0.55374   0.79250   0.00000  Uiso   1.00
C823   C     0.71800   0.94613   0.85969   0.00000  Uiso   1.00
C824   C     0.73469   0.55380   0.87415   0.00000  Uiso   1.00
Cu825  Cu    0.75000   0.79821   0.83333   0.00000  Uiso   1.00
Cu826  Cu    0.75000   0.70178   0.83333   0.00000  Uiso   1.00
H827   H     0.77709   0.62381   0.76150   0.00000  Uiso   1.00
H828   H     0.53424   0.80361   0.72064   0.00000  Uiso   1.00
H829   H     0.50178   0.85696   0.72892   0.00000  Uiso   1.00
H830   H     0.51905   0.71942   0.73245   0.00000  Uiso   1.00
H831   H     0.96185   0.72169   0.71111   0.00000  Uiso   1.00
H832   H     0.99441   0.66822   0.70421   0.00000  Uiso   1.00
H833   H     0.95445   0.77315   0.95734   0.00000  Uiso   1.00
H834   H     0.99915   0.81448   0.96525   0.00000  Uiso   1.00
H835   H     0.50960   0.75820   0.93531   0.00000  Uiso   1.00
H836   H     0.99427   0.61539   0.85265   0.00000  Uiso   1.00
H837   H     0.54786   0.60599   0.87825   0.00000  Uiso   1.00
H838   H     0.69396   0.87574   0.87989   0.00000  Uiso   1.00
H839   H     0.54216   0.63329   0.81820   0.00000  Uiso   1.00
H840   H     0.72292   0.62393   0.90517   0.00000  Uiso   1.00
H841   H     0.80603   0.87541   0.78676   0.00000  Uiso   1.00
H842   H     0.77674   0.53559   0.75964   0.00000  Uiso   1.00
H843   H     0.69208   0.96435   0.87999   0.00000  Uiso   1.00
H844   H     0.72319   0.53569   0.90701   0.00000  Uiso   1.00
H845   H     0.80785   0.96400   0.78666   0.00000  Uiso   1.00
H846   H     0.97770   0.80035   0.74436   0.00000  Uiso   1.00
I847   I     0.62358   0.84318   0.76662   0.00000  Uiso   1.00
I848   I     0.87368   0.67088   0.75056   0.00000  Uiso   1.00
I849   I     0.87466   0.82952   0.91387   0.00000  Uiso   1.00
I850   I     0.62482   0.66880   0.91267   0.00000  Uiso   1.00
N851   N     0.75000   0.62934   0.83333   0.00000  Uiso   1.00
N852   N     0.75000   0.87065   0.83333   0.00000  Uiso   1.00
O853   O     0.68573   0.79071   0.83334   0.00000  Uiso   1.00
O854   O     0.97457   0.68096   0.77515   0.00000  Uiso   1.00
O855   O     0.97617   0.81059   0.89452   0.00000  Uiso   1.00
O856   O     0.52397   0.67595   0.88074   0.00000  Uiso   1.00
O857   O     0.81427   0.70928   0.83333   0.00000  Uiso   1.00
O858   O     0.81427   0.79071   0.83333   0.00000  Uiso   1.00
O859   O     0.68573   0.70928   0.83334   0.00000  Uiso   1.00
O860   O     0.75000   0.79071   0.76280   0.00000  Uiso   1.00
O861   O     0.75000   0.70929   0.90387   0.00000  Uiso   1.00
O862   O     0.75000   0.79071   0.90387   0.00000  Uiso   1.00
O863   O     0.75000   0.70929   0.76280   0.00000  Uiso   1.00
O864   O     0.52360   0.82729   0.79347   0.00000  Uiso   1.00
loop_
_geom_bond_atom_site_label_1
_geom_bond_atom_site_label_2
_geom_bond_distance
_geom_bond_site_symmetry_2
_ccdc_geom_bond_type
C1     C18     1.468   .     S
C1     O67     1.295   .     A
C1     O61     1.292   .     A
C2     C29     1.407   .     A
C2     C6      1.410   .     A
C2     H53     1.082   .     S
C3     O71     1.285   .     A
C3     O68     1.286   .     A
C3     C7      1.406   .     S
C4     C8      1.406   .     S
C4     O70     1.285   .     A
C4     O69     1.285   .     A
C5     C32     1.409   .     A
C5     C30     1.409   .     A
C5     C150    1.514   1_545 S
C6     C31     1.410   .     A
C6     C149    1.514   .     S
C7     C584    1.189   1_554 S
C8     C295    1.189   .     S
C9     C14     1.400   .     A
C9     C20     1.407   .     A
C9     O72     1.386   .     S
C10    O62     1.386   .     S
C10    C21     1.407   .     A
C10    C15     1.398   .     A
C11    C16     1.400   .     A
C11    O63     1.385   .     S
C11    C21     1.406   .     A
C12    C19     1.463   .     S
C12    O65     1.293   .     A
C12    O66     1.293   .     A
C13    C20     1.402   .     A
C13    C17     1.401   .     A
C13    O64     1.386   .     S
C14    C18     1.418   .     A
C14    I55     2.144   .     S
C15    I56     2.141   .     S
C15    C19     1.414   .     A
C16    I57     2.143   .     S
C16    C19     1.414   .     A
C17    I58     2.142   .     S
C17    C18     1.415   .     A
C20    C93     1.463   1_455 S
C21    C92     1.463   .     S
C22    H36     1.114   .     S
C22    O72     1.410   .     S
C22    H37     1.109   .     S
C22    H126    1.108   1_455 S
C23    N59     1.365   .     A
C23    H35     1.080   .     S
C23    C30     1.407   .     A
C24    H39     1.114   .     S
C24    O62     1.410   .     S
C24    H40     1.109   .     S
C24    H110    1.108   .     S
C25    H42     1.109   .     S
C25    O63     1.412   .     S
C25    H41     1.113   .     S
C25    H115    1.109   .     S
C26    H47     1.117   .     S
C26    O64     1.415   .     S
C26    H45     1.109   .     S
C26    H116    1.109   1_455 S
C27    N60     1.364   .     A
C27    C31     1.407   .     A
C27    H46     1.082   .     S
C28    C32     1.407   .     A
C28    N59     1.365   .     A
C28    H48     1.080   .     S
C29    N60     1.364   .     A
C29    H49     1.082   .     S
C30    H50     1.082   .     S
C31    H51     1.082   .     S
C32    H52     1.082   .     S
Cu33   O61     1.959   .     S
Cu33   O70     1.930   .     S
Cu33   O66     1.957   .     S
Cu33   Cu34    2.673   .     S
Cu33   N60     2.008   .     S
Cu33   O68     1.931   .     S
Cu34   O67     1.957   .     S
Cu34   O69     1.931   .     S
Cu34   N59     2.008   .     S
Cu34   O65     1.959   .     S
Cu34   O71     1.930   .     S
H38    C96     1.108   1_455 S
H43    C97     1.109   1_455 S
H44    C98     1.109   .     S
H54    C94     1.108   .     S
C73    C90     1.468   .     S
C73    O139    1.295   .     A
C73    O133    1.292   .     A
C74    C101    1.407   .     A
C74    C78     1.410   .     A
C74    H125    1.082   .     S
C75    O143    1.285   .     A
C75    O140    1.286   .     A
C75    C79     1.406   .     S
C76    C80     1.406   .     S
C76    O142    1.285   .     A
C76    O141    1.285   .     A
C77    C104    1.409   .     A
C77    C102    1.409   .     A
C77    C222    1.514   1_545 S
C78    C103    1.410   .     A
C78    C221    1.514   .     S
C79    C656    1.189   1_554 S
C80    C367    1.189   .     S
C81    C86     1.400   .     A
C81    C92     1.407   .     A
C81    O144    1.386   .     S
C82    O134    1.386   .     S
C82    C93     1.407   .     A
C82    C87     1.398   .     A
C83    C88     1.400   .     A
C83    O135    1.385   .     S
C83    C93     1.406   .     A
C84    C91     1.463   .     S
C84    O137    1.293   .     A
C84    O138    1.293   .     A
C85    C92     1.402   .     A
C85    C89     1.401   .     A
C85    O136    1.386   .     S
C86    C90     1.418   .     A
C86    I127    2.144   .     S
C87    I128    2.141   .     S
C87    C91     1.414   .     A
C88    I129    2.143   .     S
C88    C91     1.414   .     A
C89    I130    2.142   .     S
C89    C90     1.415   .     A
C93    C20     1.463   1_655 S
C94    H108    1.114   .     S
C94    O144    1.410   .     S
C94    H109    1.109   .     S
C95    N131    1.365   .     A
C95    H107    1.080   .     S
C95    C102    1.407   .     A
C96    H111    1.114   .     S
C96    O134    1.410   .     S
C96    H112    1.109   .     S
C96    H38     1.108   1_655 S
C97    H114    1.109   .     S
C97    O135    1.412   .     S
C97    H113    1.113   .     S
C97    H43     1.109   1_655 S
C98    H119    1.117   .     S
C98    O136    1.415   .     S
C98    H117    1.109   .     S
C99    N132    1.364   .     A
C99    C103    1.407   .     A
C99    H118    1.082   .     S
C100   C104    1.407   .     A
C100   N131    1.365   .     A
C100   H120    1.080   .     S
C101   N132    1.364   .     A
C101   H121    1.082   .     S
C102   H122    1.082   .     S
C103   H123    1.082   .     S
C104   H124    1.082   .     S
Cu105  O133    1.959   .     S
Cu105  O142    1.930   .     S
Cu105  O138    1.957   .     S
Cu105  Cu106   2.673   .     S
Cu105  N132    2.008   .     S
Cu105  O140    1.931   .     S
Cu106  O139    1.957   .     S
Cu106  O141    1.931   .     S
Cu106  N131    2.008   .     S
Cu106  O137    1.959   .     S
Cu106  O143    1.930   .     S
H116   C26     1.109   1_655 S
H126   C22     1.108   1_655 S
C145   C162    1.468   .     S
C145   O211    1.295   .     A
C145   O205    1.292   .     A
C146   C173    1.407   .     A
C146   C150    1.410   .     A
C146   H197    1.082   .     S
C147   O215    1.285   .     A
C147   O212    1.286   .     A
C147   C151    1.406   .     S
C148   C152    1.406   .     S
C148   O214    1.285   .     A
C148   O213    1.285   .     A
C149   C176    1.409   .     A
C149   C174    1.409   .     A
C150   C175    1.410   .     A
C150   C5      1.514   1_565 S
C151   C728    1.189   1_554 S
C152   C439    1.189   .     S
C153   C158    1.400   .     A
C153   C164    1.407   .     A
C153   O216    1.386   .     S
C154   O206    1.386   .     S
C154   C165    1.407   .     A
C154   C159    1.398   .     A
C155   C160    1.400   .     A
C155   O207    1.385   .     S
C155   C165    1.406   .     A
C156   C163    1.463   .     S
C156   O209    1.293   .     A
C156   O210    1.293   .     A
C157   C164    1.402   .     A
C157   C161    1.401   .     A
C157   O208    1.386   .     S
C158   C162    1.418   .     A
C158   I199    2.144   .     S
C159   I200    2.141   .     S
C159   C163    1.414   .     A
C160   I201    2.143   .     S
C160   C163    1.414   .     A
C161   I202    2.142   .     S
C161   C162    1.415   .     A
C164   C237    1.463   1_455 S
C165   C236    1.463   .     S
C166   H180    1.114   .     S
C166   O216    1.410   .     S
C166   H181    1.109   .     S
C166   H270    1.108   1_455 S
C167   N203    1.365   .     A
C167   H179    1.080   .     S
C167   C174    1.407   .     A
C168   H183    1.114   .     S
C168   O206    1.410   .     S
C168   H184    1.109   .     S
C168   H254    1.108   .     S
C169   H186    1.109   .     S
C169   O207    1.412   .     S
C169   H185    1.113   .     S
C169   H259    1.109   .     S
C170   H191    1.117   .     S
C170   O208    1.415   .     S
C170   H189    1.109   .     S
C170   H260    1.109   1_455 S
C171   N204    1.364   .     A
C171   C175    1.407   .     A
C171   H190    1.082   .     S
C172   C176    1.407   .     A
C172   N203    1.365   .     A
C172   H192    1.080   .     S
C173   N204    1.364   .     A
C173   H193    1.082   .     S
C174   H194    1.082   .     S
C175   H195    1.082   .     S
C176   H196    1.082   .     S
Cu177  O205    1.959   .     S
Cu177  O214    1.930   .     S
Cu177  O210    1.957   .     S
Cu177  Cu178   2.673   .     S
Cu177  N204    2.008   .     S
Cu177  O212    1.931   .     S
Cu178  O211    1.957   .     S
Cu178  O213    1.931   .     S
Cu178  N203    2.008   .     S
Cu178  O209    1.959   .     S
Cu178  O215    1.930   .     S
H182   C240    1.108   1_455 S
H187   C241    1.109   1_455 S
H188   C242    1.109   .     S
H198   C238    1.108   .     S
C217   C234    1.468   .     S
C217   O283    1.295   .     A
C217   O277    1.292   .     A
C218   C245    1.407   .     A
C218   C222    1.410   .     A
C218   H269    1.082   .     S
C219   O287    1.285   .     A
C219   O284    1.286   .     A
C219   C223    1.406   .     S
C220   C224    1.406   .     S
C220   O286    1.285   .     A
C220   O285    1.285   .     A
C221   C248    1.409   .     A
C221   C246    1.409   .     A
C222   C247    1.410   .     A
C222   C77     1.514   1_565 S
C223   C800    1.189   1_554 S
C224   C511    1.189   .     S
C225   C230    1.400   .     A
C225   C236    1.407   .     A
C225   O288    1.386   .     S
C226   O278    1.386   .     S
C226   C237    1.407   .     A
C226   C231    1.398   .     A
C227   C232    1.400   .     A
C227   O279    1.385   .     S
C227   C237    1.406   .     A
C228   C235    1.463   .     S
C228   O281    1.293   .     A
C228   O282    1.293   .     A
C229   C236    1.402   .     A
C229   C233    1.401   .     A
C229   O280    1.386   .     S
C230   C234    1.418   .     A
C230   I271    2.144   .     S
C231   I272    2.141   .     S
C231   C235    1.414   .     A
C232   I273    2.143   .     S
C232   C235    1.414   .     A
C233   I274    2.142   .     S
C233   C234    1.415   .     A
C237   C164    1.463   1_655 S
C238   H252    1.114   .     S
C238   O288    1.410   .     S
C238   H253    1.109   .     S
C239   N275    1.365   .     A
C239   H251    1.080   .     S
C239   C246    1.407   .     A
C240   H255    1.114   .     S
C240   O278    1.410   .     S
C240   H256    1.109   .     S
C240   H182    1.108   1_655 S
C241   H258    1.109   .     S
C241   O279    1.412   .     S
C241   H257    1.113   .     S
C241   H187    1.109   1_655 S
C242   H263    1.117   .     S
C242   O280    1.415   .     S
C242   H261    1.109   .     S
C243   N276    1.364   .     A
C243   C247    1.407   .     A
C243   H262    1.082   .     S
C244   C248    1.407   .     A
C244   N275    1.365   .     A
C244   H264    1.080   .     S
C245   N276    1.364   .     A
C245   H265    1.082   .     S
C246   H266    1.082   .     S
C247   H267    1.082   .     S
C248   H268    1.082   .     S
Cu249  O277    1.959   .     S
Cu249  O286    1.930   .     S
Cu249  O282    1.957   .     S
Cu249  Cu250   2.673   .     S
Cu249  N276    2.008   .     S
Cu249  O284    1.931   .     S
Cu250  O283    1.957   .     S
Cu250  O285    1.931   .     S
Cu250  N275    2.008   .     S
Cu250  O281    1.959   .     S
Cu250  O287    1.930   .     S
H260   C170    1.109   1_655 S
H270   C166    1.108   1_655 S
C289   C306    1.468   .     S
C289   O355    1.295   .     A
C289   O349    1.292   .     A
C290   C317    1.407   .     A
C290   C294    1.410   .     A
C290   H341    1.082   .     S
C291   O359    1.285   .     A
C291   O356    1.286   .     A
C291   C295    1.406   .     S
C292   C296    1.406   .     S
C292   O358    1.285   .     A
C292   O357    1.285   .     A
C293   C320    1.409   .     A
C293   C318    1.409   .     A
C293   C438    1.514   1_545 S
C294   C319    1.410   .     A
C294   C437    1.514   .     S
C296   C583    1.189   .     S
C297   C302    1.400   .     A
C297   C308    1.407   .     A
C297   O360    1.386   .     S
C298   O350    1.386   .     S
C298   C309    1.407   .     A
C298   C303    1.398   .     A
C299   C304    1.400   .     A
C299   O351    1.385   .     S
C299   C309    1.406   .     A
C300   C307    1.463   .     S
C300   O353    1.293   .     A
C300   O354    1.293   .     A
C301   C308    1.402   .     A
C301   C305    1.401   .     A
C301   O352    1.386   .     S
C302   C306    1.418   .     A
C302   I343    2.144   .     S
C303   I344    2.141   .     S
C303   C307    1.414   .     A
C304   I345    2.143   .     S
C304   C307    1.414   .     A
C305   I346    2.142   .     S
C305   C306    1.415   .     A
C308   C381    1.463   1_455 S
C309   C380    1.463   .     S
C310   H324    1.114   .     S
C310   O360    1.410   .     S
C310   H325    1.109   .     S
C310   H414    1.108   1_455 S
C311   N347    1.365   .     A
C311   H323    1.080   .     S
C311   C318    1.407   .     A
C312   H327    1.114   .     S
C312   O350    1.410   .     S
C312   H328    1.109   .     S
C312   H398    1.108   .     S
C313   H330    1.109   .     S
C313   O351    1.412   .     S
C313   H329    1.113   .     S
C313   H403    1.109   .     S
C314   H335    1.117   .     S
C314   O352    1.415   .     S
C314   H333    1.109   .     S
C314   H404    1.109   1_455 S
C315   N348    1.364   .     A
C315   C319    1.407   .     A
C315   H334    1.082   .     S
C316   C320    1.407   .     A
C316   N347    1.365   .     A
C316   H336    1.080   .     S
C317   N348    1.364   .     A
C317   H337    1.082   .     S
C318   H338    1.082   .     S
C319   H339    1.082   .     S
C320   H340    1.082   .     S
Cu321  O349    1.959   .     S
Cu321  O358    1.930   .     S
Cu321  O354    1.957   .     S
Cu321  Cu322   2.673   .     S
Cu321  N348    2.008   .     S
Cu321  O356    1.931   .     S
Cu322  O355    1.957   .     S
Cu322  O357    1.931   .     S
Cu322  N347    2.008   .     S
Cu322  O353    1.959   .     S
Cu322  O359    1.930   .     S
H326   C384    1.108   1_455 S
H331   C385    1.109   1_455 S
H332   C386    1.109   .     S
H342   C382    1.108   .     S
C361   C378    1.468   .     S
C361   O427    1.295   .     A
C361   O421    1.292   .     A
C362   C389    1.407   .     A
C362   C366    1.410   .     A
C362   H413    1.082   .     S
C363   O431    1.285   .     A
C363   O428    1.286   .     A
C363   C367    1.406   .     S
C364   C368    1.406   .     S
C364   O430    1.285   .     A
C364   O429    1.285   .     A
C365   C392    1.409   .     A
C365   C390    1.409   .     A
C365   C510    1.514   1_545 S
C366   C391    1.410   .     A
C366   C509    1.514   .     S
C368   C655    1.189   .     S
C369   C374    1.400   .     A
C369   C380    1.407   .     A
C369   O432    1.386   .     S
C370   O422    1.386   .     S
C370   C381    1.407   .     A
C370   C375    1.398   .     A
C371   C376    1.400   .     A
C371   O423    1.385   .     S
C371   C381    1.406   .     A
C372   C379    1.463   .     S
C372   O425    1.293   .     A
C372   O426    1.293   .     A
C373   C380    1.402   .     A
C373   C377    1.401   .     A
C373   O424    1.386   .     S
C374   C378    1.418   .     A
C374   I415    2.144   .     S
C375   I416    2.141   .     S
C375   C379    1.414   .     A
C376   I417    2.143   .     S
C376   C379    1.414   .     A
C377   I418    2.142   .     S
C377   C378    1.415   .     A
C381   C308    1.463   1_655 S
C382   H396    1.114   .     S
C382   O432    1.410   .     S
C382   H397    1.109   .     S
C383   N419    1.365   .     A
C383   H395    1.080   .     S
C383   C390    1.407   .     A
C384   H399    1.114   .     S
C384   O422    1.410   .     S
C384   H400    1.109   .     S
C384   H326    1.108   1_655 S
C385   H402    1.109   .     S
C385   O423    1.412   .     S
C385   H401    1.113   .     S
C385   H331    1.109   1_655 S
C386   H407    1.117   .     S
C386   O424    1.415   .     S
C386   H405    1.109   .     S
C387   N420    1.364   .     A
C387   C391    1.407   .     A
C387   H406    1.082   .     S
C388   C392    1.407   .     A
C388   N419    1.365   .     A
C388   H408    1.080   .     S
C389   N420    1.364   .     A
C389   H409    1.082   .     S
C390   H410    1.082   .     S
C391   H411    1.082   .     S
C392   H412    1.082   .     S
Cu393  O421    1.959   .     S
Cu393  O430    1.930   .     S
Cu393  O426    1.957   .     S
Cu393  Cu394   2.673   .     S
Cu393  N420    2.008   .     S
Cu393  O428    1.931   .     S
Cu394  O427    1.957   .     S
Cu394  O429    1.931   .     S
Cu394  N419    2.008   .     S
Cu394  O425    1.959   .     S
Cu394  O431    1.930   .     S
H404   C314    1.109   1_655 S
H414   C310    1.108   1_655 S
C433   C450    1.468   .     S
C433   O499    1.295   .     A
C433   O493    1.292   .     A
C434   C461    1.407   .     A
C434   C438    1.410   .     A
C434   H485    1.082   .     S
C435   O503    1.285   .     A
C435   O500    1.286   .     A
C435   C439    1.406   .     S
C436   C440    1.406   .     S
C436   O502    1.285   .     A
C436   O501    1.285   .     A
C437   C464    1.409   .     A
C437   C462    1.409   .     A
C438   C463    1.410   .     A
C438   C293    1.514   1_565 S
C440   C727    1.189   .     S
C441   C446    1.400   .     A
C441   C452    1.407   .     A
C441   O504    1.386   .     S
C442   O494    1.386   .     S
C442   C453    1.407   .     A
C442   C447    1.398   .     A
C443   C448    1.400   .     A
C443   O495    1.385   .     S
C443   C453    1.406   .     A
C444   C451    1.463   .     S
C444   O497    1.293   .     A
C444   O498    1.293   .     A
C445   C452    1.402   .     A
C445   C449    1.401   .     A
C445   O496    1.386   .     S
C446   C450    1.418   .     A
C446   I487    2.144   .     S
C447   I488    2.141   .     S
C447   C451    1.414   .     A
C448   I489    2.143   .     S
C448   C451    1.414   .     A
C449   I490    2.142   .     S
C449   C450    1.415   .     A
C452   C525    1.463   1_455 S
C453   C524    1.463   .     S
C454   H468    1.114   .     S
C454   O504    1.410   .     S
C454   H469    1.109   .     S
C454   H558    1.108   1_455 S
C455   N491    1.365   .     A
C455   H467    1.080   .     S
C455   C462    1.407   .     A
C456   H471    1.114   .     S
C456   O494    1.410   .     S
C456   H472    1.109   .     S
C456   H542    1.108   .     S
C457   H474    1.109   .     S
C457   O495    1.412   .     S
C457   H473    1.113   .     S
C457   H547    1.109   .     S
C458   H479    1.117   .     S
C458   O496    1.415   .     S
C458   H477    1.109   .     S
C458   H548    1.109   1_455 S
C459   N492    1.364   .     A
C459   C463    1.407   .     A
C459   H478    1.082   .     S
C460   C464    1.407   .     A
C460   N491    1.365   .     A
C460   H480    1.080   .     S
C461   N492    1.364   .     A
C461   H481    1.082   .     S
C462   H482    1.082   .     S
C463   H483    1.082   .     S
C464   H484    1.082   .     S
Cu465  O493    1.959   .     S
Cu465  O502    1.930   .     S
Cu465  O498    1.957   .     S
Cu465  Cu466   2.673   .     S
Cu465  N492    2.008   .     S
Cu465  O500    1.931   .     S
Cu466  O499    1.957   .     S
Cu466  O501    1.931   .     S
Cu466  N491    2.008   .     S
Cu466  O497    1.959   .     S
Cu466  O503    1.930   .     S
H470   C528    1.108   1_455 S
H475   C529    1.109   1_455 S
H476   C530    1.109   .     S
H486   C526    1.108   .     S
C505   C522    1.468   .     S
C505   O571    1.295   .     A
C505   O565    1.292   .     A
C506   C533    1.407   .     A
C506   C510    1.410   .     A
C506   H557    1.082   .     S
C507   O575    1.285   .     A
C507   O572    1.286   .     A
C507   C511    1.406   .     S
C508   C512    1.406   .     S
C508   O574    1.285   .     A
C508   O573    1.285   .     A
C509   C536    1.409   .     A
C509   C534    1.409   .     A
C510   C535    1.410   .     A
C510   C365    1.514   1_565 S
C512   C799    1.189   .     S
C513   C518    1.400   .     A
C513   C524    1.407   .     A
C513   O576    1.386   .     S
C514   O566    1.386   .     S
C514   C525    1.407   .     A
C514   C519    1.398   .     A
C515   C520    1.400   .     A
C515   O567    1.385   .     S
C515   C525    1.406   .     A
C516   C523    1.463   .     S
C516   O569    1.293   .     A
C516   O570    1.293   .     A
C517   C524    1.402   .     A
C517   C521    1.401   .     A
C517   O568    1.386   .     S
C518   C522    1.418   .     A
C518   I559    2.144   .     S
C519   I560    2.141   .     S
C519   C523    1.414   .     A
C520   I561    2.143   .     S
C520   C523    1.414   .     A
C521   I562    2.142   .     S
C521   C522    1.415   .     A
C525   C452    1.463   1_655 S
C526   H540    1.114   .     S
C526   O576    1.410   .     S
C526   H541    1.109   .     S
C527   N563    1.365   .     A
C527   H539    1.080   .     S
C527   C534    1.407   .     A
C528   H543    1.114   .     S
C528   O566    1.410   .     S
C528   H544    1.109   .     S
C528   H470    1.108   1_655 S
C529   H546    1.109   .     S
C529   O567    1.412   .     S
C529   H545    1.113   .     S
C529   H475    1.109   1_655 S
C530   H551    1.117   .     S
C530   O568    1.415   .     S
C530   H549    1.109   .     S
C531   N564    1.364   .     A
C531   C535    1.407   .     A
C531   H550    1.082   .     S
C532   C536    1.407   .     A
C532   N563    1.365   .     A
C532   H552    1.080   .     S
C533   N564    1.364   .     A
C533   H553    1.082   .     S
C534   H554    1.082   .     S
C535   H555    1.082   .     S
C536   H556    1.082   .     S
Cu537  O565    1.959   .     S
Cu537  O574    1.930   .     S
Cu537  O570    1.957   .     S
Cu537  Cu538   2.673   .     S
Cu537  N564    2.008   .     S
Cu537  O572    1.931   .     S
Cu538  O571    1.957   .     S
Cu538  O573    1.931   .     S
Cu538  N563    2.008   .     S
Cu538  O569    1.959   .     S
Cu538  O575    1.930   .     S
H548   C458    1.109   1_655 S
H558   C454    1.108   1_655 S
C577   C594    1.468   .     S
C577   O643    1.295   .     A
C577   O637    1.292   .     A
C578   C605    1.407   .     A
C578   C582    1.410   .     A
C578   H629    1.082   .     S
C579   O647    1.285   .     A
C579   O644    1.286   .     A
C579   C583    1.406   .     S
C580   C584    1.406   .     S
C580   O646    1.285   .     A
C580   O645    1.285   .     A
C581   C608    1.409   .     A
C581   C606    1.409   .     A
C581   C726    1.514   1_545 S
C582   C607    1.410   .     A
C582   C725    1.514   .     S
C584   C7      1.189   1_556 S
C585   C590    1.400   .     A
C585   C596    1.407   .     A
C585   O648    1.386   .     S
C586   O638    1.386   .     S
C586   C597    1.407   .     A
C586   C591    1.398   .     A
C587   C592    1.400   .     A
C587   O639    1.385   .     S
C587   C597    1.406   .     A
C588   C595    1.463   .     S
C588   O641    1.293   .     A
C588   O642    1.293   .     A
C589   C596    1.402   .     A
C589   C593    1.401   .     A
C589   O640    1.386   .     S
C590   C594    1.418   .     A
C590   I631    2.144   .     S
C591   I632    2.141   .     S
C591   C595    1.414   .     A
C592   I633    2.143   .     S
C592   C595    1.414   .     A
C593   I634    2.142   .     S
C593   C594    1.415   .     A
C596   C669    1.463   1_455 S
C597   C668    1.463   .     S
C598   H612    1.114   .     S
C598   O648    1.410   .     S
C598   H613    1.109   .     S
C598   H702    1.108   1_455 S
C599   N635    1.365   .     A
C599   H611    1.080   .     S
C599   C606    1.407   .     A
C600   H615    1.114   .     S
C600   O638    1.410   .     S
C600   H616    1.109   .     S
C600   H686    1.108   .     S
C601   H618    1.109   .     S
C601   O639    1.412   .     S
C601   H617    1.113   .     S
C601   H691    1.109   .     S
C602   H623    1.117   .     S
C602   O640    1.415   .     S
C602   H621    1.109   .     S
C602   H692    1.109   1_455 S
C603   N636    1.364   .     A
C603   C607    1.407   .     A
C603   H622    1.082   .     S
C604   C608    1.407   .     A
C604   N635    1.365   .     A
C604   H624    1.080   .     S
C605   N636    1.364   .     A
C605   H625    1.082   .     S
C606   H626    1.082   .     S
C607   H627    1.082   .     S
C608   H628    1.082   .     S
Cu609  O637    1.959   .     S
Cu609  O646    1.930   .     S
Cu609  O642    1.957   .     S
Cu609  Cu610   2.673   .     S
Cu609  N636    2.008   .     S
Cu609  O644    1.931   .     S
Cu610  O643    1.957   .     S
Cu610  O645    1.931   .     S
Cu610  N635    2.008   .     S
Cu610  O641    1.959   .     S
Cu610  O647    1.930   .     S
H614   C672    1.108   1_455 S
H619   C673    1.109   1_455 S
H620   C674    1.109   .     S
H630   C670    1.108   .     S
C649   C666    1.468   .     S
C649   O715    1.295   .     A
C649   O709    1.292   .     A
C650   C677    1.407   .     A
C650   C654    1.410   .     A
C650   H701    1.082   .     S
C651   O719    1.285   .     A
C651   O716    1.286   .     A
C651   C655    1.406   .     S
C652   C656    1.406   .     S
C652   O718    1.285   .     A
C652   O717    1.285   .     A
C653   C680    1.409   .     A
C653   C678    1.409   .     A
C653   C798    1.514   1_545 S
C654   C679    1.410   .     A
C654   C797    1.514   .     S
C656   C79     1.189   1_556 S
C657   C662    1.400   .     A
C657   C668    1.407   .     A
C657   O720    1.386   .     S
C658   O710    1.386   .     S
C658   C669    1.407   .     A
C658   C663    1.398   .     A
C659   C664    1.400   .     A
C659   O711    1.385   .     S
C659   C669    1.406   .     A
C660   C667    1.463   .     S
C660   O713    1.293   .     A
C660   O714    1.293   .     A
C661   C668    1.402   .     A
C661   C665    1.401   .     A
C661   O712    1.386   .     S
C662   C666    1.418   .     A
C662   I703    2.144   .     S
C663   I704    2.141   .     S
C663   C667    1.414   .     A
C664   I705    2.143   .     S
C664   C667    1.414   .     A
C665   I706    2.142   .     S
C665   C666    1.415   .     A
C669   C596    1.463   1_655 S
C670   H684    1.114   .     S
C670   O720    1.410   .     S
C670   H685    1.109   .     S
C671   N707    1.365   .     A
C671   H683    1.080   .     S
C671   C678    1.407   .     A
C672   H687    1.114   .     S
C672   O710    1.410   .     S
C672   H688    1.109   .     S
C672   H614    1.108   1_655 S
C673   H690    1.109   .     S
C673   O711    1.412   .     S
C673   H689    1.113   .     S
C673   H619    1.109   1_655 S
C674   H695    1.117   .     S
C674   O712    1.415   .     S
C674   H693    1.109   .     S
C675   N708    1.364   .     A
C675   C679    1.407   .     A
C675   H694    1.082   .     S
C676   C680    1.407   .     A
C676   N707    1.365   .     A
C676   H696    1.080   .     S
C677   N708    1.364   .     A
C677   H697    1.082   .     S
C678   H698    1.082   .     S
C679   H699    1.082   .     S
C680   H700    1.082   .     S
Cu681  O709    1.959   .     S
Cu681  O718    1.930   .     S
Cu681  O714    1.957   .     S
Cu681  Cu682   2.673   .     S
Cu681  N708    2.008   .     S
Cu681  O716    1.931   .     S
Cu682  O715    1.957   .     S
Cu682  O717    1.931   .     S
Cu682  N707    2.008   .     S
Cu682  O713    1.959   .     S
Cu682  O719    1.930   .     S
H692   C602    1.109   1_655 S
H702   C598    1.108   1_655 S
C721   C738    1.468   .     S
C721   O787    1.295   .     A
C721   O781    1.292   .     A
C722   C749    1.407   .     A
C722   C726    1.410   .     A
C722   H773    1.082   .     S
C723   O791    1.285   .     A
C723   O788    1.286   .     A
C723   C727    1.406   .     S
C724   C728    1.406   .     S
C724   O790    1.285   .     A
C724   O789    1.285   .     A
C725   C752    1.409   .     A
C725   C750    1.409   .     A
C726   C751    1.410   .     A
C726   C581    1.514   1_565 S
C728   C151    1.189   1_556 S
C729   C734    1.400   .     A
C729   C740    1.407   .     A
C729   O792    1.386   .     S
C730   O782    1.386   .     S
C730   C741    1.407   .     A
C730   C735    1.398   .     A
C731   C736    1.400   .     A
C731   O783    1.385   .     S
C731   C741    1.406   .     A
C732   C739    1.463   .     S
C732   O785    1.293   .     A
C732   O786    1.293   .     A
C733   C740    1.402   .     A
C733   C737    1.401   .     A
C733   O784    1.386   .     S
C734   C738    1.418   .     A
C734   I775    2.144   .     S
C735   I776    2.141   .     S
C735   C739    1.414   .     A
C736   I777    2.143   .     S
C736   C739    1.414   .     A
C737   I778    2.142   .     S
C737   C738    1.415   .     A
C740   C813    1.463   1_455 S
C741   C812    1.463   .     S
C742   H756    1.114   .     S
C742   O792    1.410   .     S
C742   H757    1.109   .     S
C742   H846    1.108   1_455 S
C743   N779    1.365   .     A
C743   H755    1.080   .     S
C743   C750    1.407   .     A
C744   H759    1.114   .     S
C744   O782    1.410   .     S
C744   H760    1.109   .     S
C744   H830    1.108   .     S
C745   H762    1.109   .     S
C745   O783    1.412   .     S
C745   H761    1.113   .     S
C745   H835    1.109   .     S
C746   H767    1.117   .     S
C746   O784    1.415   .     S
C746   H765    1.109   .     S
C746   H836    1.109   1_455 S
C747   N780    1.364   .     A
C747   C751    1.407   .     A
C747   H766    1.082   .     S
C748   C752    1.407   .     A
C748   N779    1.365   .     A
C748   H768    1.080   .     S
C749   N780    1.364   .     A
C749   H769    1.082   .     S
C750   H770    1.082   .     S
C751   H771    1.082   .     S
C752   H772    1.082   .     S
Cu753  O781    1.959   .     S
Cu753  O790    1.930   .     S
Cu753  O786    1.957   .     S
Cu753  Cu754   2.673   .     S
Cu753  N780    2.008   .     S
Cu753  O788    1.931   .     S
Cu754  O787    1.957   .     S
Cu754  O789    1.931   .     S
Cu754  N779    2.008   .     S
Cu754  O785    1.959   .     S
Cu754  O791    1.930   .     S
H758   C816    1.108   1_455 S
H763   C817    1.109   1_455 S
H764   C818    1.109   .     S
H774   C814    1.108   .     S
C793   C810    1.468   .     S
C793   O859    1.295   .     A
C793   O853    1.292   .     A
C794   C821    1.407   .     A
C794   C798    1.410   .     A
C794   H845    1.082   .     S
C795   O863    1.285   .     A
C795   O860    1.286   .     A
C795   C799    1.406   .     S
C796   C800    1.406   .     S
C796   O862    1.285   .     A
C796   O861    1.285   .     A
C797   C824    1.409   .     A
C797   C822    1.409   .     A
C798   C823    1.410   .     A
C798   C653    1.514   1_565 S
C800   C223    1.189   1_556 S
C801   C806    1.400   .     A
C801   C812    1.407   .     A
C801   O864    1.386   .     S
C802   O854    1.386   .     S
C802   C813    1.407   .     A
C802   C807    1.398   .     A
C803   C808    1.400   .     A
C803   O855    1.385   .     S
C803   C813    1.406   .     A
C804   C811    1.463   .     S
C804   O857    1.293   .     A
C804   O858    1.293   .     A
C805   C812    1.402   .     A
C805   C809    1.401   .     A
C805   O856    1.386   .     S
C806   C810    1.418   .     A
C806   I847    2.144   .     S
C807   I848    2.141   .     S
C807   C811    1.414   .     A
C808   I849    2.143   .     S
C808   C811    1.414   .     A
C809   I850    2.142   .     S
C809   C810    1.415   .     A
C813   C740    1.463   1_655 S
C814   H828    1.114   .     S
C814   O864    1.410   .     S
C814   H829    1.109   .     S
C815   N851    1.365   .     A
C815   H827    1.080   .     S
C815   C822    1.407   .     A
C816   H831    1.114   .     S
C816   O854    1.410   .     S
C816   H832    1.109   .     S
C816   H758    1.108   1_655 S
C817   H834    1.109   .     S
C817   O855    1.412   .     S
C817   H833    1.113   .     S
C817   H763    1.109   1_655 S
C818   H839    1.117   .     S
C818   O856    1.415   .     S
C818   H837    1.109   .     S
C819   N852    1.364   .     A
C819   C823    1.407   .     A
C819   H838    1.082   .     S
C820   C824    1.407   .     A
C820   N851    1.365   .     A
C820   H840    1.080   .     S
C821   N852    1.364   .     A
C821   H841    1.082   .     S
C822   H842    1.082   .     S
C823   H843    1.082   .     S
C824   H844    1.082   .     S
Cu825  O853    1.959   .     S
Cu825  O862    1.930   .     S
Cu825  O858    1.957   .     S
Cu825  Cu826   2.673   .     S
Cu825  N852    2.008   .     S
Cu825  O860    1.931   .     S
Cu826  O859    1.957   .     S
Cu826  O861    1.931   .     S
Cu826  N851    2.008   .     S
Cu826  O857    1.959   .     S
Cu826  O863    1.930   .     S
H836   C746    1.109   1_655 S
H846   C742    1.108   1_655 S
