data_str_m2_o1_o16_pcu_sym.248
_audit_creation_date              2020-01-03
_audit_creation_method            'Materials Studio'
_symmetry_space_group_name_H-M    'P1'
_symmetry_Int_Tables_number       1
_symmetry_cell_setting            triclinic
loop_
_symmetry_equiv_pos_as_xyz
  x,y,z
_cell_length_a                    28.8782
_cell_length_b                    32.4425
_cell_length_c                    27.1432
_cell_angle_alpha                 91.9835
_cell_angle_beta                  72.8582
_cell_angle_gamma                 89.8636
loop_
_atom_site_label
_atom_site_type_symbol
_atom_site_fract_x
_atom_site_fract_y
_atom_site_fract_z
_atom_site_U_iso_or_equiv
_atom_site_adp_type
_atom_site_occupancy
C1     C     0.16655   0.24581   0.24980   0.00000  Uiso   1.00
C2     C     0.14312   0.16900   0.49196   0.00000  Uiso   1.00
C3     C     0.15847   0.16472   0.43731   0.00000  Uiso   1.00
C4     C     0.17626   0.15623   0.01886   0.00000  Uiso   1.00
C5     C     0.21278   0.12667   0.49413   0.00000  Uiso   1.00
C6     C     0.22679   0.12270   0.44007   0.00000  Uiso   1.00
C7     C     0.20681   0.15098   0.41410   0.00000  Uiso   1.00
C8     C     0.17756   0.17444   0.06625   0.00000  Uiso   1.00
C9     C     0.23856   0.12367   0.07129   0.00000  Uiso   1.00
C10    C     0.12645   0.17452   0.40791   0.00000  Uiso   1.00
C11    C     0.18580   0.31225   0.28469   0.00000  Uiso   1.00
C12    C     0.14086   0.16853   0.35023   0.00000  Uiso   1.00
C13    C     0.18978   0.02207   0.28222   0.00000  Uiso   1.00
C14    C     0.16646   0.04301   0.25160   0.00000  Uiso   1.00
C15    C     0.14301   0.02141   0.22087   0.00000  Uiso   1.00
C16    C     0.14409   0.31212   0.21796   0.00000  Uiso   1.00
C17    C     0.16598   0.29057   0.25005   0.00000  Uiso   1.00
C18    C     0.30243   0.19944   0.27087   0.00000  Uiso   1.00
C19    C     0.01806   0.19880   0.27260   0.00000  Uiso   1.00
C20    C     0.03151   0.13480   0.22706   0.00000  Uiso   1.00
C21    C     0.31564   0.13476   0.22696   0.00000  Uiso   1.00
C22    C     0.16656   0.08758   0.25075   0.00000  Uiso   1.00
C23    C     0.19260   0.16484   0.15030   0.00000  Uiso   1.00
C24    C     0.24015   0.10729   0.02206   0.00000  Uiso   1.00
C25    C     0.20619   0.15642   0.09409   0.00000  Uiso   1.00
C26    C     0.07963   0.18995   0.43444   0.00000  Uiso   1.00
C27    C     0.06568   0.19730   0.48807   0.00000  Uiso   1.00
C28    C     0.09583   0.18454   0.01740   0.00000  Uiso   1.00
Cu29   Cu    0.11978   0.16666   0.25000   0.00000  Uiso   1.00
Cu30   Cu    0.21355   0.16667   0.25000   0.00000  Uiso   1.00
H31    H     0.12581   0.03776   0.19674   0.00000  Uiso   1.00
N32    N     0.04931   0.16666   0.24998   0.00000  Uiso   1.00
N33    N     0.28402   0.16669   0.25000   0.00000  Uiso   1.00
O34    O     0.12708   0.22678   0.25000   0.00000  Uiso   1.00
O35    O     0.20627   0.22679   0.25000   0.00000  Uiso   1.00
O36    O     0.10775   0.16665   0.32549   0.00000  Uiso   1.00
O37    O     0.18694   0.16666   0.32549   0.00000  Uiso   1.00
O38    O     0.12706   0.10654   0.25000   0.00000  Uiso   1.00
O39    O     0.20625   0.10655   0.25000   0.00000  Uiso   1.00
O40    O     0.14640   0.16667   0.17451   0.00000  Uiso   1.00
O41    O     0.22559   0.16668   0.17451   0.00000  Uiso   1.00
O42    O     0.26822   0.10699   0.09718   0.00000  Uiso   1.00
C43    C     0.31108   0.13049   0.08647   0.00000  Uiso   1.00
H44    H     0.00653   0.11173   0.09441   0.00000  Uiso   1.00
H45    H     0.30564   0.15889   0.11149   0.00000  Uiso   1.00
H46    H     0.32501   0.13925   0.04556   0.00000  Uiso   1.00
O47    O     0.21429   0.04417   0.31113   0.00000  Uiso   1.00
C48    C     0.26455   0.03567   0.29082   0.00000  Uiso   1.00
H49    H     0.28473   0.06209   0.30079   0.00000  Uiso   1.00
H50    H     0.27685   0.03156   0.24794   0.00000  Uiso   1.00
H51    H     0.27481   0.00798   0.30831   0.00000  Uiso   1.00
O52    O     0.12342   0.29330   0.18334   0.00000  Uiso   1.00
H53    H     0.13608   0.26486   0.17531   0.00000  Uiso   1.00
O54    O     0.27226   0.23249   0.29164   0.00000  Uiso   1.00
H55    H     0.29144   0.25650   0.29722   0.00000  Uiso   1.00
O56    O     0.03253   0.23082   0.29884   0.00000  Uiso   1.00
H57    H     0.05522   0.21938   0.31573   0.00000  Uiso   1.00
O58    O     0.06100   0.10104   0.20663   0.00000  Uiso   1.00
C59    C     0.07521   0.10076   0.15223   0.00000  Uiso   1.00
H60    H     0.07302   0.13146   0.13604   0.00000  Uiso   1.00
H61    H     0.05319   0.07813   0.13767   0.00000  Uiso   1.00
H62    H     0.11357   0.09026   0.13748   0.00000  Uiso   1.00
O63    O     0.30126   0.10183   0.20235   0.00000  Uiso   1.00
H64    H     0.27736   0.11242   0.18654   0.00000  Uiso   1.00
O65    O     0.26781   0.10009   0.41408   0.00000  Uiso   1.00
H66    H     0.27343   0.10254   0.37648   0.00000  Uiso   1.00
O67    O     0.25947   0.06816   0.00535   0.00000  Uiso   1.00
C68    C     0.31048   0.06751   0.49257   0.00000  Uiso   1.00
H69    H     0.32452   0.04285   0.46245   0.00000  Uiso   1.00
H70    H     0.32726   0.09668   0.47624   0.00000  Uiso   1.00
H71    H     0.32216   0.05922   0.02641   0.00000  Uiso   1.00
O72    O     0.15571   0.21259   0.08148   0.00000  Uiso   1.00
H73    H     0.17250   0.22696   0.10393   0.00000  Uiso   1.00
O74    O     0.04742   0.19976   0.40769   0.00000  Uiso   1.00
C75    C     0.01541   0.16657   0.41038   0.00000  Uiso   1.00
H76    H     0.32008   0.16753   0.44814   0.00000  Uiso   1.00
H77    H     0.03440   0.13600   0.40317   0.00000  Uiso   1.00
H78    H     0.33112   0.16949   0.37959   0.00000  Uiso   1.00
O79    O     0.07842   0.18395   0.07054   0.00000  Uiso   1.00
H80    H     0.04665   0.19832   0.08309   0.00000  Uiso   1.00
O81    O     0.02000   0.21357   0.01231   0.00000  Uiso   1.00
C82    C     0.02307   0.25693   0.01325   0.00000  Uiso   1.00
H83    H     0.03420   0.26882   0.47354   0.00000  Uiso   1.00
H84    H     0.04837   0.26783   0.03482   0.00000  Uiso   1.00
H85    H     0.32000   0.27008   0.03352   0.00000  Uiso   1.00
O86    O     0.23982   0.17553   0.38029   0.00000  Uiso   1.00
C87    C     0.24243   0.21435   0.40491   0.00000  Uiso   1.00
H88    H     0.24344   0.21164   0.44541   0.00000  Uiso   1.00
H89    H     0.21167   0.23460   0.40385   0.00000  Uiso   1.00
H90    H     0.27653   0.22956   0.38414   0.00000  Uiso   1.00
O91    O     0.19888   0.29078   0.32173   0.00000  Uiso   1.00
H92    H     0.20169   0.31028   0.34957   0.00000  Uiso   1.00
C93    C     0.49989   0.24581   0.24980   0.00000  Uiso   1.00
C94    C     0.47645   0.16900   0.49196   0.00000  Uiso   1.00
C95    C     0.49180   0.16472   0.43731   0.00000  Uiso   1.00
C96    C     0.50959   0.15623   0.01886   0.00000  Uiso   1.00
C97    C     0.54612   0.12667   0.49413   0.00000  Uiso   1.00
C98    C     0.56013   0.12270   0.44007   0.00000  Uiso   1.00
C99    C     0.54014   0.15098   0.41410   0.00000  Uiso   1.00
C100   C     0.51089   0.17444   0.06625   0.00000  Uiso   1.00
C101   C     0.57189   0.12367   0.07129   0.00000  Uiso   1.00
C102   C     0.45978   0.17452   0.40791   0.00000  Uiso   1.00
C103   C     0.51914   0.31225   0.28469   0.00000  Uiso   1.00
C104   C     0.47420   0.16853   0.35023   0.00000  Uiso   1.00
C105   C     0.52311   0.02207   0.28222   0.00000  Uiso   1.00
C106   C     0.49979   0.04301   0.25160   0.00000  Uiso   1.00
C107   C     0.47634   0.02141   0.22087   0.00000  Uiso   1.00
C108   C     0.47742   0.31212   0.21796   0.00000  Uiso   1.00
C109   C     0.49931   0.29057   0.25005   0.00000  Uiso   1.00
C110   C     0.63577   0.19944   0.27087   0.00000  Uiso   1.00
C111   C     0.35139   0.19880   0.27260   0.00000  Uiso   1.00
C112   C     0.36484   0.13480   0.22706   0.00000  Uiso   1.00
C113   C     0.64898   0.13476   0.22696   0.00000  Uiso   1.00
C114   C     0.49989   0.08758   0.25075   0.00000  Uiso   1.00
C115   C     0.52593   0.16484   0.15030   0.00000  Uiso   1.00
C116   C     0.57348   0.10729   0.02206   0.00000  Uiso   1.00
C117   C     0.53953   0.15642   0.09409   0.00000  Uiso   1.00
C118   C     0.41297   0.18995   0.43444   0.00000  Uiso   1.00
C119   C     0.39901   0.19730   0.48807   0.00000  Uiso   1.00
C120   C     0.42916   0.18454   0.01740   0.00000  Uiso   1.00
Cu121  Cu    0.45311   0.16666   0.25000   0.00000  Uiso   1.00
Cu122  Cu    0.54689   0.16667   0.25000   0.00000  Uiso   1.00
H123   H     0.45915   0.03776   0.19674   0.00000  Uiso   1.00
N124   N     0.38265   0.16666   0.24998   0.00000  Uiso   1.00
N125   N     0.61735   0.16669   0.25000   0.00000  Uiso   1.00
O126   O     0.46042   0.22678   0.25000   0.00000  Uiso   1.00
O127   O     0.53961   0.22679   0.25000   0.00000  Uiso   1.00
O128   O     0.44108   0.16665   0.32549   0.00000  Uiso   1.00
O129   O     0.52027   0.16666   0.32549   0.00000  Uiso   1.00
O130   O     0.46039   0.10654   0.25000   0.00000  Uiso   1.00
O131   O     0.53958   0.10655   0.25000   0.00000  Uiso   1.00
O132   O     0.47973   0.16667   0.17451   0.00000  Uiso   1.00
O133   O     0.55892   0.16668   0.17451   0.00000  Uiso   1.00
O134   O     0.60155   0.10699   0.09718   0.00000  Uiso   1.00
C135   C     0.64442   0.13049   0.08647   0.00000  Uiso   1.00
H136   H     0.33986   0.11173   0.09441   0.00000  Uiso   1.00
H137   H     0.63897   0.15889   0.11149   0.00000  Uiso   1.00
H138   H     0.65834   0.13925   0.04556   0.00000  Uiso   1.00
O139   O     0.54762   0.04417   0.31113   0.00000  Uiso   1.00
C140   C     0.59789   0.03567   0.29082   0.00000  Uiso   1.00
H141   H     0.61806   0.06209   0.30079   0.00000  Uiso   1.00
H142   H     0.61019   0.03156   0.24794   0.00000  Uiso   1.00
H143   H     0.60815   0.00798   0.30831   0.00000  Uiso   1.00
O144   O     0.45675   0.29330   0.18334   0.00000  Uiso   1.00
H145   H     0.46941   0.26486   0.17531   0.00000  Uiso   1.00
O146   O     0.60560   0.23249   0.29164   0.00000  Uiso   1.00
H147   H     0.62477   0.25650   0.29722   0.00000  Uiso   1.00
O148   O     0.36586   0.23082   0.29884   0.00000  Uiso   1.00
H149   H     0.38855   0.21938   0.31573   0.00000  Uiso   1.00
O150   O     0.39433   0.10104   0.20663   0.00000  Uiso   1.00
C151   C     0.40854   0.10076   0.15223   0.00000  Uiso   1.00
H152   H     0.40635   0.13146   0.13604   0.00000  Uiso   1.00
H153   H     0.38653   0.07813   0.13767   0.00000  Uiso   1.00
H154   H     0.44690   0.09026   0.13748   0.00000  Uiso   1.00
O155   O     0.63459   0.10183   0.20235   0.00000  Uiso   1.00
H156   H     0.61069   0.11242   0.18654   0.00000  Uiso   1.00
O157   O     0.60115   0.10009   0.41408   0.00000  Uiso   1.00
H158   H     0.60676   0.10254   0.37648   0.00000  Uiso   1.00
O159   O     0.59280   0.06816   0.00535   0.00000  Uiso   1.00
C160   C     0.64381   0.06751   0.49257   0.00000  Uiso   1.00
H161   H     0.65785   0.04285   0.46245   0.00000  Uiso   1.00
H162   H     0.66059   0.09668   0.47624   0.00000  Uiso   1.00
H163   H     0.65549   0.05922   0.02641   0.00000  Uiso   1.00
O164   O     0.48904   0.21259   0.08148   0.00000  Uiso   1.00
H165   H     0.50584   0.22696   0.10393   0.00000  Uiso   1.00
O166   O     0.38076   0.19976   0.40769   0.00000  Uiso   1.00
C167   C     0.34874   0.16657   0.41038   0.00000  Uiso   1.00
H168   H     0.65341   0.16753   0.44814   0.00000  Uiso   1.00
H169   H     0.36773   0.13600   0.40317   0.00000  Uiso   1.00
H170   H     0.66445   0.16949   0.37959   0.00000  Uiso   1.00
O171   O     0.41175   0.18395   0.07054   0.00000  Uiso   1.00
H172   H     0.37998   0.19832   0.08309   0.00000  Uiso   1.00
O173   O     0.35333   0.21357   0.01231   0.00000  Uiso   1.00
C174   C     0.35641   0.25693   0.01325   0.00000  Uiso   1.00
H175   H     0.36753   0.26882   0.47354   0.00000  Uiso   1.00
H176   H     0.38170   0.26783   0.03482   0.00000  Uiso   1.00
H177   H     0.65334   0.27008   0.03352   0.00000  Uiso   1.00
O178   O     0.57315   0.17553   0.38029   0.00000  Uiso   1.00
C179   C     0.57576   0.21435   0.40491   0.00000  Uiso   1.00
H180   H     0.57677   0.21164   0.44541   0.00000  Uiso   1.00
H181   H     0.54500   0.23460   0.40385   0.00000  Uiso   1.00
H182   H     0.60987   0.22956   0.38414   0.00000  Uiso   1.00
O183   O     0.53221   0.29078   0.32173   0.00000  Uiso   1.00
H184   H     0.53502   0.31028   0.34957   0.00000  Uiso   1.00
C185   C     0.83322   0.24581   0.24980   0.00000  Uiso   1.00
C186   C     0.80979   0.16900   0.49196   0.00000  Uiso   1.00
C187   C     0.82514   0.16472   0.43731   0.00000  Uiso   1.00
C188   C     0.84293   0.15623   0.01886   0.00000  Uiso   1.00
C189   C     0.87945   0.12667   0.49413   0.00000  Uiso   1.00
C190   C     0.89346   0.12270   0.44007   0.00000  Uiso   1.00
C191   C     0.87348   0.15098   0.41410   0.00000  Uiso   1.00
C192   C     0.84422   0.17444   0.06625   0.00000  Uiso   1.00
C193   C     0.90522   0.12367   0.07129   0.00000  Uiso   1.00
C194   C     0.79311   0.17452   0.40791   0.00000  Uiso   1.00
C195   C     0.85247   0.31225   0.28469   0.00000  Uiso   1.00
C196   C     0.80753   0.16853   0.35023   0.00000  Uiso   1.00
C197   C     0.85645   0.02207   0.28222   0.00000  Uiso   1.00
C198   C     0.83313   0.04301   0.25160   0.00000  Uiso   1.00
C199   C     0.80968   0.02141   0.22087   0.00000  Uiso   1.00
C200   C     0.81075   0.31212   0.21796   0.00000  Uiso   1.00
C201   C     0.83264   0.29057   0.25005   0.00000  Uiso   1.00
C202   C     0.96910   0.19944   0.27087   0.00000  Uiso   1.00
C203   C     0.68472   0.19880   0.27260   0.00000  Uiso   1.00
C204   C     0.69817   0.13480   0.22706   0.00000  Uiso   1.00
C205   C     0.98231   0.13476   0.22696   0.00000  Uiso   1.00
C206   C     0.83322   0.08758   0.25075   0.00000  Uiso   1.00
C207   C     0.85927   0.16484   0.15030   0.00000  Uiso   1.00
C208   C     0.90681   0.10729   0.02206   0.00000  Uiso   1.00
C209   C     0.87286   0.15642   0.09409   0.00000  Uiso   1.00
C210   C     0.74630   0.18995   0.43444   0.00000  Uiso   1.00
C211   C     0.73235   0.19730   0.48807   0.00000  Uiso   1.00
C212   C     0.76250   0.18454   0.01740   0.00000  Uiso   1.00
Cu213  Cu    0.78645   0.16666   0.25000   0.00000  Uiso   1.00
Cu214  Cu    0.88022   0.16667   0.25000   0.00000  Uiso   1.00
H215   H     0.79248   0.03776   0.19674   0.00000  Uiso   1.00
N216   N     0.71598   0.16666   0.24998   0.00000  Uiso   1.00
N217   N     0.95069   0.16669   0.25000   0.00000  Uiso   1.00
O218   O     0.79375   0.22678   0.25000   0.00000  Uiso   1.00
O219   O     0.87294   0.22679   0.25000   0.00000  Uiso   1.00
O220   O     0.77441   0.16665   0.32549   0.00000  Uiso   1.00
O221   O     0.85360   0.16666   0.32549   0.00000  Uiso   1.00
O222   O     0.79373   0.10654   0.25000   0.00000  Uiso   1.00
O223   O     0.87292   0.10655   0.25000   0.00000  Uiso   1.00
O224   O     0.81306   0.16667   0.17451   0.00000  Uiso   1.00
O225   O     0.89225   0.16668   0.17451   0.00000  Uiso   1.00
O226   O     0.93489   0.10699   0.09718   0.00000  Uiso   1.00
C227   C     0.97775   0.13049   0.08647   0.00000  Uiso   1.00
H228   H     0.67320   0.11173   0.09441   0.00000  Uiso   1.00
H229   H     0.97231   0.15889   0.11149   0.00000  Uiso   1.00
H230   H     0.99168   0.13925   0.04556   0.00000  Uiso   1.00
O231   O     0.88095   0.04417   0.31113   0.00000  Uiso   1.00
C232   C     0.93122   0.03567   0.29082   0.00000  Uiso   1.00
H233   H     0.95140   0.06209   0.30079   0.00000  Uiso   1.00
H234   H     0.94352   0.03156   0.24794   0.00000  Uiso   1.00
H235   H     0.94148   0.00798   0.30831   0.00000  Uiso   1.00
O236   O     0.79008   0.29330   0.18334   0.00000  Uiso   1.00
H237   H     0.80275   0.26486   0.17531   0.00000  Uiso   1.00
O238   O     0.93893   0.23249   0.29164   0.00000  Uiso   1.00
H239   H     0.95810   0.25650   0.29722   0.00000  Uiso   1.00
O240   O     0.69920   0.23082   0.29884   0.00000  Uiso   1.00
H241   H     0.72188   0.21938   0.31573   0.00000  Uiso   1.00
O242   O     0.72767   0.10104   0.20663   0.00000  Uiso   1.00
C243   C     0.74188   0.10076   0.15223   0.00000  Uiso   1.00
H244   H     0.73968   0.13146   0.13604   0.00000  Uiso   1.00
H245   H     0.71986   0.07813   0.13767   0.00000  Uiso   1.00
H246   H     0.78024   0.09026   0.13748   0.00000  Uiso   1.00
O247   O     0.96792   0.10183   0.20235   0.00000  Uiso   1.00
H248   H     0.94403   0.11242   0.18654   0.00000  Uiso   1.00
O249   O     0.93448   0.10009   0.41408   0.00000  Uiso   1.00
H250   H     0.94010   0.10254   0.37648   0.00000  Uiso   1.00
O251   O     0.92614   0.06816   0.00535   0.00000  Uiso   1.00
C252   C     0.97715   0.06751   0.49257   0.00000  Uiso   1.00
H253   H     0.99119   0.04285   0.46245   0.00000  Uiso   1.00
H254   H     0.99392   0.09668   0.47624   0.00000  Uiso   1.00
H255   H     0.98882   0.05922   0.02641   0.00000  Uiso   1.00
O256   O     0.82237   0.21259   0.08148   0.00000  Uiso   1.00
H257   H     0.83917   0.22696   0.10393   0.00000  Uiso   1.00
O258   O     0.71409   0.19976   0.40769   0.00000  Uiso   1.00
C259   C     0.68208   0.16657   0.41038   0.00000  Uiso   1.00
H260   H     0.98675   0.16753   0.44814   0.00000  Uiso   1.00
H261   H     0.70106   0.13600   0.40317   0.00000  Uiso   1.00
H262   H     0.99779   0.16949   0.37959   0.00000  Uiso   1.00
O263   O     0.74509   0.18395   0.07054   0.00000  Uiso   1.00
H264   H     0.71331   0.19832   0.08309   0.00000  Uiso   1.00
O265   O     0.68666   0.21357   0.01231   0.00000  Uiso   1.00
C266   C     0.68974   0.25693   0.01325   0.00000  Uiso   1.00
H267   H     0.70086   0.26882   0.47354   0.00000  Uiso   1.00
H268   H     0.71503   0.26783   0.03482   0.00000  Uiso   1.00
H269   H     0.98667   0.27008   0.03352   0.00000  Uiso   1.00
O270   O     0.90648   0.17553   0.38029   0.00000  Uiso   1.00
C271   C     0.90910   0.21435   0.40491   0.00000  Uiso   1.00
H272   H     0.91011   0.21164   0.44541   0.00000  Uiso   1.00
H273   H     0.87833   0.23460   0.40385   0.00000  Uiso   1.00
H274   H     0.94320   0.22956   0.38414   0.00000  Uiso   1.00
O275   O     0.86555   0.29078   0.32173   0.00000  Uiso   1.00
H276   H     0.86836   0.31028   0.34957   0.00000  Uiso   1.00
C277   C     0.16655   0.57914   0.24980   0.00000  Uiso   1.00
C278   C     0.14312   0.50234   0.49196   0.00000  Uiso   1.00
C279   C     0.15847   0.49806   0.43731   0.00000  Uiso   1.00
C280   C     0.17626   0.48957   0.01886   0.00000  Uiso   1.00
C281   C     0.21278   0.46001   0.49413   0.00000  Uiso   1.00
C282   C     0.22679   0.45603   0.44007   0.00000  Uiso   1.00
C283   C     0.20681   0.48431   0.41410   0.00000  Uiso   1.00
C284   C     0.17756   0.50778   0.06625   0.00000  Uiso   1.00
C285   C     0.23856   0.45701   0.07129   0.00000  Uiso   1.00
C286   C     0.12645   0.50785   0.40791   0.00000  Uiso   1.00
C287   C     0.18580   0.64558   0.28469   0.00000  Uiso   1.00
C288   C     0.14086   0.50186   0.35023   0.00000  Uiso   1.00
C289   C     0.18978   0.35540   0.28222   0.00000  Uiso   1.00
C290   C     0.16646   0.37635   0.25160   0.00000  Uiso   1.00
C291   C     0.14301   0.35475   0.22087   0.00000  Uiso   1.00
C292   C     0.14409   0.64545   0.21796   0.00000  Uiso   1.00
C293   C     0.16598   0.62391   0.25005   0.00000  Uiso   1.00
C294   C     0.30243   0.53277   0.27087   0.00000  Uiso   1.00
C295   C     0.01806   0.53214   0.27260   0.00000  Uiso   1.00
C296   C     0.03151   0.46814   0.22706   0.00000  Uiso   1.00
C297   C     0.31564   0.46809   0.22696   0.00000  Uiso   1.00
C298   C     0.16656   0.42092   0.25075   0.00000  Uiso   1.00
C299   C     0.19260   0.49817   0.15030   0.00000  Uiso   1.00
C300   C     0.24015   0.44062   0.02206   0.00000  Uiso   1.00
C301   C     0.20619   0.48976   0.09409   0.00000  Uiso   1.00
C302   C     0.07963   0.52328   0.43444   0.00000  Uiso   1.00
C303   C     0.06568   0.53063   0.48807   0.00000  Uiso   1.00
C304   C     0.09583   0.51787   0.01740   0.00000  Uiso   1.00
Cu305  Cu    0.11978   0.49999   0.25000   0.00000  Uiso   1.00
Cu306  Cu    0.21355   0.50001   0.25000   0.00000  Uiso   1.00
H307   H     0.12581   0.37109   0.19674   0.00000  Uiso   1.00
N308   N     0.04931   0.49999   0.24998   0.00000  Uiso   1.00
N309   N     0.28402   0.50002   0.25000   0.00000  Uiso   1.00
O310   O     0.12708   0.56011   0.25000   0.00000  Uiso   1.00
O311   O     0.20627   0.56012   0.25000   0.00000  Uiso   1.00
O312   O     0.10775   0.49998   0.32549   0.00000  Uiso   1.00
O313   O     0.18694   0.49999   0.32549   0.00000  Uiso   1.00
O314   O     0.12706   0.43988   0.25000   0.00000  Uiso   1.00
O315   O     0.20625   0.43989   0.25000   0.00000  Uiso   1.00
O316   O     0.14640   0.50001   0.17451   0.00000  Uiso   1.00
O317   O     0.22559   0.50002   0.17451   0.00000  Uiso   1.00
O318   O     0.26822   0.44032   0.09718   0.00000  Uiso   1.00
C319   C     0.31108   0.46382   0.08647   0.00000  Uiso   1.00
H320   H     0.00653   0.44506   0.09441   0.00000  Uiso   1.00
H321   H     0.30564   0.49222   0.11149   0.00000  Uiso   1.00
H322   H     0.32501   0.47259   0.04556   0.00000  Uiso   1.00
O323   O     0.21429   0.37750   0.31113   0.00000  Uiso   1.00
C324   C     0.26455   0.36900   0.29082   0.00000  Uiso   1.00
H325   H     0.28473   0.39542   0.30079   0.00000  Uiso   1.00
H326   H     0.27685   0.36489   0.24794   0.00000  Uiso   1.00
H327   H     0.27481   0.34131   0.30831   0.00000  Uiso   1.00
O328   O     0.12342   0.62663   0.18334   0.00000  Uiso   1.00
H329   H     0.13608   0.59819   0.17531   0.00000  Uiso   1.00
O330   O     0.27226   0.56583   0.29164   0.00000  Uiso   1.00
H331   H     0.29144   0.58984   0.29722   0.00000  Uiso   1.00
O332   O     0.03253   0.56415   0.29884   0.00000  Uiso   1.00
H333   H     0.05522   0.55271   0.31573   0.00000  Uiso   1.00
O334   O     0.06100   0.43437   0.20663   0.00000  Uiso   1.00
C335   C     0.07521   0.43409   0.15223   0.00000  Uiso   1.00
H336   H     0.07302   0.46479   0.13604   0.00000  Uiso   1.00
H337   H     0.05319   0.41147   0.13767   0.00000  Uiso   1.00
H338   H     0.11357   0.42360   0.13748   0.00000  Uiso   1.00
O339   O     0.30126   0.43516   0.20235   0.00000  Uiso   1.00
H340   H     0.27736   0.44576   0.18654   0.00000  Uiso   1.00
O341   O     0.26781   0.43343   0.41408   0.00000  Uiso   1.00
H342   H     0.27343   0.43587   0.37648   0.00000  Uiso   1.00
O343   O     0.25947   0.40150   0.00535   0.00000  Uiso   1.00
C344   C     0.31048   0.40084   0.49257   0.00000  Uiso   1.00
H345   H     0.32452   0.37618   0.46245   0.00000  Uiso   1.00
H346   H     0.32726   0.43001   0.47624   0.00000  Uiso   1.00
H347   H     0.32216   0.39256   0.02641   0.00000  Uiso   1.00
O348   O     0.15571   0.54593   0.08148   0.00000  Uiso   1.00
H349   H     0.17250   0.56029   0.10393   0.00000  Uiso   1.00
O350   O     0.04742   0.53310   0.40769   0.00000  Uiso   1.00
C351   C     0.01541   0.49990   0.41038   0.00000  Uiso   1.00
H352   H     0.32008   0.50086   0.44814   0.00000  Uiso   1.00
H353   H     0.03440   0.46933   0.40317   0.00000  Uiso   1.00
H354   H     0.33112   0.50283   0.37959   0.00000  Uiso   1.00
O355   O     0.07842   0.51728   0.07054   0.00000  Uiso   1.00
H356   H     0.04665   0.53165   0.08309   0.00000  Uiso   1.00
O357   O     0.02000   0.54691   0.01231   0.00000  Uiso   1.00
C358   C     0.02307   0.59026   0.01325   0.00000  Uiso   1.00
H359   H     0.03420   0.60215   0.47354   0.00000  Uiso   1.00
H360   H     0.04837   0.60117   0.03482   0.00000  Uiso   1.00
H361   H     0.32000   0.60342   0.03352   0.00000  Uiso   1.00
O362   O     0.23982   0.50886   0.38029   0.00000  Uiso   1.00
C363   C     0.24243   0.54769   0.40491   0.00000  Uiso   1.00
H364   H     0.24344   0.54497   0.44541   0.00000  Uiso   1.00
H365   H     0.21167   0.56794   0.40385   0.00000  Uiso   1.00
H366   H     0.27653   0.56289   0.38414   0.00000  Uiso   1.00
O367   O     0.19888   0.62411   0.32173   0.00000  Uiso   1.00
H368   H     0.20169   0.64361   0.34957   0.00000  Uiso   1.00
C369   C     0.49989   0.57914   0.24980   0.00000  Uiso   1.00
C370   C     0.47645   0.50234   0.49196   0.00000  Uiso   1.00
C371   C     0.49180   0.49806   0.43731   0.00000  Uiso   1.00
C372   C     0.50959   0.48957   0.01886   0.00000  Uiso   1.00
C373   C     0.54612   0.46001   0.49413   0.00000  Uiso   1.00
C374   C     0.56013   0.45603   0.44007   0.00000  Uiso   1.00
C375   C     0.54014   0.48431   0.41410   0.00000  Uiso   1.00
C376   C     0.51089   0.50778   0.06625   0.00000  Uiso   1.00
C377   C     0.57189   0.45701   0.07129   0.00000  Uiso   1.00
C378   C     0.45978   0.50785   0.40791   0.00000  Uiso   1.00
C379   C     0.51914   0.64558   0.28469   0.00000  Uiso   1.00
C380   C     0.47420   0.50186   0.35023   0.00000  Uiso   1.00
C381   C     0.52311   0.35540   0.28222   0.00000  Uiso   1.00
C382   C     0.49979   0.37635   0.25160   0.00000  Uiso   1.00
C383   C     0.47634   0.35475   0.22087   0.00000  Uiso   1.00
C384   C     0.47742   0.64545   0.21796   0.00000  Uiso   1.00
C385   C     0.49931   0.62391   0.25005   0.00000  Uiso   1.00
C386   C     0.63577   0.53277   0.27087   0.00000  Uiso   1.00
C387   C     0.35139   0.53214   0.27260   0.00000  Uiso   1.00
C388   C     0.36484   0.46814   0.22706   0.00000  Uiso   1.00
C389   C     0.64898   0.46809   0.22696   0.00000  Uiso   1.00
C390   C     0.49989   0.42092   0.25075   0.00000  Uiso   1.00
C391   C     0.52593   0.49817   0.15030   0.00000  Uiso   1.00
C392   C     0.57348   0.44062   0.02206   0.00000  Uiso   1.00
C393   C     0.53953   0.48976   0.09409   0.00000  Uiso   1.00
C394   C     0.41297   0.52328   0.43444   0.00000  Uiso   1.00
C395   C     0.39901   0.53063   0.48807   0.00000  Uiso   1.00
C396   C     0.42916   0.51787   0.01740   0.00000  Uiso   1.00
Cu397  Cu    0.45311   0.49999   0.25000   0.00000  Uiso   1.00
Cu398  Cu    0.54689   0.50001   0.25000   0.00000  Uiso   1.00
H399   H     0.45915   0.37109   0.19674   0.00000  Uiso   1.00
N400   N     0.38265   0.49999   0.24998   0.00000  Uiso   1.00
N401   N     0.61735   0.50002   0.25000   0.00000  Uiso   1.00
O402   O     0.46042   0.56011   0.25000   0.00000  Uiso   1.00
O403   O     0.53961   0.56012   0.25000   0.00000  Uiso   1.00
O404   O     0.44108   0.49998   0.32549   0.00000  Uiso   1.00
O405   O     0.52027   0.49999   0.32549   0.00000  Uiso   1.00
O406   O     0.46039   0.43988   0.25000   0.00000  Uiso   1.00
O407   O     0.53958   0.43989   0.25000   0.00000  Uiso   1.00
O408   O     0.47973   0.50001   0.17451   0.00000  Uiso   1.00
O409   O     0.55892   0.50002   0.17451   0.00000  Uiso   1.00
O410   O     0.60155   0.44032   0.09718   0.00000  Uiso   1.00
C411   C     0.64442   0.46382   0.08647   0.00000  Uiso   1.00
H412   H     0.33986   0.44506   0.09441   0.00000  Uiso   1.00
H413   H     0.63897   0.49222   0.11149   0.00000  Uiso   1.00
H414   H     0.65834   0.47259   0.04556   0.00000  Uiso   1.00
O415   O     0.54762   0.37750   0.31113   0.00000  Uiso   1.00
C416   C     0.59789   0.36900   0.29082   0.00000  Uiso   1.00
H417   H     0.61806   0.39542   0.30079   0.00000  Uiso   1.00
H418   H     0.61019   0.36489   0.24794   0.00000  Uiso   1.00
H419   H     0.60815   0.34131   0.30831   0.00000  Uiso   1.00
O420   O     0.45675   0.62663   0.18334   0.00000  Uiso   1.00
H421   H     0.46941   0.59819   0.17531   0.00000  Uiso   1.00
O422   O     0.60560   0.56583   0.29164   0.00000  Uiso   1.00
H423   H     0.62477   0.58984   0.29722   0.00000  Uiso   1.00
O424   O     0.36586   0.56415   0.29884   0.00000  Uiso   1.00
H425   H     0.38855   0.55271   0.31573   0.00000  Uiso   1.00
O426   O     0.39433   0.43437   0.20663   0.00000  Uiso   1.00
C427   C     0.40854   0.43409   0.15223   0.00000  Uiso   1.00
H428   H     0.40635   0.46479   0.13604   0.00000  Uiso   1.00
H429   H     0.38653   0.41147   0.13767   0.00000  Uiso   1.00
H430   H     0.44690   0.42360   0.13748   0.00000  Uiso   1.00
O431   O     0.63459   0.43516   0.20235   0.00000  Uiso   1.00
H432   H     0.61069   0.44576   0.18654   0.00000  Uiso   1.00
O433   O     0.60115   0.43343   0.41408   0.00000  Uiso   1.00
H434   H     0.60676   0.43587   0.37648   0.00000  Uiso   1.00
O435   O     0.59280   0.40150   0.00535   0.00000  Uiso   1.00
C436   C     0.64381   0.40084   0.49257   0.00000  Uiso   1.00
H437   H     0.65785   0.37618   0.46245   0.00000  Uiso   1.00
H438   H     0.66059   0.43001   0.47624   0.00000  Uiso   1.00
H439   H     0.65549   0.39256   0.02641   0.00000  Uiso   1.00
O440   O     0.48904   0.54593   0.08148   0.00000  Uiso   1.00
H441   H     0.50584   0.56029   0.10393   0.00000  Uiso   1.00
O442   O     0.38076   0.53310   0.40769   0.00000  Uiso   1.00
C443   C     0.34874   0.49990   0.41038   0.00000  Uiso   1.00
H444   H     0.65341   0.50086   0.44814   0.00000  Uiso   1.00
H445   H     0.36773   0.46933   0.40317   0.00000  Uiso   1.00
H446   H     0.66445   0.50283   0.37959   0.00000  Uiso   1.00
O447   O     0.41175   0.51728   0.07054   0.00000  Uiso   1.00
H448   H     0.37998   0.53165   0.08309   0.00000  Uiso   1.00
O449   O     0.35333   0.54691   0.01231   0.00000  Uiso   1.00
C450   C     0.35641   0.59026   0.01325   0.00000  Uiso   1.00
H451   H     0.36753   0.60215   0.47354   0.00000  Uiso   1.00
H452   H     0.38170   0.60117   0.03482   0.00000  Uiso   1.00
H453   H     0.65334   0.60342   0.03352   0.00000  Uiso   1.00
O454   O     0.57315   0.50886   0.38029   0.00000  Uiso   1.00
C455   C     0.57576   0.54769   0.40491   0.00000  Uiso   1.00
H456   H     0.57677   0.54497   0.44541   0.00000  Uiso   1.00
H457   H     0.54500   0.56794   0.40385   0.00000  Uiso   1.00
H458   H     0.60987   0.56289   0.38414   0.00000  Uiso   1.00
O459   O     0.53221   0.62411   0.32173   0.00000  Uiso   1.00
H460   H     0.53502   0.64361   0.34957   0.00000  Uiso   1.00
C461   C     0.83322   0.57914   0.24980   0.00000  Uiso   1.00
C462   C     0.80979   0.50234   0.49196   0.00000  Uiso   1.00
C463   C     0.82514   0.49806   0.43731   0.00000  Uiso   1.00
C464   C     0.84293   0.48957   0.01886   0.00000  Uiso   1.00
C465   C     0.87945   0.46001   0.49413   0.00000  Uiso   1.00
C466   C     0.89346   0.45603   0.44007   0.00000  Uiso   1.00
C467   C     0.87348   0.48431   0.41410   0.00000  Uiso   1.00
C468   C     0.84422   0.50778   0.06625   0.00000  Uiso   1.00
C469   C     0.90522   0.45701   0.07129   0.00000  Uiso   1.00
C470   C     0.79311   0.50785   0.40791   0.00000  Uiso   1.00
C471   C     0.85247   0.64558   0.28469   0.00000  Uiso   1.00
C472   C     0.80753   0.50186   0.35023   0.00000  Uiso   1.00
C473   C     0.85645   0.35540   0.28222   0.00000  Uiso   1.00
C474   C     0.83313   0.37635   0.25160   0.00000  Uiso   1.00
C475   C     0.80968   0.35475   0.22087   0.00000  Uiso   1.00
C476   C     0.81075   0.64545   0.21796   0.00000  Uiso   1.00
C477   C     0.83264   0.62391   0.25005   0.00000  Uiso   1.00
C478   C     0.96910   0.53277   0.27087   0.00000  Uiso   1.00
C479   C     0.68472   0.53214   0.27260   0.00000  Uiso   1.00
C480   C     0.69817   0.46814   0.22706   0.00000  Uiso   1.00
C481   C     0.98231   0.46809   0.22696   0.00000  Uiso   1.00
C482   C     0.83322   0.42092   0.25075   0.00000  Uiso   1.00
C483   C     0.85927   0.49817   0.15030   0.00000  Uiso   1.00
C484   C     0.90681   0.44062   0.02206   0.00000  Uiso   1.00
C485   C     0.87286   0.48976   0.09409   0.00000  Uiso   1.00
C486   C     0.74630   0.52328   0.43444   0.00000  Uiso   1.00
C487   C     0.73235   0.53063   0.48807   0.00000  Uiso   1.00
C488   C     0.76250   0.51787   0.01740   0.00000  Uiso   1.00
Cu489  Cu    0.78645   0.49999   0.25000   0.00000  Uiso   1.00
Cu490  Cu    0.88022   0.50001   0.25000   0.00000  Uiso   1.00
H491   H     0.79248   0.37109   0.19674   0.00000  Uiso   1.00
N492   N     0.71598   0.49999   0.24998   0.00000  Uiso   1.00
N493   N     0.95069   0.50002   0.25000   0.00000  Uiso   1.00
O494   O     0.79375   0.56011   0.25000   0.00000  Uiso   1.00
O495   O     0.87294   0.56012   0.25000   0.00000  Uiso   1.00
O496   O     0.77441   0.49998   0.32549   0.00000  Uiso   1.00
O497   O     0.85360   0.49999   0.32549   0.00000  Uiso   1.00
O498   O     0.79373   0.43988   0.25000   0.00000  Uiso   1.00
O499   O     0.87292   0.43989   0.25000   0.00000  Uiso   1.00
O500   O     0.81306   0.50001   0.17451   0.00000  Uiso   1.00
O501   O     0.89225   0.50002   0.17451   0.00000  Uiso   1.00
O502   O     0.93489   0.44032   0.09718   0.00000  Uiso   1.00
C503   C     0.97775   0.46382   0.08647   0.00000  Uiso   1.00
H504   H     0.67320   0.44506   0.09441   0.00000  Uiso   1.00
H505   H     0.97231   0.49222   0.11149   0.00000  Uiso   1.00
H506   H     0.99168   0.47259   0.04556   0.00000  Uiso   1.00
O507   O     0.88095   0.37750   0.31113   0.00000  Uiso   1.00
C508   C     0.93122   0.36900   0.29082   0.00000  Uiso   1.00
H509   H     0.95140   0.39542   0.30079   0.00000  Uiso   1.00
H510   H     0.94352   0.36489   0.24794   0.00000  Uiso   1.00
H511   H     0.94148   0.34131   0.30831   0.00000  Uiso   1.00
O512   O     0.79008   0.62663   0.18334   0.00000  Uiso   1.00
H513   H     0.80275   0.59819   0.17531   0.00000  Uiso   1.00
O514   O     0.93893   0.56583   0.29164   0.00000  Uiso   1.00
H515   H     0.95810   0.58984   0.29722   0.00000  Uiso   1.00
O516   O     0.69920   0.56415   0.29884   0.00000  Uiso   1.00
H517   H     0.72188   0.55271   0.31573   0.00000  Uiso   1.00
O518   O     0.72767   0.43437   0.20663   0.00000  Uiso   1.00
C519   C     0.74188   0.43409   0.15223   0.00000  Uiso   1.00
H520   H     0.73968   0.46479   0.13604   0.00000  Uiso   1.00
H521   H     0.71986   0.41147   0.13767   0.00000  Uiso   1.00
H522   H     0.78024   0.42360   0.13748   0.00000  Uiso   1.00
O523   O     0.96792   0.43516   0.20235   0.00000  Uiso   1.00
H524   H     0.94403   0.44576   0.18654   0.00000  Uiso   1.00
O525   O     0.93448   0.43343   0.41408   0.00000  Uiso   1.00
H526   H     0.94010   0.43587   0.37648   0.00000  Uiso   1.00
O527   O     0.92614   0.40150   0.00535   0.00000  Uiso   1.00
C528   C     0.97715   0.40084   0.49257   0.00000  Uiso   1.00
H529   H     0.99119   0.37618   0.46245   0.00000  Uiso   1.00
H530   H     0.99392   0.43001   0.47624   0.00000  Uiso   1.00
H531   H     0.98882   0.39256   0.02641   0.00000  Uiso   1.00
O532   O     0.82237   0.54593   0.08148   0.00000  Uiso   1.00
H533   H     0.83917   0.56029   0.10393   0.00000  Uiso   1.00
O534   O     0.71409   0.53310   0.40769   0.00000  Uiso   1.00
C535   C     0.68208   0.49990   0.41038   0.00000  Uiso   1.00
H536   H     0.98675   0.50086   0.44814   0.00000  Uiso   1.00
H537   H     0.70106   0.46933   0.40317   0.00000  Uiso   1.00
H538   H     0.99779   0.50283   0.37959   0.00000  Uiso   1.00
O539   O     0.74509   0.51728   0.07054   0.00000  Uiso   1.00
H540   H     0.71331   0.53165   0.08309   0.00000  Uiso   1.00
O541   O     0.68666   0.54691   0.01231   0.00000  Uiso   1.00
C542   C     0.68974   0.59026   0.01325   0.00000  Uiso   1.00
H543   H     0.70086   0.60215   0.47354   0.00000  Uiso   1.00
H544   H     0.71503   0.60117   0.03482   0.00000  Uiso   1.00
H545   H     0.98667   0.60342   0.03352   0.00000  Uiso   1.00
O546   O     0.90648   0.50886   0.38029   0.00000  Uiso   1.00
C547   C     0.90910   0.54769   0.40491   0.00000  Uiso   1.00
H548   H     0.91011   0.54497   0.44541   0.00000  Uiso   1.00
H549   H     0.87833   0.56794   0.40385   0.00000  Uiso   1.00
H550   H     0.94320   0.56289   0.38414   0.00000  Uiso   1.00
O551   O     0.86555   0.62411   0.32173   0.00000  Uiso   1.00
H552   H     0.86836   0.64361   0.34957   0.00000  Uiso   1.00
C553   C     0.16655   0.91247   0.24980   0.00000  Uiso   1.00
C554   C     0.14312   0.83567   0.49196   0.00000  Uiso   1.00
C555   C     0.15847   0.83139   0.43731   0.00000  Uiso   1.00
C556   C     0.17626   0.82290   0.01886   0.00000  Uiso   1.00
C557   C     0.21278   0.79334   0.49413   0.00000  Uiso   1.00
C558   C     0.22679   0.78936   0.44007   0.00000  Uiso   1.00
C559   C     0.20681   0.81765   0.41410   0.00000  Uiso   1.00
C560   C     0.17756   0.84111   0.06625   0.00000  Uiso   1.00
C561   C     0.23856   0.79034   0.07129   0.00000  Uiso   1.00
C562   C     0.12645   0.84119   0.40791   0.00000  Uiso   1.00
C563   C     0.18580   0.97892   0.28469   0.00000  Uiso   1.00
C564   C     0.14086   0.83520   0.35023   0.00000  Uiso   1.00
C565   C     0.18978   0.68874   0.28222   0.00000  Uiso   1.00
C566   C     0.16646   0.70968   0.25160   0.00000  Uiso   1.00
C567   C     0.14301   0.68808   0.22087   0.00000  Uiso   1.00
C568   C     0.14409   0.97879   0.21796   0.00000  Uiso   1.00
C569   C     0.16598   0.95724   0.25005   0.00000  Uiso   1.00
C570   C     0.30243   0.86611   0.27087   0.00000  Uiso   1.00
C571   C     0.01806   0.86547   0.27260   0.00000  Uiso   1.00
C572   C     0.03151   0.80147   0.22706   0.00000  Uiso   1.00
C573   C     0.31564   0.80142   0.22696   0.00000  Uiso   1.00
C574   C     0.16656   0.75425   0.25075   0.00000  Uiso   1.00
C575   C     0.19260   0.83150   0.15030   0.00000  Uiso   1.00
C576   C     0.24015   0.77395   0.02206   0.00000  Uiso   1.00
C577   C     0.20619   0.82309   0.09409   0.00000  Uiso   1.00
C578   C     0.07963   0.85662   0.43444   0.00000  Uiso   1.00
C579   C     0.06568   0.86397   0.48807   0.00000  Uiso   1.00
C580   C     0.09583   0.85120   0.01740   0.00000  Uiso   1.00
Cu581  Cu    0.11978   0.83333   0.25000   0.00000  Uiso   1.00
Cu582  Cu    0.21355   0.83334   0.25000   0.00000  Uiso   1.00
H583   H     0.12581   0.70442   0.19674   0.00000  Uiso   1.00
N584   N     0.04931   0.83332   0.24998   0.00000  Uiso   1.00
N585   N     0.28402   0.83335   0.25000   0.00000  Uiso   1.00
O586   O     0.12708   0.89345   0.25000   0.00000  Uiso   1.00
O587   O     0.20627   0.89346   0.25000   0.00000  Uiso   1.00
O588   O     0.10775   0.83332   0.32549   0.00000  Uiso   1.00
O589   O     0.18694   0.83333   0.32549   0.00000  Uiso   1.00
O590   O     0.12706   0.77321   0.25000   0.00000  Uiso   1.00
O591   O     0.20625   0.77322   0.25000   0.00000  Uiso   1.00
O592   O     0.14640   0.83334   0.17451   0.00000  Uiso   1.00
O593   O     0.22559   0.83335   0.17451   0.00000  Uiso   1.00
O594   O     0.26822   0.77365   0.09718   0.00000  Uiso   1.00
C595   C     0.31108   0.79716   0.08647   0.00000  Uiso   1.00
H596   H     0.00653   0.77839   0.09441   0.00000  Uiso   1.00
H597   H     0.30564   0.82556   0.11149   0.00000  Uiso   1.00
H598   H     0.32501   0.80592   0.04556   0.00000  Uiso   1.00
O599   O     0.21429   0.71083   0.31113   0.00000  Uiso   1.00
C600   C     0.26455   0.70234   0.29082   0.00000  Uiso   1.00
H601   H     0.28473   0.72875   0.30079   0.00000  Uiso   1.00
H602   H     0.27685   0.69823   0.24794   0.00000  Uiso   1.00
H603   H     0.27481   0.67465   0.30831   0.00000  Uiso   1.00
O604   O     0.12342   0.95996   0.18334   0.00000  Uiso   1.00
H605   H     0.13608   0.93152   0.17531   0.00000  Uiso   1.00
O606   O     0.27226   0.89916   0.29164   0.00000  Uiso   1.00
H607   H     0.29144   0.92317   0.29722   0.00000  Uiso   1.00
O608   O     0.03253   0.89749   0.29884   0.00000  Uiso   1.00
H609   H     0.05522   0.88604   0.31573   0.00000  Uiso   1.00
O610   O     0.06100   0.76771   0.20663   0.00000  Uiso   1.00
C611   C     0.07521   0.76742   0.15223   0.00000  Uiso   1.00
H612   H     0.07302   0.79813   0.13604   0.00000  Uiso   1.00
H613   H     0.05319   0.74480   0.13767   0.00000  Uiso   1.00
H614   H     0.11357   0.75693   0.13748   0.00000  Uiso   1.00
O615   O     0.30126   0.76850   0.20235   0.00000  Uiso   1.00
H616   H     0.27736   0.77909   0.18654   0.00000  Uiso   1.00
O617   O     0.26781   0.76676   0.41408   0.00000  Uiso   1.00
H618   H     0.27343   0.76920   0.37648   0.00000  Uiso   1.00
O619   O     0.25947   0.73483   0.00535   0.00000  Uiso   1.00
C620   C     0.31048   0.73417   0.49257   0.00000  Uiso   1.00
H621   H     0.32452   0.70952   0.46245   0.00000  Uiso   1.00
H622   H     0.32726   0.76335   0.47624   0.00000  Uiso   1.00
H623   H     0.32216   0.72589   0.02641   0.00000  Uiso   1.00
O624   O     0.15571   0.87926   0.08148   0.00000  Uiso   1.00
H625   H     0.17250   0.89362   0.10393   0.00000  Uiso   1.00
O626   O     0.04742   0.86643   0.40769   0.00000  Uiso   1.00
C627   C     0.01541   0.83323   0.41038   0.00000  Uiso   1.00
H628   H     0.32008   0.83419   0.44814   0.00000  Uiso   1.00
H629   H     0.03440   0.80266   0.40317   0.00000  Uiso   1.00
H630   H     0.33112   0.83616   0.37959   0.00000  Uiso   1.00
O631   O     0.07842   0.85062   0.07054   0.00000  Uiso   1.00
H632   H     0.04665   0.86498   0.08309   0.00000  Uiso   1.00
O633   O     0.02000   0.88024   0.01231   0.00000  Uiso   1.00
C634   C     0.02307   0.92360   0.01325   0.00000  Uiso   1.00
H635   H     0.03420   0.93549   0.47354   0.00000  Uiso   1.00
H636   H     0.04837   0.93450   0.03482   0.00000  Uiso   1.00
H637   H     0.32000   0.93675   0.03352   0.00000  Uiso   1.00
O638   O     0.23982   0.84220   0.38029   0.00000  Uiso   1.00
C639   C     0.24243   0.88102   0.40491   0.00000  Uiso   1.00
H640   H     0.24344   0.87831   0.44541   0.00000  Uiso   1.00
H641   H     0.21167   0.90127   0.40385   0.00000  Uiso   1.00
H642   H     0.27653   0.89623   0.38414   0.00000  Uiso   1.00
O643   O     0.19888   0.95744   0.32173   0.00000  Uiso   1.00
H644   H     0.20169   0.97695   0.34957   0.00000  Uiso   1.00
C645   C     0.49989   0.91247   0.24980   0.00000  Uiso   1.00
C646   C     0.47645   0.83567   0.49196   0.00000  Uiso   1.00
C647   C     0.49180   0.83139   0.43731   0.00000  Uiso   1.00
C648   C     0.50959   0.82290   0.01886   0.00000  Uiso   1.00
C649   C     0.54612   0.79334   0.49413   0.00000  Uiso   1.00
C650   C     0.56013   0.78936   0.44007   0.00000  Uiso   1.00
C651   C     0.54014   0.81765   0.41410   0.00000  Uiso   1.00
C652   C     0.51089   0.84111   0.06625   0.00000  Uiso   1.00
C653   C     0.57189   0.79034   0.07129   0.00000  Uiso   1.00
C654   C     0.45978   0.84119   0.40791   0.00000  Uiso   1.00
C655   C     0.51914   0.97892   0.28469   0.00000  Uiso   1.00
C656   C     0.47420   0.83520   0.35023   0.00000  Uiso   1.00
C657   C     0.52311   0.68874   0.28222   0.00000  Uiso   1.00
C658   C     0.49979   0.70968   0.25160   0.00000  Uiso   1.00
C659   C     0.47634   0.68808   0.22087   0.00000  Uiso   1.00
C660   C     0.47742   0.97879   0.21796   0.00000  Uiso   1.00
C661   C     0.49931   0.95724   0.25005   0.00000  Uiso   1.00
C662   C     0.63577   0.86611   0.27087   0.00000  Uiso   1.00
C663   C     0.35139   0.86547   0.27260   0.00000  Uiso   1.00
C664   C     0.36484   0.80147   0.22706   0.00000  Uiso   1.00
C665   C     0.64898   0.80142   0.22696   0.00000  Uiso   1.00
C666   C     0.49989   0.75425   0.25075   0.00000  Uiso   1.00
C667   C     0.52593   0.83150   0.15030   0.00000  Uiso   1.00
C668   C     0.57348   0.77395   0.02206   0.00000  Uiso   1.00
C669   C     0.53953   0.82309   0.09409   0.00000  Uiso   1.00
C670   C     0.41297   0.85662   0.43444   0.00000  Uiso   1.00
C671   C     0.39901   0.86397   0.48807   0.00000  Uiso   1.00
C672   C     0.42916   0.85120   0.01740   0.00000  Uiso   1.00
Cu673  Cu    0.45311   0.83333   0.25000   0.00000  Uiso   1.00
Cu674  Cu    0.54689   0.83334   0.25000   0.00000  Uiso   1.00
H675   H     0.45915   0.70442   0.19674   0.00000  Uiso   1.00
N676   N     0.38265   0.83332   0.24998   0.00000  Uiso   1.00
N677   N     0.61735   0.83335   0.25000   0.00000  Uiso   1.00
O678   O     0.46042   0.89345   0.25000   0.00000  Uiso   1.00
O679   O     0.53961   0.89346   0.25000   0.00000  Uiso   1.00
O680   O     0.44108   0.83332   0.32549   0.00000  Uiso   1.00
O681   O     0.52027   0.83333   0.32549   0.00000  Uiso   1.00
O682   O     0.46039   0.77321   0.25000   0.00000  Uiso   1.00
O683   O     0.53958   0.77322   0.25000   0.00000  Uiso   1.00
O684   O     0.47973   0.83334   0.17451   0.00000  Uiso   1.00
O685   O     0.55892   0.83335   0.17451   0.00000  Uiso   1.00
O686   O     0.60155   0.77365   0.09718   0.00000  Uiso   1.00
C687   C     0.64442   0.79716   0.08647   0.00000  Uiso   1.00
H688   H     0.33986   0.77839   0.09441   0.00000  Uiso   1.00
H689   H     0.63897   0.82556   0.11149   0.00000  Uiso   1.00
H690   H     0.65834   0.80592   0.04556   0.00000  Uiso   1.00
O691   O     0.54762   0.71083   0.31113   0.00000  Uiso   1.00
C692   C     0.59789   0.70234   0.29082   0.00000  Uiso   1.00
H693   H     0.61806   0.72875   0.30079   0.00000  Uiso   1.00
H694   H     0.61019   0.69823   0.24794   0.00000  Uiso   1.00
H695   H     0.60815   0.67465   0.30831   0.00000  Uiso   1.00
O696   O     0.45675   0.95996   0.18334   0.00000  Uiso   1.00
H697   H     0.46941   0.93152   0.17531   0.00000  Uiso   1.00
O698   O     0.60560   0.89916   0.29164   0.00000  Uiso   1.00
H699   H     0.62477   0.92317   0.29722   0.00000  Uiso   1.00
O700   O     0.36586   0.89749   0.29884   0.00000  Uiso   1.00
H701   H     0.38855   0.88604   0.31573   0.00000  Uiso   1.00
O702   O     0.39433   0.76771   0.20663   0.00000  Uiso   1.00
C703   C     0.40854   0.76742   0.15223   0.00000  Uiso   1.00
H704   H     0.40635   0.79813   0.13604   0.00000  Uiso   1.00
H705   H     0.38653   0.74480   0.13767   0.00000  Uiso   1.00
H706   H     0.44690   0.75693   0.13748   0.00000  Uiso   1.00
O707   O     0.63459   0.76850   0.20235   0.00000  Uiso   1.00
H708   H     0.61069   0.77909   0.18654   0.00000  Uiso   1.00
O709   O     0.60115   0.76676   0.41408   0.00000  Uiso   1.00
H710   H     0.60676   0.76920   0.37648   0.00000  Uiso   1.00
O711   O     0.59280   0.73483   0.00535   0.00000  Uiso   1.00
C712   C     0.64381   0.73417   0.49257   0.00000  Uiso   1.00
H713   H     0.65785   0.70952   0.46245   0.00000  Uiso   1.00
H714   H     0.66059   0.76335   0.47624   0.00000  Uiso   1.00
H715   H     0.65549   0.72589   0.02641   0.00000  Uiso   1.00
O716   O     0.48904   0.87926   0.08148   0.00000  Uiso   1.00
H717   H     0.50584   0.89362   0.10393   0.00000  Uiso   1.00
O718   O     0.38076   0.86643   0.40769   0.00000  Uiso   1.00
C719   C     0.34874   0.83323   0.41038   0.00000  Uiso   1.00
H720   H     0.65341   0.83419   0.44814   0.00000  Uiso   1.00
H721   H     0.36773   0.80266   0.40317   0.00000  Uiso   1.00
H722   H     0.66445   0.83616   0.37959   0.00000  Uiso   1.00
O723   O     0.41175   0.85062   0.07054   0.00000  Uiso   1.00
H724   H     0.37998   0.86498   0.08309   0.00000  Uiso   1.00
O725   O     0.35333   0.88024   0.01231   0.00000  Uiso   1.00
C726   C     0.35641   0.92360   0.01325   0.00000  Uiso   1.00
H727   H     0.36753   0.93549   0.47354   0.00000  Uiso   1.00
H728   H     0.38170   0.93450   0.03482   0.00000  Uiso   1.00
H729   H     0.65334   0.93675   0.03352   0.00000  Uiso   1.00
O730   O     0.57315   0.84220   0.38029   0.00000  Uiso   1.00
C731   C     0.57576   0.88102   0.40491   0.00000  Uiso   1.00
H732   H     0.57677   0.87831   0.44541   0.00000  Uiso   1.00
H733   H     0.54500   0.90127   0.40385   0.00000  Uiso   1.00
H734   H     0.60987   0.89623   0.38414   0.00000  Uiso   1.00
O735   O     0.53221   0.95744   0.32173   0.00000  Uiso   1.00
H736   H     0.53502   0.97695   0.34957   0.00000  Uiso   1.00
C737   C     0.83322   0.91247   0.24980   0.00000  Uiso   1.00
C738   C     0.80979   0.83567   0.49196   0.00000  Uiso   1.00
C739   C     0.82514   0.83139   0.43731   0.00000  Uiso   1.00
C740   C     0.84293   0.82290   0.01886   0.00000  Uiso   1.00
C741   C     0.87945   0.79334   0.49413   0.00000  Uiso   1.00
C742   C     0.89346   0.78936   0.44007   0.00000  Uiso   1.00
C743   C     0.87348   0.81765   0.41410   0.00000  Uiso   1.00
C744   C     0.84422   0.84111   0.06625   0.00000  Uiso   1.00
C745   C     0.90522   0.79034   0.07129   0.00000  Uiso   1.00
C746   C     0.79311   0.84119   0.40791   0.00000  Uiso   1.00
C747   C     0.85247   0.97892   0.28469   0.00000  Uiso   1.00
C748   C     0.80753   0.83520   0.35023   0.00000  Uiso   1.00
C749   C     0.85645   0.68874   0.28222   0.00000  Uiso   1.00
C750   C     0.83313   0.70968   0.25160   0.00000  Uiso   1.00
C751   C     0.80968   0.68808   0.22087   0.00000  Uiso   1.00
C752   C     0.81075   0.97879   0.21796   0.00000  Uiso   1.00
C753   C     0.83264   0.95724   0.25005   0.00000  Uiso   1.00
C754   C     0.96910   0.86611   0.27087   0.00000  Uiso   1.00
C755   C     0.68472   0.86547   0.27260   0.00000  Uiso   1.00
C756   C     0.69817   0.80147   0.22706   0.00000  Uiso   1.00
C757   C     0.98231   0.80142   0.22696   0.00000  Uiso   1.00
C758   C     0.83322   0.75425   0.25075   0.00000  Uiso   1.00
C759   C     0.85927   0.83150   0.15030   0.00000  Uiso   1.00
C760   C     0.90681   0.77395   0.02206   0.00000  Uiso   1.00
C761   C     0.87286   0.82309   0.09409   0.00000  Uiso   1.00
C762   C     0.74630   0.85662   0.43444   0.00000  Uiso   1.00
C763   C     0.73235   0.86397   0.48807   0.00000  Uiso   1.00
C764   C     0.76250   0.85120   0.01740   0.00000  Uiso   1.00
Cu765  Cu    0.78645   0.83333   0.25000   0.00000  Uiso   1.00
Cu766  Cu    0.88022   0.83334   0.25000   0.00000  Uiso   1.00
H767   H     0.79248   0.70442   0.19674   0.00000  Uiso   1.00
N768   N     0.71598   0.83332   0.24998   0.00000  Uiso   1.00
N769   N     0.95069   0.83335   0.25000   0.00000  Uiso   1.00
O770   O     0.79375   0.89345   0.25000   0.00000  Uiso   1.00
O771   O     0.87294   0.89346   0.25000   0.00000  Uiso   1.00
O772   O     0.77441   0.83332   0.32549   0.00000  Uiso   1.00
O773   O     0.85360   0.83333   0.32549   0.00000  Uiso   1.00
O774   O     0.79373   0.77321   0.25000   0.00000  Uiso   1.00
O775   O     0.87292   0.77322   0.25000   0.00000  Uiso   1.00
O776   O     0.81306   0.83334   0.17451   0.00000  Uiso   1.00
O777   O     0.89225   0.83335   0.17451   0.00000  Uiso   1.00
O778   O     0.93489   0.77365   0.09718   0.00000  Uiso   1.00
C779   C     0.97775   0.79716   0.08647   0.00000  Uiso   1.00
H780   H     0.67320   0.77839   0.09441   0.00000  Uiso   1.00
H781   H     0.97231   0.82556   0.11149   0.00000  Uiso   1.00
H782   H     0.99168   0.80592   0.04556   0.00000  Uiso   1.00
O783   O     0.88095   0.71083   0.31113   0.00000  Uiso   1.00
C784   C     0.93122   0.70234   0.29082   0.00000  Uiso   1.00
H785   H     0.95140   0.72875   0.30079   0.00000  Uiso   1.00
H786   H     0.94352   0.69823   0.24794   0.00000  Uiso   1.00
H787   H     0.94148   0.67465   0.30831   0.00000  Uiso   1.00
O788   O     0.79008   0.95996   0.18334   0.00000  Uiso   1.00
H789   H     0.80275   0.93152   0.17531   0.00000  Uiso   1.00
O790   O     0.93893   0.89916   0.29164   0.00000  Uiso   1.00
H791   H     0.95810   0.92317   0.29722   0.00000  Uiso   1.00
O792   O     0.69920   0.89749   0.29884   0.00000  Uiso   1.00
H793   H     0.72188   0.88604   0.31573   0.00000  Uiso   1.00
O794   O     0.72767   0.76771   0.20663   0.00000  Uiso   1.00
C795   C     0.74188   0.76742   0.15223   0.00000  Uiso   1.00
H796   H     0.73968   0.79813   0.13604   0.00000  Uiso   1.00
H797   H     0.71986   0.74480   0.13767   0.00000  Uiso   1.00
H798   H     0.78024   0.75693   0.13748   0.00000  Uiso   1.00
O799   O     0.96792   0.76850   0.20235   0.00000  Uiso   1.00
H800   H     0.94403   0.77909   0.18654   0.00000  Uiso   1.00
O801   O     0.93448   0.76676   0.41408   0.00000  Uiso   1.00
H802   H     0.94010   0.76920   0.37648   0.00000  Uiso   1.00
O803   O     0.92614   0.73483   0.00535   0.00000  Uiso   1.00
C804   C     0.97715   0.73417   0.49257   0.00000  Uiso   1.00
H805   H     0.99119   0.70952   0.46245   0.00000  Uiso   1.00
H806   H     0.99392   0.76335   0.47624   0.00000  Uiso   1.00
H807   H     0.98882   0.72589   0.02641   0.00000  Uiso   1.00
O808   O     0.82237   0.87926   0.08148   0.00000  Uiso   1.00
H809   H     0.83917   0.89362   0.10393   0.00000  Uiso   1.00
O810   O     0.71409   0.86643   0.40769   0.00000  Uiso   1.00
C811   C     0.68208   0.83323   0.41038   0.00000  Uiso   1.00
H812   H     0.98675   0.83419   0.44814   0.00000  Uiso   1.00
H813   H     0.70106   0.80266   0.40317   0.00000  Uiso   1.00
H814   H     0.99779   0.83616   0.37959   0.00000  Uiso   1.00
O815   O     0.74509   0.85062   0.07054   0.00000  Uiso   1.00
H816   H     0.71331   0.86498   0.08309   0.00000  Uiso   1.00
O817   O     0.68666   0.88024   0.01231   0.00000  Uiso   1.00
C818   C     0.68974   0.92360   0.01325   0.00000  Uiso   1.00
H819   H     0.70086   0.93549   0.47354   0.00000  Uiso   1.00
H820   H     0.71503   0.93450   0.03482   0.00000  Uiso   1.00
H821   H     0.98667   0.93675   0.03352   0.00000  Uiso   1.00
O822   O     0.90648   0.84220   0.38029   0.00000  Uiso   1.00
C823   C     0.90910   0.88102   0.40491   0.00000  Uiso   1.00
H824   H     0.91011   0.87831   0.44541   0.00000  Uiso   1.00
H825   H     0.87833   0.90127   0.40385   0.00000  Uiso   1.00
H826   H     0.94320   0.89623   0.38414   0.00000  Uiso   1.00
O827   O     0.86555   0.95744   0.32173   0.00000  Uiso   1.00
H828   H     0.86836   0.97695   0.34957   0.00000  Uiso   1.00
C829   C     0.16655   0.24581   0.74980   0.00000  Uiso   1.00
C830   C     0.14312   0.16900   0.99196   0.00000  Uiso   1.00
C831   C     0.15847   0.16472   0.93731   0.00000  Uiso   1.00
C832   C     0.17626   0.15623   0.51886   0.00000  Uiso   1.00
C833   C     0.21278   0.12667   0.99413   0.00000  Uiso   1.00
C834   C     0.22679   0.12270   0.94007   0.00000  Uiso   1.00
C835   C     0.20681   0.15098   0.91410   0.00000  Uiso   1.00
C836   C     0.17756   0.17444   0.56625   0.00000  Uiso   1.00
C837   C     0.23856   0.12367   0.57129   0.00000  Uiso   1.00
C838   C     0.12645   0.17452   0.90791   0.00000  Uiso   1.00
C839   C     0.18580   0.31225   0.78469   0.00000  Uiso   1.00
C840   C     0.14086   0.16853   0.85023   0.00000  Uiso   1.00
C841   C     0.18978   0.02207   0.78222   0.00000  Uiso   1.00
C842   C     0.16646   0.04301   0.75160   0.00000  Uiso   1.00
C843   C     0.14301   0.02141   0.72087   0.00000  Uiso   1.00
C844   C     0.14409   0.31212   0.71796   0.00000  Uiso   1.00
C845   C     0.16598   0.29057   0.75005   0.00000  Uiso   1.00
C846   C     0.30243   0.19944   0.77087   0.00000  Uiso   1.00
C847   C     0.01806   0.19880   0.77260   0.00000  Uiso   1.00
C848   C     0.03151   0.13480   0.72706   0.00000  Uiso   1.00
C849   C     0.31564   0.13476   0.72696   0.00000  Uiso   1.00
C850   C     0.16656   0.08758   0.75075   0.00000  Uiso   1.00
C851   C     0.19260   0.16484   0.65030   0.00000  Uiso   1.00
C852   C     0.24015   0.10729   0.52206   0.00000  Uiso   1.00
C853   C     0.20619   0.15642   0.59409   0.00000  Uiso   1.00
C854   C     0.07963   0.18995   0.93444   0.00000  Uiso   1.00
C855   C     0.06568   0.19730   0.98807   0.00000  Uiso   1.00
C856   C     0.09583   0.18454   0.51740   0.00000  Uiso   1.00
Cu857  Cu    0.11978   0.16666   0.75000   0.00000  Uiso   1.00
Cu858  Cu    0.21355   0.16667   0.75000   0.00000  Uiso   1.00
H859   H     0.12581   0.03776   0.69674   0.00000  Uiso   1.00
N860   N     0.04931   0.16666   0.74998   0.00000  Uiso   1.00
N861   N     0.28402   0.16669   0.75000   0.00000  Uiso   1.00
O862   O     0.12708   0.22678   0.75000   0.00000  Uiso   1.00
O863   O     0.20627   0.22679   0.75000   0.00000  Uiso   1.00
O864   O     0.10775   0.16665   0.82549   0.00000  Uiso   1.00
O865   O     0.18694   0.16666   0.82549   0.00000  Uiso   1.00
O866   O     0.12706   0.10654   0.75000   0.00000  Uiso   1.00
O867   O     0.20625   0.10655   0.75000   0.00000  Uiso   1.00
O868   O     0.14640   0.16667   0.67451   0.00000  Uiso   1.00
O869   O     0.22559   0.16668   0.67451   0.00000  Uiso   1.00
O870   O     0.26822   0.10699   0.59718   0.00000  Uiso   1.00
C871   C     0.31108   0.13049   0.58647   0.00000  Uiso   1.00
H872   H     0.00653   0.11173   0.59441   0.00000  Uiso   1.00
H873   H     0.30564   0.15889   0.61149   0.00000  Uiso   1.00
H874   H     0.32501   0.13925   0.54556   0.00000  Uiso   1.00
O875   O     0.21429   0.04417   0.81113   0.00000  Uiso   1.00
C876   C     0.26455   0.03567   0.79082   0.00000  Uiso   1.00
H877   H     0.28473   0.06209   0.80079   0.00000  Uiso   1.00
H878   H     0.27685   0.03156   0.74794   0.00000  Uiso   1.00
H879   H     0.27481   0.00798   0.80831   0.00000  Uiso   1.00
O880   O     0.12342   0.29330   0.68334   0.00000  Uiso   1.00
H881   H     0.13608   0.26486   0.67531   0.00000  Uiso   1.00
O882   O     0.27226   0.23249   0.79164   0.00000  Uiso   1.00
H883   H     0.29144   0.25650   0.79722   0.00000  Uiso   1.00
O884   O     0.03253   0.23082   0.79884   0.00000  Uiso   1.00
H885   H     0.05522   0.21938   0.81573   0.00000  Uiso   1.00
O886   O     0.06100   0.10104   0.70663   0.00000  Uiso   1.00
C887   C     0.07521   0.10076   0.65223   0.00000  Uiso   1.00
H888   H     0.07302   0.13146   0.63604   0.00000  Uiso   1.00
H889   H     0.05319   0.07813   0.63767   0.00000  Uiso   1.00
H890   H     0.11357   0.09026   0.63748   0.00000  Uiso   1.00
O891   O     0.30126   0.10183   0.70235   0.00000  Uiso   1.00
H892   H     0.27736   0.11242   0.68654   0.00000  Uiso   1.00
O893   O     0.26781   0.10009   0.91408   0.00000  Uiso   1.00
H894   H     0.27343   0.10254   0.87648   0.00000  Uiso   1.00
O895   O     0.25947   0.06816   0.50535   0.00000  Uiso   1.00
C896   C     0.31048   0.06751   0.99257   0.00000  Uiso   1.00
H897   H     0.32452   0.04285   0.96245   0.00000  Uiso   1.00
H898   H     0.32726   0.09668   0.97624   0.00000  Uiso   1.00
H899   H     0.32216   0.05922   0.52641   0.00000  Uiso   1.00
O900   O     0.15571   0.21259   0.58148   0.00000  Uiso   1.00
H901   H     0.17250   0.22696   0.60393   0.00000  Uiso   1.00
O902   O     0.04742   0.19976   0.90769   0.00000  Uiso   1.00
C903   C     0.01541   0.16657   0.91038   0.00000  Uiso   1.00
H904   H     0.32008   0.16753   0.94814   0.00000  Uiso   1.00
H905   H     0.03440   0.13600   0.90317   0.00000  Uiso   1.00
H906   H     0.33112   0.16949   0.87959   0.00000  Uiso   1.00
O907   O     0.07842   0.18395   0.57054   0.00000  Uiso   1.00
H908   H     0.04665   0.19832   0.58309   0.00000  Uiso   1.00
O909   O     0.02000   0.21357   0.51231   0.00000  Uiso   1.00
C910   C     0.02307   0.25693   0.51325   0.00000  Uiso   1.00
H911   H     0.03420   0.26882   0.97354   0.00000  Uiso   1.00
H912   H     0.04837   0.26783   0.53482   0.00000  Uiso   1.00
H913   H     0.32000   0.27008   0.53352   0.00000  Uiso   1.00
O914   O     0.23982   0.17553   0.88029   0.00000  Uiso   1.00
C915   C     0.24243   0.21435   0.90491   0.00000  Uiso   1.00
H916   H     0.24344   0.21164   0.94541   0.00000  Uiso   1.00
H917   H     0.21167   0.23460   0.90385   0.00000  Uiso   1.00
H918   H     0.27653   0.22956   0.88414   0.00000  Uiso   1.00
O919   O     0.19888   0.29078   0.82173   0.00000  Uiso   1.00
H920   H     0.20169   0.31028   0.84957   0.00000  Uiso   1.00
C921   C     0.49989   0.24581   0.74980   0.00000  Uiso   1.00
C922   C     0.47645   0.16900   0.99196   0.00000  Uiso   1.00
C923   C     0.49180   0.16472   0.93731   0.00000  Uiso   1.00
C924   C     0.50959   0.15623   0.51886   0.00000  Uiso   1.00
C925   C     0.54612   0.12667   0.99413   0.00000  Uiso   1.00
C926   C     0.56013   0.12270   0.94007   0.00000  Uiso   1.00
C927   C     0.54014   0.15098   0.91410   0.00000  Uiso   1.00
C928   C     0.51089   0.17444   0.56625   0.00000  Uiso   1.00
C929   C     0.57189   0.12367   0.57129   0.00000  Uiso   1.00
C930   C     0.45978   0.17452   0.90791   0.00000  Uiso   1.00
C931   C     0.51914   0.31225   0.78469   0.00000  Uiso   1.00
C932   C     0.47420   0.16853   0.85023   0.00000  Uiso   1.00
C933   C     0.52311   0.02207   0.78222   0.00000  Uiso   1.00
C934   C     0.49979   0.04301   0.75160   0.00000  Uiso   1.00
C935   C     0.47634   0.02141   0.72087   0.00000  Uiso   1.00
C936   C     0.47742   0.31212   0.71796   0.00000  Uiso   1.00
C937   C     0.49931   0.29057   0.75005   0.00000  Uiso   1.00
C938   C     0.63577   0.19944   0.77087   0.00000  Uiso   1.00
C939   C     0.35139   0.19880   0.77260   0.00000  Uiso   1.00
C940   C     0.36484   0.13480   0.72706   0.00000  Uiso   1.00
C941   C     0.64898   0.13476   0.72696   0.00000  Uiso   1.00
C942   C     0.49989   0.08758   0.75075   0.00000  Uiso   1.00
C943   C     0.52593   0.16484   0.65030   0.00000  Uiso   1.00
C944   C     0.57348   0.10729   0.52206   0.00000  Uiso   1.00
C945   C     0.53953   0.15642   0.59409   0.00000  Uiso   1.00
C946   C     0.41297   0.18995   0.93444   0.00000  Uiso   1.00
C947   C     0.39901   0.19730   0.98807   0.00000  Uiso   1.00
C948   C     0.42916   0.18454   0.51740   0.00000  Uiso   1.00
Cu949  Cu    0.45311   0.16666   0.75000   0.00000  Uiso   1.00
Cu950  Cu    0.54689   0.16667   0.75000   0.00000  Uiso   1.00
H951   H     0.45915   0.03776   0.69674   0.00000  Uiso   1.00
N952   N     0.38265   0.16666   0.74998   0.00000  Uiso   1.00
N953   N     0.61735   0.16669   0.75000   0.00000  Uiso   1.00
O954   O     0.46042   0.22678   0.75000   0.00000  Uiso   1.00
O955   O     0.53961   0.22679   0.75000   0.00000  Uiso   1.00
O956   O     0.44108   0.16665   0.82549   0.00000  Uiso   1.00
O957   O     0.52027   0.16666   0.82549   0.00000  Uiso   1.00
O958   O     0.46039   0.10654   0.75000   0.00000  Uiso   1.00
O959   O     0.53958   0.10655   0.75000   0.00000  Uiso   1.00
O960   O     0.47973   0.16667   0.67451   0.00000  Uiso   1.00
O961   O     0.55892   0.16668   0.67451   0.00000  Uiso   1.00
O962   O     0.60155   0.10699   0.59718   0.00000  Uiso   1.00
C963   C     0.64442   0.13049   0.58647   0.00000  Uiso   1.00
H964   H     0.33986   0.11173   0.59441   0.00000  Uiso   1.00
H965   H     0.63897   0.15889   0.61149   0.00000  Uiso   1.00
H966   H     0.65834   0.13925   0.54556   0.00000  Uiso   1.00
O967   O     0.54762   0.04417   0.81113   0.00000  Uiso   1.00
C968   C     0.59789   0.03567   0.79082   0.00000  Uiso   1.00
H969   H     0.61806   0.06209   0.80079   0.00000  Uiso   1.00
H970   H     0.61019   0.03156   0.74794   0.00000  Uiso   1.00
H971   H     0.60815   0.00798   0.80831   0.00000  Uiso   1.00
O972   O     0.45675   0.29330   0.68334   0.00000  Uiso   1.00
H973   H     0.46941   0.26486   0.67531   0.00000  Uiso   1.00
O974   O     0.60560   0.23249   0.79164   0.00000  Uiso   1.00
H975   H     0.62477   0.25650   0.79722   0.00000  Uiso   1.00
O976   O     0.36586   0.23082   0.79884   0.00000  Uiso   1.00
H977   H     0.38855   0.21938   0.81573   0.00000  Uiso   1.00
O978   O     0.39433   0.10104   0.70663   0.00000  Uiso   1.00
C979   C     0.40854   0.10076   0.65223   0.00000  Uiso   1.00
H980   H     0.40635   0.13146   0.63604   0.00000  Uiso   1.00
H981   H     0.38653   0.07813   0.63767   0.00000  Uiso   1.00
H982   H     0.44690   0.09026   0.63748   0.00000  Uiso   1.00
O983   O     0.63459   0.10183   0.70235   0.00000  Uiso   1.00
H984   H     0.61069   0.11242   0.68654   0.00000  Uiso   1.00
O985   O     0.60115   0.10009   0.91408   0.00000  Uiso   1.00
H986   H     0.60676   0.10254   0.87648   0.00000  Uiso   1.00
O987   O     0.59280   0.06816   0.50535   0.00000  Uiso   1.00
C988   C     0.64381   0.06751   0.99257   0.00000  Uiso   1.00
H989   H     0.65785   0.04285   0.96245   0.00000  Uiso   1.00
H990   H     0.66059   0.09668   0.97624   0.00000  Uiso   1.00
H991   H     0.65549   0.05922   0.52641   0.00000  Uiso   1.00
O992   O     0.48904   0.21259   0.58148   0.00000  Uiso   1.00
H993   H     0.50584   0.22696   0.60393   0.00000  Uiso   1.00
O994   O     0.38076   0.19976   0.90769   0.00000  Uiso   1.00
C995   C     0.34874   0.16657   0.91038   0.00000  Uiso   1.00
H996   H     0.65341   0.16753   0.94814   0.00000  Uiso   1.00
H997   H     0.36773   0.13600   0.90317   0.00000  Uiso   1.00
H998   H     0.66445   0.16949   0.87959   0.00000  Uiso   1.00
O999   O     0.41175   0.18395   0.57054   0.00000  Uiso   1.00
H1000  H     0.37998   0.19832   0.58309   0.00000  Uiso   1.00
O1001  O     0.35333   0.21357   0.51231   0.00000  Uiso   1.00
C1002  C     0.35641   0.25693   0.51325   0.00000  Uiso   1.00
H1003  H     0.36753   0.26882   0.97354   0.00000  Uiso   1.00
H1004  H     0.38170   0.26783   0.53482   0.00000  Uiso   1.00
H1005  H     0.65334   0.27008   0.53352   0.00000  Uiso   1.00
O1006  O     0.57315   0.17553   0.88029   0.00000  Uiso   1.00
C1007  C     0.57576   0.21435   0.90491   0.00000  Uiso   1.00
H1008  H     0.57677   0.21164   0.94541   0.00000  Uiso   1.00
H1009  H     0.54500   0.23460   0.90385   0.00000  Uiso   1.00
H1010  H     0.60987   0.22956   0.88414   0.00000  Uiso   1.00
O1011  O     0.53221   0.29078   0.82173   0.00000  Uiso   1.00
H1012  H     0.53502   0.31028   0.84957   0.00000  Uiso   1.00
C1013  C     0.83322   0.24581   0.74980   0.00000  Uiso   1.00
C1014  C     0.80979   0.16900   0.99196   0.00000  Uiso   1.00
C1015  C     0.82514   0.16472   0.93731   0.00000  Uiso   1.00
C1016  C     0.84293   0.15623   0.51886   0.00000  Uiso   1.00
C1017  C     0.87945   0.12667   0.99413   0.00000  Uiso   1.00
C1018  C     0.89346   0.12270   0.94007   0.00000  Uiso   1.00
C1019  C     0.87348   0.15098   0.91410   0.00000  Uiso   1.00
C1020  C     0.84422   0.17444   0.56625   0.00000  Uiso   1.00
C1021  C     0.90522   0.12367   0.57129   0.00000  Uiso   1.00
C1022  C     0.79311   0.17452   0.90791   0.00000  Uiso   1.00
C1023  C     0.85247   0.31225   0.78469   0.00000  Uiso   1.00
C1024  C     0.80753   0.16853   0.85023   0.00000  Uiso   1.00
C1025  C     0.85645   0.02207   0.78222   0.00000  Uiso   1.00
C1026  C     0.83313   0.04301   0.75160   0.00000  Uiso   1.00
C1027  C     0.80968   0.02141   0.72087   0.00000  Uiso   1.00
C1028  C     0.81075   0.31212   0.71796   0.00000  Uiso   1.00
C1029  C     0.83264   0.29057   0.75005   0.00000  Uiso   1.00
C1030  C     0.96910   0.19944   0.77087   0.00000  Uiso   1.00
C1031  C     0.68472   0.19880   0.77260   0.00000  Uiso   1.00
C1032  C     0.69817   0.13480   0.72706   0.00000  Uiso   1.00
C1033  C     0.98231   0.13476   0.72696   0.00000  Uiso   1.00
C1034  C     0.83322   0.08758   0.75075   0.00000  Uiso   1.00
C1035  C     0.85927   0.16484   0.65030   0.00000  Uiso   1.00
C1036  C     0.90681   0.10729   0.52206   0.00000  Uiso   1.00
C1037  C     0.87286   0.15642   0.59409   0.00000  Uiso   1.00
C1038  C     0.74630   0.18995   0.93444   0.00000  Uiso   1.00
C1039  C     0.73235   0.19730   0.98807   0.00000  Uiso   1.00
C1040  C     0.76250   0.18454   0.51740   0.00000  Uiso   1.00
Cu1041 Cu    0.78645   0.16666   0.75000   0.00000  Uiso   1.00
Cu1042 Cu    0.88022   0.16667   0.75000   0.00000  Uiso   1.00
H1043  H     0.79248   0.03776   0.69674   0.00000  Uiso   1.00
N1044  N     0.71598   0.16666   0.74998   0.00000  Uiso   1.00
N1045  N     0.95069   0.16669   0.75000   0.00000  Uiso   1.00
O1046  O     0.79375   0.22678   0.75000   0.00000  Uiso   1.00
O1047  O     0.87294   0.22679   0.75000   0.00000  Uiso   1.00
O1048  O     0.77441   0.16665   0.82549   0.00000  Uiso   1.00
O1049  O     0.85360   0.16666   0.82549   0.00000  Uiso   1.00
O1050  O     0.79373   0.10654   0.75000   0.00000  Uiso   1.00
O1051  O     0.87292   0.10655   0.75000   0.00000  Uiso   1.00
O1052  O     0.81306   0.16667   0.67451   0.00000  Uiso   1.00
O1053  O     0.89225   0.16668   0.67451   0.00000  Uiso   1.00
O1054  O     0.93489   0.10699   0.59718   0.00000  Uiso   1.00
C1055  C     0.97775   0.13049   0.58647   0.00000  Uiso   1.00
H1056  H     0.67320   0.11173   0.59441   0.00000  Uiso   1.00
H1057  H     0.97231   0.15889   0.61149   0.00000  Uiso   1.00
H1058  H     0.99168   0.13925   0.54556   0.00000  Uiso   1.00
O1059  O     0.88095   0.04417   0.81113   0.00000  Uiso   1.00
C1060  C     0.93122   0.03567   0.79082   0.00000  Uiso   1.00
H1061  H     0.95140   0.06209   0.80079   0.00000  Uiso   1.00
H1062  H     0.94352   0.03156   0.74794   0.00000  Uiso   1.00
H1063  H     0.94148   0.00798   0.80831   0.00000  Uiso   1.00
O1064  O     0.79008   0.29330   0.68334   0.00000  Uiso   1.00
H1065  H     0.80275   0.26486   0.67531   0.00000  Uiso   1.00
O1066  O     0.93893   0.23249   0.79164   0.00000  Uiso   1.00
H1067  H     0.95810   0.25650   0.79722   0.00000  Uiso   1.00
O1068  O     0.69920   0.23082   0.79884   0.00000  Uiso   1.00
H1069  H     0.72188   0.21938   0.81573   0.00000  Uiso   1.00
O1070  O     0.72767   0.10104   0.70663   0.00000  Uiso   1.00
C1071  C     0.74188   0.10076   0.65223   0.00000  Uiso   1.00
H1072  H     0.73968   0.13146   0.63604   0.00000  Uiso   1.00
H1073  H     0.71986   0.07813   0.63767   0.00000  Uiso   1.00
H1074  H     0.78024   0.09026   0.63748   0.00000  Uiso   1.00
O1075  O     0.96792   0.10183   0.70235   0.00000  Uiso   1.00
H1076  H     0.94403   0.11242   0.68654   0.00000  Uiso   1.00
O1077  O     0.93448   0.10009   0.91408   0.00000  Uiso   1.00
H1078  H     0.94010   0.10254   0.87648   0.00000  Uiso   1.00
O1079  O     0.92614   0.06816   0.50535   0.00000  Uiso   1.00
C1080  C     0.97715   0.06751   0.99257   0.00000  Uiso   1.00
H1081  H     0.99119   0.04285   0.96245   0.00000  Uiso   1.00
H1082  H     0.99392   0.09668   0.97624   0.00000  Uiso   1.00
H1083  H     0.98882   0.05922   0.52641   0.00000  Uiso   1.00
O1084  O     0.82237   0.21259   0.58148   0.00000  Uiso   1.00
H1085  H     0.83917   0.22696   0.60393   0.00000  Uiso   1.00
O1086  O     0.71409   0.19976   0.90769   0.00000  Uiso   1.00
C1087  C     0.68208   0.16657   0.91038   0.00000  Uiso   1.00
H1088  H     0.98675   0.16753   0.94814   0.00000  Uiso   1.00
H1089  H     0.70106   0.13600   0.90317   0.00000  Uiso   1.00
H1090  H     0.99779   0.16949   0.87959   0.00000  Uiso   1.00
O1091  O     0.74509   0.18395   0.57054   0.00000  Uiso   1.00
H1092  H     0.71331   0.19832   0.58309   0.00000  Uiso   1.00
O1093  O     0.68666   0.21357   0.51231   0.00000  Uiso   1.00
C1094  C     0.68974   0.25693   0.51325   0.00000  Uiso   1.00
H1095  H     0.70086   0.26882   0.97354   0.00000  Uiso   1.00
H1096  H     0.71503   0.26783   0.53482   0.00000  Uiso   1.00
H1097  H     0.98667   0.27008   0.53352   0.00000  Uiso   1.00
O1098  O     0.90648   0.17553   0.88029   0.00000  Uiso   1.00
C1099  C     0.90910   0.21435   0.90491   0.00000  Uiso   1.00
H1100  H     0.91011   0.21164   0.94541   0.00000  Uiso   1.00
H1101  H     0.87833   0.23460   0.90385   0.00000  Uiso   1.00
H1102  H     0.94320   0.22956   0.88414   0.00000  Uiso   1.00
O1103  O     0.86555   0.29078   0.82173   0.00000  Uiso   1.00
H1104  H     0.86836   0.31028   0.84957   0.00000  Uiso   1.00
C1105  C     0.16655   0.57914   0.74980   0.00000  Uiso   1.00
C1106  C     0.14312   0.50234   0.99196   0.00000  Uiso   1.00
C1107  C     0.15847   0.49806   0.93731   0.00000  Uiso   1.00
C1108  C     0.17626   0.48957   0.51886   0.00000  Uiso   1.00
C1109  C     0.21278   0.46001   0.99413   0.00000  Uiso   1.00
C1110  C     0.22679   0.45603   0.94007   0.00000  Uiso   1.00
C1111  C     0.20681   0.48431   0.91410   0.00000  Uiso   1.00
C1112  C     0.17756   0.50778   0.56625   0.00000  Uiso   1.00
C1113  C     0.23856   0.45701   0.57129   0.00000  Uiso   1.00
C1114  C     0.12645   0.50785   0.90791   0.00000  Uiso   1.00
C1115  C     0.18580   0.64558   0.78469   0.00000  Uiso   1.00
C1116  C     0.14086   0.50186   0.85023   0.00000  Uiso   1.00
C1117  C     0.18978   0.35540   0.78222   0.00000  Uiso   1.00
C1118  C     0.16646   0.37635   0.75160   0.00000  Uiso   1.00
C1119  C     0.14301   0.35475   0.72087   0.00000  Uiso   1.00
C1120  C     0.14409   0.64545   0.71796   0.00000  Uiso   1.00
C1121  C     0.16598   0.62391   0.75005   0.00000  Uiso   1.00
C1122  C     0.30243   0.53277   0.77087   0.00000  Uiso   1.00
C1123  C     0.01806   0.53214   0.77260   0.00000  Uiso   1.00
C1124  C     0.03151   0.46814   0.72706   0.00000  Uiso   1.00
C1125  C     0.31564   0.46809   0.72696   0.00000  Uiso   1.00
C1126  C     0.16656   0.42092   0.75075   0.00000  Uiso   1.00
C1127  C     0.19260   0.49817   0.65030   0.00000  Uiso   1.00
C1128  C     0.24015   0.44062   0.52206   0.00000  Uiso   1.00
C1129  C     0.20619   0.48976   0.59409   0.00000  Uiso   1.00
C1130  C     0.07963   0.52328   0.93444   0.00000  Uiso   1.00
C1131  C     0.06568   0.53063   0.98807   0.00000  Uiso   1.00
C1132  C     0.09583   0.51787   0.51740   0.00000  Uiso   1.00
Cu1133 Cu    0.11978   0.49999   0.75000   0.00000  Uiso   1.00
Cu1134 Cu    0.21355   0.50001   0.75000   0.00000  Uiso   1.00
H1135  H     0.12581   0.37109   0.69674   0.00000  Uiso   1.00
N1136  N     0.04931   0.49999   0.74998   0.00000  Uiso   1.00
N1137  N     0.28402   0.50002   0.75000   0.00000  Uiso   1.00
O1138  O     0.12708   0.56011   0.75000   0.00000  Uiso   1.00
O1139  O     0.20627   0.56012   0.75000   0.00000  Uiso   1.00
O1140  O     0.10775   0.49998   0.82549   0.00000  Uiso   1.00
O1141  O     0.18694   0.49999   0.82549   0.00000  Uiso   1.00
O1142  O     0.12706   0.43988   0.75000   0.00000  Uiso   1.00
O1143  O     0.20625   0.43989   0.75000   0.00000  Uiso   1.00
O1144  O     0.14640   0.50001   0.67451   0.00000  Uiso   1.00
O1145  O     0.22559   0.50002   0.67451   0.00000  Uiso   1.00
O1146  O     0.26822   0.44032   0.59718   0.00000  Uiso   1.00
C1147  C     0.31108   0.46382   0.58647   0.00000  Uiso   1.00
H1148  H     0.00653   0.44506   0.59441   0.00000  Uiso   1.00
H1149  H     0.30564   0.49222   0.61149   0.00000  Uiso   1.00
H1150  H     0.32501   0.47259   0.54556   0.00000  Uiso   1.00
O1151  O     0.21429   0.37750   0.81113   0.00000  Uiso   1.00
C1152  C     0.26455   0.36900   0.79082   0.00000  Uiso   1.00
H1153  H     0.28473   0.39542   0.80079   0.00000  Uiso   1.00
H1154  H     0.27685   0.36489   0.74794   0.00000  Uiso   1.00
H1155  H     0.27481   0.34131   0.80831   0.00000  Uiso   1.00
O1156  O     0.12342   0.62663   0.68334   0.00000  Uiso   1.00
H1157  H     0.13608   0.59819   0.67531   0.00000  Uiso   1.00
O1158  O     0.27226   0.56583   0.79164   0.00000  Uiso   1.00
H1159  H     0.29144   0.58984   0.79722   0.00000  Uiso   1.00
O1160  O     0.03253   0.56415   0.79884   0.00000  Uiso   1.00
H1161  H     0.05522   0.55271   0.81573   0.00000  Uiso   1.00
O1162  O     0.06100   0.43437   0.70663   0.00000  Uiso   1.00
C1163  C     0.07521   0.43409   0.65223   0.00000  Uiso   1.00
H1164  H     0.07302   0.46479   0.63604   0.00000  Uiso   1.00
H1165  H     0.05319   0.41147   0.63767   0.00000  Uiso   1.00
H1166  H     0.11357   0.42360   0.63748   0.00000  Uiso   1.00
O1167  O     0.30126   0.43516   0.70235   0.00000  Uiso   1.00
H1168  H     0.27736   0.44576   0.68654   0.00000  Uiso   1.00
O1169  O     0.26781   0.43343   0.91408   0.00000  Uiso   1.00
H1170  H     0.27343   0.43587   0.87648   0.00000  Uiso   1.00
O1171  O     0.25947   0.40150   0.50535   0.00000  Uiso   1.00
C1172  C     0.31048   0.40084   0.99257   0.00000  Uiso   1.00
H1173  H     0.32452   0.37618   0.96245   0.00000  Uiso   1.00
H1174  H     0.32726   0.43001   0.97624   0.00000  Uiso   1.00
H1175  H     0.32216   0.39256   0.52641   0.00000  Uiso   1.00
O1176  O     0.15571   0.54593   0.58148   0.00000  Uiso   1.00
H1177  H     0.17250   0.56029   0.60393   0.00000  Uiso   1.00
O1178  O     0.04742   0.53310   0.90769   0.00000  Uiso   1.00
C1179  C     0.01541   0.49990   0.91038   0.00000  Uiso   1.00
H1180  H     0.32008   0.50086   0.94814   0.00000  Uiso   1.00
H1181  H     0.03440   0.46933   0.90317   0.00000  Uiso   1.00
H1182  H     0.33112   0.50283   0.87959   0.00000  Uiso   1.00
O1183  O     0.07842   0.51728   0.57054   0.00000  Uiso   1.00
H1184  H     0.04665   0.53165   0.58309   0.00000  Uiso   1.00
O1185  O     0.02000   0.54691   0.51231   0.00000  Uiso   1.00
C1186  C     0.02307   0.59026   0.51325   0.00000  Uiso   1.00
H1187  H     0.03420   0.60215   0.97354   0.00000  Uiso   1.00
H1188  H     0.04837   0.60117   0.53482   0.00000  Uiso   1.00
H1189  H     0.32000   0.60342   0.53352   0.00000  Uiso   1.00
O1190  O     0.23982   0.50886   0.88029   0.00000  Uiso   1.00
C1191  C     0.24243   0.54769   0.90491   0.00000  Uiso   1.00
H1192  H     0.24344   0.54497   0.94541   0.00000  Uiso   1.00
H1193  H     0.21167   0.56794   0.90385   0.00000  Uiso   1.00
H1194  H     0.27653   0.56289   0.88414   0.00000  Uiso   1.00
O1195  O     0.19888   0.62411   0.82173   0.00000  Uiso   1.00
H1196  H     0.20169   0.64361   0.84957   0.00000  Uiso   1.00
C1197  C     0.49989   0.57914   0.74980   0.00000  Uiso   1.00
C1198  C     0.47645   0.50234   0.99196   0.00000  Uiso   1.00
C1199  C     0.49180   0.49806   0.93731   0.00000  Uiso   1.00
C1200  C     0.50959   0.48957   0.51886   0.00000  Uiso   1.00
C1201  C     0.54612   0.46001   0.99413   0.00000  Uiso   1.00
C1202  C     0.56013   0.45603   0.94007   0.00000  Uiso   1.00
C1203  C     0.54014   0.48431   0.91410   0.00000  Uiso   1.00
C1204  C     0.51089   0.50778   0.56625   0.00000  Uiso   1.00
C1205  C     0.57189   0.45701   0.57129   0.00000  Uiso   1.00
C1206  C     0.45978   0.50785   0.90791   0.00000  Uiso   1.00
C1207  C     0.51914   0.64558   0.78469   0.00000  Uiso   1.00
C1208  C     0.47420   0.50186   0.85023   0.00000  Uiso   1.00
C1209  C     0.52311   0.35540   0.78222   0.00000  Uiso   1.00
C1210  C     0.49979   0.37635   0.75160   0.00000  Uiso   1.00
C1211  C     0.47634   0.35475   0.72087   0.00000  Uiso   1.00
C1212  C     0.47742   0.64545   0.71796   0.00000  Uiso   1.00
C1213  C     0.49931   0.62391   0.75005   0.00000  Uiso   1.00
C1214  C     0.63577   0.53277   0.77087   0.00000  Uiso   1.00
C1215  C     0.35139   0.53214   0.77260   0.00000  Uiso   1.00
C1216  C     0.36484   0.46814   0.72706   0.00000  Uiso   1.00
C1217  C     0.64898   0.46809   0.72696   0.00000  Uiso   1.00
C1218  C     0.49989   0.42092   0.75075   0.00000  Uiso   1.00
C1219  C     0.52593   0.49817   0.65030   0.00000  Uiso   1.00
C1220  C     0.57348   0.44062   0.52206   0.00000  Uiso   1.00
C1221  C     0.53953   0.48976   0.59409   0.00000  Uiso   1.00
C1222  C     0.41297   0.52328   0.93444   0.00000  Uiso   1.00
C1223  C     0.39901   0.53063   0.98807   0.00000  Uiso   1.00
C1224  C     0.42916   0.51787   0.51740   0.00000  Uiso   1.00
Cu1225 Cu    0.45311   0.49999   0.75000   0.00000  Uiso   1.00
Cu1226 Cu    0.54689   0.50001   0.75000   0.00000  Uiso   1.00
H1227  H     0.45915   0.37109   0.69674   0.00000  Uiso   1.00
N1228  N     0.38265   0.49999   0.74998   0.00000  Uiso   1.00
N1229  N     0.61735   0.50002   0.75000   0.00000  Uiso   1.00
O1230  O     0.46042   0.56011   0.75000   0.00000  Uiso   1.00
O1231  O     0.53961   0.56012   0.75000   0.00000  Uiso   1.00
O1232  O     0.44108   0.49998   0.82549   0.00000  Uiso   1.00
O1233  O     0.52027   0.49999   0.82549   0.00000  Uiso   1.00
O1234  O     0.46039   0.43988   0.75000   0.00000  Uiso   1.00
O1235  O     0.53958   0.43989   0.75000   0.00000  Uiso   1.00
O1236  O     0.47973   0.50001   0.67451   0.00000  Uiso   1.00
O1237  O     0.55892   0.50002   0.67451   0.00000  Uiso   1.00
O1238  O     0.60155   0.44032   0.59718   0.00000  Uiso   1.00
C1239  C     0.64442   0.46382   0.58647   0.00000  Uiso   1.00
H1240  H     0.33986   0.44506   0.59441   0.00000  Uiso   1.00
H1241  H     0.63897   0.49222   0.61149   0.00000  Uiso   1.00
H1242  H     0.65834   0.47259   0.54556   0.00000  Uiso   1.00
O1243  O     0.54762   0.37750   0.81113   0.00000  Uiso   1.00
C1244  C     0.59789   0.36900   0.79082   0.00000  Uiso   1.00
H1245  H     0.61806   0.39542   0.80079   0.00000  Uiso   1.00
H1246  H     0.61019   0.36489   0.74794   0.00000  Uiso   1.00
H1247  H     0.60815   0.34131   0.80831   0.00000  Uiso   1.00
O1248  O     0.45675   0.62663   0.68334   0.00000  Uiso   1.00
H1249  H     0.46941   0.59819   0.67531   0.00000  Uiso   1.00
O1250  O     0.60560   0.56583   0.79164   0.00000  Uiso   1.00
H1251  H     0.62477   0.58984   0.79722   0.00000  Uiso   1.00
O1252  O     0.36586   0.56415   0.79884   0.00000  Uiso   1.00
H1253  H     0.38855   0.55271   0.81573   0.00000  Uiso   1.00
O1254  O     0.39433   0.43437   0.70663   0.00000  Uiso   1.00
C1255  C     0.40854   0.43409   0.65223   0.00000  Uiso   1.00
H1256  H     0.40635   0.46479   0.63604   0.00000  Uiso   1.00
H1257  H     0.38653   0.41147   0.63767   0.00000  Uiso   1.00
H1258  H     0.44690   0.42360   0.63748   0.00000  Uiso   1.00
O1259  O     0.63459   0.43516   0.70235   0.00000  Uiso   1.00
H1260  H     0.61069   0.44576   0.68654   0.00000  Uiso   1.00
O1261  O     0.60115   0.43343   0.91408   0.00000  Uiso   1.00
H1262  H     0.60676   0.43587   0.87648   0.00000  Uiso   1.00
O1263  O     0.59280   0.40150   0.50535   0.00000  Uiso   1.00
C1264  C     0.64381   0.40084   0.99257   0.00000  Uiso   1.00
H1265  H     0.65785   0.37618   0.96245   0.00000  Uiso   1.00
H1266  H     0.66059   0.43001   0.97624   0.00000  Uiso   1.00
H1267  H     0.65549   0.39256   0.52641   0.00000  Uiso   1.00
O1268  O     0.48904   0.54593   0.58148   0.00000  Uiso   1.00
H1269  H     0.50584   0.56029   0.60393   0.00000  Uiso   1.00
O1270  O     0.38076   0.53310   0.90769   0.00000  Uiso   1.00
C1271  C     0.34874   0.49990   0.91038   0.00000  Uiso   1.00
H1272  H     0.65341   0.50086   0.94814   0.00000  Uiso   1.00
H1273  H     0.36773   0.46933   0.90317   0.00000  Uiso   1.00
H1274  H     0.66445   0.50283   0.87959   0.00000  Uiso   1.00
O1275  O     0.41175   0.51728   0.57054   0.00000  Uiso   1.00
H1276  H     0.37998   0.53165   0.58309   0.00000  Uiso   1.00
O1277  O     0.35333   0.54691   0.51231   0.00000  Uiso   1.00
C1278  C     0.35641   0.59026   0.51325   0.00000  Uiso   1.00
H1279  H     0.36753   0.60215   0.97354   0.00000  Uiso   1.00
H1280  H     0.38170   0.60117   0.53482   0.00000  Uiso   1.00
H1281  H     0.65334   0.60342   0.53352   0.00000  Uiso   1.00
O1282  O     0.57315   0.50886   0.88029   0.00000  Uiso   1.00
C1283  C     0.57576   0.54769   0.90491   0.00000  Uiso   1.00
H1284  H     0.57677   0.54497   0.94541   0.00000  Uiso   1.00
H1285  H     0.54500   0.56794   0.90385   0.00000  Uiso   1.00
H1286  H     0.60987   0.56289   0.88414   0.00000  Uiso   1.00
O1287  O     0.53221   0.62411   0.82173   0.00000  Uiso   1.00
H1288  H     0.53502   0.64361   0.84957   0.00000  Uiso   1.00
C1289  C     0.83322   0.57914   0.74980   0.00000  Uiso   1.00
C1290  C     0.80979   0.50234   0.99196   0.00000  Uiso   1.00
C1291  C     0.82514   0.49806   0.93731   0.00000  Uiso   1.00
C1292  C     0.84293   0.48957   0.51886   0.00000  Uiso   1.00
C1293  C     0.87945   0.46001   0.99413   0.00000  Uiso   1.00
C1294  C     0.89346   0.45603   0.94007   0.00000  Uiso   1.00
C1295  C     0.87348   0.48431   0.91410   0.00000  Uiso   1.00
C1296  C     0.84422   0.50778   0.56625   0.00000  Uiso   1.00
C1297  C     0.90522   0.45701   0.57129   0.00000  Uiso   1.00
C1298  C     0.79311   0.50785   0.90791   0.00000  Uiso   1.00
C1299  C     0.85247   0.64558   0.78469   0.00000  Uiso   1.00
C1300  C     0.80753   0.50186   0.85023   0.00000  Uiso   1.00
C1301  C     0.85645   0.35540   0.78222   0.00000  Uiso   1.00
C1302  C     0.83313   0.37635   0.75160   0.00000  Uiso   1.00
C1303  C     0.80968   0.35475   0.72087   0.00000  Uiso   1.00
C1304  C     0.81075   0.64545   0.71796   0.00000  Uiso   1.00
C1305  C     0.83264   0.62391   0.75005   0.00000  Uiso   1.00
C1306  C     0.96910   0.53277   0.77087   0.00000  Uiso   1.00
C1307  C     0.68472   0.53214   0.77260   0.00000  Uiso   1.00
C1308  C     0.69817   0.46814   0.72706   0.00000  Uiso   1.00
C1309  C     0.98231   0.46809   0.72696   0.00000  Uiso   1.00
C1310  C     0.83322   0.42092   0.75075   0.00000  Uiso   1.00
C1311  C     0.85927   0.49817   0.65030   0.00000  Uiso   1.00
C1312  C     0.90681   0.44062   0.52206   0.00000  Uiso   1.00
C1313  C     0.87286   0.48976   0.59409   0.00000  Uiso   1.00
C1314  C     0.74630   0.52328   0.93444   0.00000  Uiso   1.00
C1315  C     0.73235   0.53063   0.98807   0.00000  Uiso   1.00
C1316  C     0.76250   0.51787   0.51740   0.00000  Uiso   1.00
Cu1317 Cu    0.78645   0.49999   0.75000   0.00000  Uiso   1.00
Cu1318 Cu    0.88022   0.50001   0.75000   0.00000  Uiso   1.00
H1319  H     0.79248   0.37109   0.69674   0.00000  Uiso   1.00
N1320  N     0.71598   0.49999   0.74998   0.00000  Uiso   1.00
N1321  N     0.95069   0.50002   0.75000   0.00000  Uiso   1.00
O1322  O     0.79375   0.56011   0.75000   0.00000  Uiso   1.00
O1323  O     0.87294   0.56012   0.75000   0.00000  Uiso   1.00
O1324  O     0.77441   0.49998   0.82549   0.00000  Uiso   1.00
O1325  O     0.85360   0.49999   0.82549   0.00000  Uiso   1.00
O1326  O     0.79373   0.43988   0.75000   0.00000  Uiso   1.00
O1327  O     0.87292   0.43989   0.75000   0.00000  Uiso   1.00
O1328  O     0.81306   0.50001   0.67451   0.00000  Uiso   1.00
O1329  O     0.89225   0.50002   0.67451   0.00000  Uiso   1.00
O1330  O     0.93489   0.44032   0.59718   0.00000  Uiso   1.00
C1331  C     0.97775   0.46382   0.58647   0.00000  Uiso   1.00
H1332  H     0.67320   0.44506   0.59441   0.00000  Uiso   1.00
H1333  H     0.97231   0.49222   0.61149   0.00000  Uiso   1.00
H1334  H     0.99168   0.47259   0.54556   0.00000  Uiso   1.00
O1335  O     0.88095   0.37750   0.81113   0.00000  Uiso   1.00
C1336  C     0.93122   0.36900   0.79082   0.00000  Uiso   1.00
H1337  H     0.95140   0.39542   0.80079   0.00000  Uiso   1.00
H1338  H     0.94352   0.36489   0.74794   0.00000  Uiso   1.00
H1339  H     0.94148   0.34131   0.80831   0.00000  Uiso   1.00
O1340  O     0.79008   0.62663   0.68334   0.00000  Uiso   1.00
H1341  H     0.80275   0.59819   0.67531   0.00000  Uiso   1.00
O1342  O     0.93893   0.56583   0.79164   0.00000  Uiso   1.00
H1343  H     0.95810   0.58984   0.79722   0.00000  Uiso   1.00
O1344  O     0.69920   0.56415   0.79884   0.00000  Uiso   1.00
H1345  H     0.72188   0.55271   0.81573   0.00000  Uiso   1.00
O1346  O     0.72767   0.43437   0.70663   0.00000  Uiso   1.00
C1347  C     0.74188   0.43409   0.65223   0.00000  Uiso   1.00
H1348  H     0.73968   0.46479   0.63604   0.00000  Uiso   1.00
H1349  H     0.71986   0.41147   0.63767   0.00000  Uiso   1.00
H1350  H     0.78024   0.42360   0.63748   0.00000  Uiso   1.00
O1351  O     0.96792   0.43516   0.70235   0.00000  Uiso   1.00
H1352  H     0.94403   0.44576   0.68654   0.00000  Uiso   1.00
O1353  O     0.93448   0.43343   0.91408   0.00000  Uiso   1.00
H1354  H     0.94010   0.43587   0.87648   0.00000  Uiso   1.00
O1355  O     0.92614   0.40150   0.50535   0.00000  Uiso   1.00
C1356  C     0.97715   0.40084   0.99257   0.00000  Uiso   1.00
H1357  H     0.99119   0.37618   0.96245   0.00000  Uiso   1.00
H1358  H     0.99392   0.43001   0.97624   0.00000  Uiso   1.00
H1359  H     0.98882   0.39256   0.52641   0.00000  Uiso   1.00
O1360  O     0.82237   0.54593   0.58148   0.00000  Uiso   1.00
H1361  H     0.83917   0.56029   0.60393   0.00000  Uiso   1.00
O1362  O     0.71409   0.53310   0.90769   0.00000  Uiso   1.00
C1363  C     0.68208   0.49990   0.91038   0.00000  Uiso   1.00
H1364  H     0.98675   0.50086   0.94814   0.00000  Uiso   1.00
H1365  H     0.70106   0.46933   0.90317   0.00000  Uiso   1.00
H1366  H     0.99779   0.50283   0.87959   0.00000  Uiso   1.00
O1367  O     0.74509   0.51728   0.57054   0.00000  Uiso   1.00
H1368  H     0.71331   0.53165   0.58309   0.00000  Uiso   1.00
O1369  O     0.68666   0.54691   0.51231   0.00000  Uiso   1.00
C1370  C     0.68974   0.59026   0.51325   0.00000  Uiso   1.00
H1371  H     0.70086   0.60215   0.97354   0.00000  Uiso   1.00
H1372  H     0.71503   0.60117   0.53482   0.00000  Uiso   1.00
H1373  H     0.98667   0.60342   0.53352   0.00000  Uiso   1.00
O1374  O     0.90648   0.50886   0.88029   0.00000  Uiso   1.00
C1375  C     0.90910   0.54769   0.90491   0.00000  Uiso   1.00
H1376  H     0.91011   0.54497   0.94541   0.00000  Uiso   1.00
H1377  H     0.87833   0.56794   0.90385   0.00000  Uiso   1.00
H1378  H     0.94320   0.56289   0.88414   0.00000  Uiso   1.00
O1379  O     0.86555   0.62411   0.82173   0.00000  Uiso   1.00
H1380  H     0.86836   0.64361   0.84957   0.00000  Uiso   1.00
C1381  C     0.16655   0.91247   0.74980   0.00000  Uiso   1.00
C1382  C     0.14312   0.83567   0.99196   0.00000  Uiso   1.00
C1383  C     0.15847   0.83139   0.93731   0.00000  Uiso   1.00
C1384  C     0.17626   0.82290   0.51886   0.00000  Uiso   1.00
C1385  C     0.21278   0.79334   0.99413   0.00000  Uiso   1.00
C1386  C     0.22679   0.78936   0.94007   0.00000  Uiso   1.00
C1387  C     0.20681   0.81765   0.91410   0.00000  Uiso   1.00
C1388  C     0.17756   0.84111   0.56625   0.00000  Uiso   1.00
C1389  C     0.23856   0.79034   0.57129   0.00000  Uiso   1.00
C1390  C     0.12645   0.84119   0.90791   0.00000  Uiso   1.00
C1391  C     0.18580   0.97892   0.78469   0.00000  Uiso   1.00
C1392  C     0.14086   0.83520   0.85023   0.00000  Uiso   1.00
C1393  C     0.18978   0.68874   0.78222   0.00000  Uiso   1.00
C1394  C     0.16646   0.70968   0.75160   0.00000  Uiso   1.00
C1395  C     0.14301   0.68808   0.72087   0.00000  Uiso   1.00
C1396  C     0.14409   0.97879   0.71796   0.00000  Uiso   1.00
C1397  C     0.16598   0.95724   0.75005   0.00000  Uiso   1.00
C1398  C     0.30243   0.86611   0.77087   0.00000  Uiso   1.00
C1399  C     0.01806   0.86547   0.77260   0.00000  Uiso   1.00
C1400  C     0.03151   0.80147   0.72706   0.00000  Uiso   1.00
C1401  C     0.31564   0.80142   0.72696   0.00000  Uiso   1.00
C1402  C     0.16656   0.75425   0.75075   0.00000  Uiso   1.00
C1403  C     0.19260   0.83150   0.65030   0.00000  Uiso   1.00
C1404  C     0.24015   0.77395   0.52206   0.00000  Uiso   1.00
C1405  C     0.20619   0.82309   0.59409   0.00000  Uiso   1.00
C1406  C     0.07963   0.85662   0.93444   0.00000  Uiso   1.00
C1407  C     0.06568   0.86397   0.98807   0.00000  Uiso   1.00
C1408  C     0.09583   0.85120   0.51740   0.00000  Uiso   1.00
Cu1409 Cu    0.11978   0.83333   0.75000   0.00000  Uiso   1.00
Cu1410 Cu    0.21355   0.83334   0.75000   0.00000  Uiso   1.00
H1411  H     0.12581   0.70442   0.69674   0.00000  Uiso   1.00
N1412  N     0.04931   0.83332   0.74998   0.00000  Uiso   1.00
N1413  N     0.28402   0.83335   0.75000   0.00000  Uiso   1.00
O1414  O     0.12708   0.89345   0.75000   0.00000  Uiso   1.00
O1415  O     0.20627   0.89346   0.75000   0.00000  Uiso   1.00
O1416  O     0.10775   0.83332   0.82549   0.00000  Uiso   1.00
O1417  O     0.18694   0.83333   0.82549   0.00000  Uiso   1.00
O1418  O     0.12706   0.77321   0.75000   0.00000  Uiso   1.00
O1419  O     0.20625   0.77322   0.75000   0.00000  Uiso   1.00
O1420  O     0.14640   0.83334   0.67451   0.00000  Uiso   1.00
O1421  O     0.22559   0.83335   0.67451   0.00000  Uiso   1.00
O1422  O     0.26822   0.77365   0.59718   0.00000  Uiso   1.00
C1423  C     0.31108   0.79716   0.58647   0.00000  Uiso   1.00
H1424  H     0.00653   0.77839   0.59441   0.00000  Uiso   1.00
H1425  H     0.30564   0.82556   0.61149   0.00000  Uiso   1.00
H1426  H     0.32501   0.80592   0.54556   0.00000  Uiso   1.00
O1427  O     0.21429   0.71083   0.81113   0.00000  Uiso   1.00
C1428  C     0.26455   0.70234   0.79082   0.00000  Uiso   1.00
H1429  H     0.28473   0.72875   0.80079   0.00000  Uiso   1.00
H1430  H     0.27685   0.69823   0.74794   0.00000  Uiso   1.00
H1431  H     0.27481   0.67465   0.80831   0.00000  Uiso   1.00
O1432  O     0.12342   0.95996   0.68334   0.00000  Uiso   1.00
H1433  H     0.13608   0.93152   0.67531   0.00000  Uiso   1.00
O1434  O     0.27226   0.89916   0.79164   0.00000  Uiso   1.00
H1435  H     0.29144   0.92317   0.79722   0.00000  Uiso   1.00
O1436  O     0.03253   0.89749   0.79884   0.00000  Uiso   1.00
H1437  H     0.05522   0.88604   0.81573   0.00000  Uiso   1.00
O1438  O     0.06100   0.76771   0.70663   0.00000  Uiso   1.00
C1439  C     0.07521   0.76742   0.65223   0.00000  Uiso   1.00
H1440  H     0.07302   0.79813   0.63604   0.00000  Uiso   1.00
H1441  H     0.05319   0.74480   0.63767   0.00000  Uiso   1.00
H1442  H     0.11357   0.75693   0.63748   0.00000  Uiso   1.00
O1443  O     0.30126   0.76850   0.70235   0.00000  Uiso   1.00
H1444  H     0.27736   0.77909   0.68654   0.00000  Uiso   1.00
O1445  O     0.26781   0.76676   0.91408   0.00000  Uiso   1.00
H1446  H     0.27343   0.76920   0.87648   0.00000  Uiso   1.00
O1447  O     0.25947   0.73483   0.50535   0.00000  Uiso   1.00
C1448  C     0.31048   0.73417   0.99257   0.00000  Uiso   1.00
H1449  H     0.32452   0.70952   0.96245   0.00000  Uiso   1.00
H1450  H     0.32726   0.76335   0.97624   0.00000  Uiso   1.00
H1451  H     0.32216   0.72589   0.52641   0.00000  Uiso   1.00
O1452  O     0.15571   0.87926   0.58148   0.00000  Uiso   1.00
H1453  H     0.17250   0.89362   0.60393   0.00000  Uiso   1.00
O1454  O     0.04742   0.86643   0.90769   0.00000  Uiso   1.00
C1455  C     0.01541   0.83323   0.91038   0.00000  Uiso   1.00
H1456  H     0.32008   0.83419   0.94814   0.00000  Uiso   1.00
H1457  H     0.03440   0.80266   0.90317   0.00000  Uiso   1.00
H1458  H     0.33112   0.83616   0.87959   0.00000  Uiso   1.00
O1459  O     0.07842   0.85062   0.57054   0.00000  Uiso   1.00
H1460  H     0.04665   0.86498   0.58309   0.00000  Uiso   1.00
O1461  O     0.02000   0.88024   0.51231   0.00000  Uiso   1.00
C1462  C     0.02307   0.92360   0.51325   0.00000  Uiso   1.00
H1463  H     0.03420   0.93549   0.97354   0.00000  Uiso   1.00
H1464  H     0.04837   0.93450   0.53482   0.00000  Uiso   1.00
H1465  H     0.32000   0.93675   0.53352   0.00000  Uiso   1.00
O1466  O     0.23982   0.84220   0.88029   0.00000  Uiso   1.00
C1467  C     0.24243   0.88102   0.90491   0.00000  Uiso   1.00
H1468  H     0.24344   0.87831   0.94541   0.00000  Uiso   1.00
H1469  H     0.21167   0.90127   0.90385   0.00000  Uiso   1.00
H1470  H     0.27653   0.89623   0.88414   0.00000  Uiso   1.00
O1471  O     0.19888   0.95744   0.82173   0.00000  Uiso   1.00
H1472  H     0.20169   0.97695   0.84957   0.00000  Uiso   1.00
C1473  C     0.49989   0.91247   0.74980   0.00000  Uiso   1.00
C1474  C     0.47645   0.83567   0.99196   0.00000  Uiso   1.00
C1475  C     0.49180   0.83139   0.93731   0.00000  Uiso   1.00
C1476  C     0.50959   0.82290   0.51886   0.00000  Uiso   1.00
C1477  C     0.54612   0.79334   0.99413   0.00000  Uiso   1.00
C1478  C     0.56013   0.78936   0.94007   0.00000  Uiso   1.00
C1479  C     0.54014   0.81765   0.91410   0.00000  Uiso   1.00
C1480  C     0.51089   0.84111   0.56625   0.00000  Uiso   1.00
C1481  C     0.57189   0.79034   0.57129   0.00000  Uiso   1.00
C1482  C     0.45978   0.84119   0.90791   0.00000  Uiso   1.00
C1483  C     0.51914   0.97892   0.78469   0.00000  Uiso   1.00
C1484  C     0.47420   0.83520   0.85023   0.00000  Uiso   1.00
C1485  C     0.52311   0.68874   0.78222   0.00000  Uiso   1.00
C1486  C     0.49979   0.70968   0.75160   0.00000  Uiso   1.00
C1487  C     0.47634   0.68808   0.72087   0.00000  Uiso   1.00
C1488  C     0.47742   0.97879   0.71796   0.00000  Uiso   1.00
C1489  C     0.49931   0.95724   0.75005   0.00000  Uiso   1.00
C1490  C     0.63577   0.86611   0.77087   0.00000  Uiso   1.00
C1491  C     0.35139   0.86547   0.77260   0.00000  Uiso   1.00
C1492  C     0.36484   0.80147   0.72706   0.00000  Uiso   1.00
C1493  C     0.64898   0.80142   0.72696   0.00000  Uiso   1.00
C1494  C     0.49989   0.75425   0.75075   0.00000  Uiso   1.00
C1495  C     0.52593   0.83150   0.65030   0.00000  Uiso   1.00
C1496  C     0.57348   0.77395   0.52206   0.00000  Uiso   1.00
C1497  C     0.53953   0.82309   0.59409   0.00000  Uiso   1.00
C1498  C     0.41297   0.85662   0.93444   0.00000  Uiso   1.00
C1499  C     0.39901   0.86397   0.98807   0.00000  Uiso   1.00
C1500  C     0.42916   0.85120   0.51740   0.00000  Uiso   1.00
Cu1501 Cu    0.45311   0.83333   0.75000   0.00000  Uiso   1.00
Cu1502 Cu    0.54689   0.83334   0.75000   0.00000  Uiso   1.00
H1503  H     0.45915   0.70442   0.69674   0.00000  Uiso   1.00
N1504  N     0.38265   0.83332   0.74998   0.00000  Uiso   1.00
N1505  N     0.61735   0.83335   0.75000   0.00000  Uiso   1.00
O1506  O     0.46042   0.89345   0.75000   0.00000  Uiso   1.00
O1507  O     0.53961   0.89346   0.75000   0.00000  Uiso   1.00
O1508  O     0.44108   0.83332   0.82549   0.00000  Uiso   1.00
O1509  O     0.52027   0.83333   0.82549   0.00000  Uiso   1.00
O1510  O     0.46039   0.77321   0.75000   0.00000  Uiso   1.00
O1511  O     0.53958   0.77322   0.75000   0.00000  Uiso   1.00
O1512  O     0.47973   0.83334   0.67451   0.00000  Uiso   1.00
O1513  O     0.55892   0.83335   0.67451   0.00000  Uiso   1.00
O1514  O     0.60155   0.77365   0.59718   0.00000  Uiso   1.00
C1515  C     0.64442   0.79716   0.58647   0.00000  Uiso   1.00
H1516  H     0.33986   0.77839   0.59441   0.00000  Uiso   1.00
H1517  H     0.63897   0.82556   0.61149   0.00000  Uiso   1.00
H1518  H     0.65834   0.80592   0.54556   0.00000  Uiso   1.00
O1519  O     0.54762   0.71083   0.81113   0.00000  Uiso   1.00
C1520  C     0.59789   0.70234   0.79082   0.00000  Uiso   1.00
H1521  H     0.61806   0.72875   0.80079   0.00000  Uiso   1.00
H1522  H     0.61019   0.69823   0.74794   0.00000  Uiso   1.00
H1523  H     0.60815   0.67465   0.80831   0.00000  Uiso   1.00
O1524  O     0.45675   0.95996   0.68334   0.00000  Uiso   1.00
H1525  H     0.46941   0.93152   0.67531   0.00000  Uiso   1.00
O1526  O     0.60560   0.89916   0.79164   0.00000  Uiso   1.00
H1527  H     0.62477   0.92317   0.79722   0.00000  Uiso   1.00
O1528  O     0.36586   0.89749   0.79884   0.00000  Uiso   1.00
H1529  H     0.38855   0.88604   0.81573   0.00000  Uiso   1.00
O1530  O     0.39433   0.76771   0.70663   0.00000  Uiso   1.00
C1531  C     0.40854   0.76742   0.65223   0.00000  Uiso   1.00
H1532  H     0.40635   0.79813   0.63604   0.00000  Uiso   1.00
H1533  H     0.38653   0.74480   0.63767   0.00000  Uiso   1.00
H1534  H     0.44690   0.75693   0.63748   0.00000  Uiso   1.00
O1535  O     0.63459   0.76850   0.70235   0.00000  Uiso   1.00
H1536  H     0.61069   0.77909   0.68654   0.00000  Uiso   1.00
O1537  O     0.60115   0.76676   0.91408   0.00000  Uiso   1.00
H1538  H     0.60676   0.76920   0.87648   0.00000  Uiso   1.00
O1539  O     0.59280   0.73483   0.50535   0.00000  Uiso   1.00
C1540  C     0.64381   0.73417   0.99257   0.00000  Uiso   1.00
H1541  H     0.65785   0.70952   0.96245   0.00000  Uiso   1.00
H1542  H     0.66059   0.76335   0.97624   0.00000  Uiso   1.00
H1543  H     0.65549   0.72589   0.52641   0.00000  Uiso   1.00
O1544  O     0.48904   0.87926   0.58148   0.00000  Uiso   1.00
H1545  H     0.50584   0.89362   0.60393   0.00000  Uiso   1.00
O1546  O     0.38076   0.86643   0.90769   0.00000  Uiso   1.00
C1547  C     0.34874   0.83323   0.91038   0.00000  Uiso   1.00
H1548  H     0.65341   0.83419   0.94814   0.00000  Uiso   1.00
H1549  H     0.36773   0.80266   0.90317   0.00000  Uiso   1.00
H1550  H     0.66445   0.83616   0.87959   0.00000  Uiso   1.00
O1551  O     0.41175   0.85062   0.57054   0.00000  Uiso   1.00
H1552  H     0.37998   0.86498   0.58309   0.00000  Uiso   1.00
O1553  O     0.35333   0.88024   0.51231   0.00000  Uiso   1.00
C1554  C     0.35641   0.92360   0.51325   0.00000  Uiso   1.00
H1555  H     0.36753   0.93549   0.97354   0.00000  Uiso   1.00
H1556  H     0.38170   0.93450   0.53482   0.00000  Uiso   1.00
H1557  H     0.65334   0.93675   0.53352   0.00000  Uiso   1.00
O1558  O     0.57315   0.84220   0.88029   0.00000  Uiso   1.00
C1559  C     0.57576   0.88102   0.90491   0.00000  Uiso   1.00
H1560  H     0.57677   0.87831   0.94541   0.00000  Uiso   1.00
H1561  H     0.54500   0.90127   0.90385   0.00000  Uiso   1.00
H1562  H     0.60987   0.89623   0.88414   0.00000  Uiso   1.00
O1563  O     0.53221   0.95744   0.82173   0.00000  Uiso   1.00
H1564  H     0.53502   0.97695   0.84957   0.00000  Uiso   1.00
C1565  C     0.83322   0.91247   0.74980   0.00000  Uiso   1.00
C1566  C     0.80979   0.83567   0.99196   0.00000  Uiso   1.00
C1567  C     0.82514   0.83139   0.93731   0.00000  Uiso   1.00
C1568  C     0.84293   0.82290   0.51886   0.00000  Uiso   1.00
C1569  C     0.87945   0.79334   0.99413   0.00000  Uiso   1.00
C1570  C     0.89346   0.78936   0.94007   0.00000  Uiso   1.00
C1571  C     0.87348   0.81765   0.91410   0.00000  Uiso   1.00
C1572  C     0.84422   0.84111   0.56625   0.00000  Uiso   1.00
C1573  C     0.90522   0.79034   0.57129   0.00000  Uiso   1.00
C1574  C     0.79311   0.84119   0.90791   0.00000  Uiso   1.00
C1575  C     0.85247   0.97892   0.78469   0.00000  Uiso   1.00
C1576  C     0.80753   0.83520   0.85023   0.00000  Uiso   1.00
C1577  C     0.85645   0.68874   0.78222   0.00000  Uiso   1.00
C1578  C     0.83313   0.70968   0.75160   0.00000  Uiso   1.00
C1579  C     0.80968   0.68808   0.72087   0.00000  Uiso   1.00
C1580  C     0.81075   0.97879   0.71796   0.00000  Uiso   1.00
C1581  C     0.83264   0.95724   0.75005   0.00000  Uiso   1.00
C1582  C     0.96910   0.86611   0.77087   0.00000  Uiso   1.00
C1583  C     0.68472   0.86547   0.77260   0.00000  Uiso   1.00
C1584  C     0.69817   0.80147   0.72706   0.00000  Uiso   1.00
C1585  C     0.98231   0.80142   0.72696   0.00000  Uiso   1.00
C1586  C     0.83322   0.75425   0.75075   0.00000  Uiso   1.00
C1587  C     0.85927   0.83150   0.65030   0.00000  Uiso   1.00
C1588  C     0.90681   0.77395   0.52206   0.00000  Uiso   1.00
C1589  C     0.87286   0.82309   0.59409   0.00000  Uiso   1.00
C1590  C     0.74630   0.85662   0.93444   0.00000  Uiso   1.00
C1591  C     0.73235   0.86397   0.98807   0.00000  Uiso   1.00
C1592  C     0.76250   0.85120   0.51740   0.00000  Uiso   1.00
Cu1593 Cu    0.78645   0.83333   0.75000   0.00000  Uiso   1.00
Cu1594 Cu    0.88022   0.83334   0.75000   0.00000  Uiso   1.00
H1595  H     0.79248   0.70442   0.69674   0.00000  Uiso   1.00
N1596  N     0.71598   0.83332   0.74998   0.00000  Uiso   1.00
N1597  N     0.95069   0.83335   0.75000   0.00000  Uiso   1.00
O1598  O     0.79375   0.89345   0.75000   0.00000  Uiso   1.00
O1599  O     0.87294   0.89346   0.75000   0.00000  Uiso   1.00
O1600  O     0.77441   0.83332   0.82549   0.00000  Uiso   1.00
O1601  O     0.85360   0.83333   0.82549   0.00000  Uiso   1.00
O1602  O     0.79373   0.77321   0.75000   0.00000  Uiso   1.00
O1603  O     0.87292   0.77322   0.75000   0.00000  Uiso   1.00
O1604  O     0.81306   0.83334   0.67451   0.00000  Uiso   1.00
O1605  O     0.89225   0.83335   0.67451   0.00000  Uiso   1.00
O1606  O     0.93489   0.77365   0.59718   0.00000  Uiso   1.00
C1607  C     0.97775   0.79716   0.58647   0.00000  Uiso   1.00
H1608  H     0.67320   0.77839   0.59441   0.00000  Uiso   1.00
H1609  H     0.97231   0.82556   0.61149   0.00000  Uiso   1.00
H1610  H     0.99168   0.80592   0.54556   0.00000  Uiso   1.00
O1611  O     0.88095   0.71083   0.81113   0.00000  Uiso   1.00
C1612  C     0.93122   0.70234   0.79082   0.00000  Uiso   1.00
H1613  H     0.95140   0.72875   0.80079   0.00000  Uiso   1.00
H1614  H     0.94352   0.69823   0.74794   0.00000  Uiso   1.00
H1615  H     0.94148   0.67465   0.80831   0.00000  Uiso   1.00
O1616  O     0.79008   0.95996   0.68334   0.00000  Uiso   1.00
H1617  H     0.80275   0.93152   0.67531   0.00000  Uiso   1.00
O1618  O     0.93893   0.89916   0.79164   0.00000  Uiso   1.00
H1619  H     0.95810   0.92317   0.79722   0.00000  Uiso   1.00
O1620  O     0.69920   0.89749   0.79884   0.00000  Uiso   1.00
H1621  H     0.72188   0.88604   0.81573   0.00000  Uiso   1.00
O1622  O     0.72767   0.76771   0.70663   0.00000  Uiso   1.00
C1623  C     0.74188   0.76742   0.65223   0.00000  Uiso   1.00
H1624  H     0.73968   0.79813   0.63604   0.00000  Uiso   1.00
H1625  H     0.71986   0.74480   0.63767   0.00000  Uiso   1.00
H1626  H     0.78024   0.75693   0.63748   0.00000  Uiso   1.00
O1627  O     0.96792   0.76850   0.70235   0.00000  Uiso   1.00
H1628  H     0.94403   0.77909   0.68654   0.00000  Uiso   1.00
O1629  O     0.93448   0.76676   0.91408   0.00000  Uiso   1.00
H1630  H     0.94010   0.76920   0.87648   0.00000  Uiso   1.00
O1631  O     0.92614   0.73483   0.50535   0.00000  Uiso   1.00
C1632  C     0.97715   0.73417   0.99257   0.00000  Uiso   1.00
H1633  H     0.99119   0.70952   0.96245   0.00000  Uiso   1.00
H1634  H     0.99392   0.76335   0.97624   0.00000  Uiso   1.00
H1635  H     0.98882   0.72589   0.52641   0.00000  Uiso   1.00
O1636  O     0.82237   0.87926   0.58148   0.00000  Uiso   1.00
H1637  H     0.83917   0.89362   0.60393   0.00000  Uiso   1.00
O1638  O     0.71409   0.86643   0.90769   0.00000  Uiso   1.00
C1639  C     0.68208   0.83323   0.91038   0.00000  Uiso   1.00
H1640  H     0.98675   0.83419   0.94814   0.00000  Uiso   1.00
H1641  H     0.70106   0.80266   0.90317   0.00000  Uiso   1.00
H1642  H     0.99779   0.83616   0.87959   0.00000  Uiso   1.00
O1643  O     0.74509   0.85062   0.57054   0.00000  Uiso   1.00
H1644  H     0.71331   0.86498   0.58309   0.00000  Uiso   1.00
O1645  O     0.68666   0.88024   0.51231   0.00000  Uiso   1.00
C1646  C     0.68974   0.92360   0.51325   0.00000  Uiso   1.00
H1647  H     0.70086   0.93549   0.97354   0.00000  Uiso   1.00
H1648  H     0.71503   0.93450   0.53482   0.00000  Uiso   1.00
H1649  H     0.98667   0.93675   0.53352   0.00000  Uiso   1.00
O1650  O     0.90648   0.84220   0.88029   0.00000  Uiso   1.00
C1651  C     0.90910   0.88102   0.90491   0.00000  Uiso   1.00
H1652  H     0.91011   0.87831   0.94541   0.00000  Uiso   1.00
H1653  H     0.87833   0.90127   0.90385   0.00000  Uiso   1.00
H1654  H     0.94320   0.89623   0.88414   0.00000  Uiso   1.00
O1655  O     0.86555   0.95744   0.82173   0.00000  Uiso   1.00
H1656  H     0.86836   0.97695   0.84957   0.00000  Uiso   1.00
loop_
_geom_bond_atom_site_label_1
_geom_bond_atom_site_label_2
_geom_bond_distance
_geom_bond_site_symmetry_2
_ccdc_geom_bond_type
C1     O34     1.296   .     A
C1     O35     1.303   .     A
C1     C17     1.452   .     S
C2     C3      1.419   .     A
C2     C832    1.432   .     S
C2     C856    1.419   .     S
C3     C7      1.415   .     A
C3     C10     1.430   .     A
C4     C8      1.408   .     A
C4     C830    1.432   1_554 S
C4     C833    1.420   1_554 S
C5     C6      1.404   .     A
C5     C832    1.420   .     S
C5     C852    1.407   .     S
C6     O65     1.381   .     S
C6     C7      1.398   .     A
C7     O86     1.387   .     S
C8     C25     1.412   .     A
C8     O72     1.381   .     S
C9     C25     1.412   .     A
C9     O42     1.378   .     S
C9     C24     1.409   .     A
C10    C26     1.412   .     A
C10    C12     1.502   .     S
C11    C17     1.407   .     A
C11    O91     1.382   .     S
C11    C289    1.407   .     S
C12    O37     1.302   .     A
C12    O36     1.321   .     A
C13    C14     1.405   .     A
C13    O47     1.386   .     S
C13    C563    1.407   1_545 S
C14    C22     1.447   .     S
C14    C15     1.393   .     A
C15    H31     1.082   .     S
C15    C568    1.382   1_545 S
C16    C17     1.418   .     A
C16    O52     1.380   .     S
C16    C291    1.382   .     S
C18    N33     1.368   .     A
C18    O54     1.375   .     S
C18    C111    1.428   .     S
C19    O56     1.374   .     S
C19    N32     1.380   .     A
C19    C202    1.428   1_455 S
C20    O58     1.381   .     S
C20    N32     1.366   .     A
C20    C205    1.421   1_455 S
C21    N33     1.383   .     A
C21    O63     1.370   .     S
C21    C112    1.421   .     S
C22    O38     1.300   .     A
C22    O39     1.297   .     A
C23    O40     1.302   .     A
C23    O41     1.307   .     A
C23    C25     1.474   .     S
C24    O67     1.391   .     S
C24    C833    1.407   1_554 S
C26    C27     1.403   .     A
C26    O74     1.381   .     S
C27    C856    1.412   .     S
C27    O909    1.383   .     S
C28    O79     1.382   .     S
C28    C855    1.412   1_554 S
C28    C830    1.419   1_554 S
Cu29   O36     1.975   .     S
Cu29   N32     2.035   .     S
Cu29   O38     1.961   .     S
Cu29   O34     1.962   .     S
Cu29   Cu30    2.708   .     S
Cu29   O40     1.965   .     S
Cu30   O35     1.961   .     S
Cu30   O41     1.975   .     S
Cu30   O37     1.965   .     S
Cu30   N33     2.035   .     S
Cu30   O39     1.962   .     S
O42    C43     1.416   .     S
C43    H45     1.108   .     S
C43    H46     1.111   .     S
C43    H136    1.105   .     S
H44    C227    1.105   1_455 S
O47    C48     1.415   .     S
C48    H50     1.115   .     S
C48    H51     1.110   .     S
C48    H49     1.107   .     S
O52    H53     0.985   .     S
O54    H55     0.990   .     S
O56    H57     0.982   .     S
O58    C59     1.411   .     S
C59    H60     1.111   .     S
C59    H61     1.109   .     S
C59    H62     1.109   .     S
O63    H64     0.981   .     S
O65    H66     0.991   .     S
O67    C896    1.410   1_554 S
C68    H69     1.109   .     S
C68    H70     1.110   .     S
C68    O895    1.410   .     S
C68    H899    1.109   .     S
H71    C896    1.109   1_554 S
O72    H73     0.990   .     S
O74    C75     1.411   .     S
C75    H77     1.115   .     S
C75    H260    1.111   1_455 S
C75    H262    1.106   1_455 S
H76    C167    1.111   .     S
H78    C167    1.106   .     S
O79    H80     0.989   .     S
O81    C82     1.409   .     S
O81    C855    1.383   1_554 S
C82    H84     1.114   .     S
C82    H911    1.113   1_554 S
C82    H269    1.109   1_455 S
H83    C910    1.113   .     S
H85    C174    1.109   .     S
O86    C87     1.418   .     S
C87    H88     1.115   .     S
C87    H89     1.111   .     S
C87    H90     1.107   .     S
O91    H92     0.990   .     S
C93    O126    1.296   .     A
C93    O127    1.303   .     A
C93    C109    1.452   .     S
C94    C95     1.419   .     A
C94    C924    1.432   .     S
C94    C948    1.419   .     S
C95    C99     1.415   .     A
C95    C102    1.430   .     A
C96    C100    1.408   .     A
C96    C922    1.432   1_554 S
C96    C925    1.420   1_554 S
C97    C98     1.404   .     A
C97    C924    1.420   .     S
C97    C944    1.407   .     S
C98    O157    1.381   .     S
C98    C99     1.398   .     A
C99    O178    1.387   .     S
C100   C117    1.412   .     A
C100   O164    1.381   .     S
C101   C117    1.412   .     A
C101   O134    1.378   .     S
C101   C116    1.409   .     A
C102   C118    1.412   .     A
C102   C104    1.502   .     S
C103   C109    1.407   .     A
C103   O183    1.382   .     S
C103   C381    1.407   .     S
C104   O129    1.302   .     A
C104   O128    1.321   .     A
C105   C106    1.405   .     A
C105   O139    1.386   .     S
C105   C655    1.407   1_545 S
C106   C114    1.447   .     S
C106   C107    1.393   .     A
C107   H123    1.082   .     S
C107   C660    1.382   1_545 S
C108   C109    1.418   .     A
C108   O144    1.380   .     S
C108   C383    1.382   .     S
C110   N125    1.368   .     A
C110   O146    1.375   .     S
C110   C203    1.428   .     S
C111   O148    1.374   .     S
C111   N124    1.380   .     A
C112   O150    1.381   .     S
C112   N124    1.366   .     A
C113   N125    1.383   .     A
C113   O155    1.370   .     S
C113   C204    1.421   .     S
C114   O130    1.300   .     A
C114   O131    1.297   .     A
C115   O132    1.302   .     A
C115   O133    1.307   .     A
C115   C117    1.474   .     S
C116   O159    1.391   .     S
C116   C925    1.407   1_554 S
C118   C119    1.403   .     A
C118   O166    1.381   .     S
C119   C948    1.412   .     S
C119   O1001   1.383   .     S
C120   O171    1.382   .     S
C120   C947    1.412   1_554 S
C120   C922    1.419   1_554 S
Cu121  O128    1.975   .     S
Cu121  N124    2.035   .     S
Cu121  O130    1.961   .     S
Cu121  O126    1.962   .     S
Cu121  Cu122   2.708   .     S
Cu121  O132    1.965   .     S
Cu122  O127    1.961   .     S
Cu122  O133    1.975   .     S
Cu122  O129    1.965   .     S
Cu122  N125    2.035   .     S
Cu122  O131    1.962   .     S
O134   C135    1.416   .     S
C135   H137    1.108   .     S
C135   H138    1.111   .     S
C135   H228    1.105   .     S
O139   C140    1.415   .     S
C140   H142    1.115   .     S
C140   H143    1.110   .     S
C140   H141    1.107   .     S
O144   H145    0.985   .     S
O146   H147    0.990   .     S
O148   H149    0.982   .     S
O150   C151    1.411   .     S
C151   H152    1.111   .     S
C151   H153    1.109   .     S
C151   H154    1.109   .     S
O155   H156    0.981   .     S
O157   H158    0.991   .     S
O159   C988    1.410   1_554 S
C160   H161    1.109   .     S
C160   H162    1.110   .     S
C160   O987    1.410   .     S
C160   H991    1.109   .     S
H163   C988    1.109   1_554 S
O164   H165    0.990   .     S
O166   C167    1.411   .     S
C167   H169    1.115   .     S
H168   C259    1.111   .     S
H170   C259    1.106   .     S
O171   H172    0.989   .     S
O173   C174    1.409   .     S
O173   C947    1.383   1_554 S
C174   H176    1.114   .     S
C174   H1003   1.113   1_554 S
H175   C1002   1.113   .     S
H177   C266    1.109   .     S
O178   C179    1.418   .     S
C179   H180    1.115   .     S
C179   H181    1.111   .     S
C179   H182    1.107   .     S
O183   H184    0.990   .     S
C185   O218    1.296   .     A
C185   O219    1.303   .     A
C185   C201    1.452   .     S
C186   C187    1.419   .     A
C186   C1016   1.432   .     S
C186   C1040   1.419   .     S
C187   C191    1.415   .     A
C187   C194    1.430   .     A
C188   C192    1.408   .     A
C188   C1014   1.432   1_554 S
C188   C1017   1.420   1_554 S
C189   C190    1.404   .     A
C189   C1016   1.420   .     S
C189   C1036   1.407   .     S
C190   O249    1.381   .     S
C190   C191    1.398   .     A
C191   O270    1.387   .     S
C192   C209    1.412   .     A
C192   O256    1.381   .     S
C193   C209    1.412   .     A
C193   O226    1.378   .     S
C193   C208    1.409   .     A
C194   C210    1.412   .     A
C194   C196    1.502   .     S
C195   C201    1.407   .     A
C195   O275    1.382   .     S
C195   C473    1.407   .     S
C196   O221    1.302   .     A
C196   O220    1.321   .     A
C197   C198    1.405   .     A
C197   O231    1.386   .     S
C197   C747    1.407   1_545 S
C198   C206    1.447   .     S
C198   C199    1.393   .     A
C199   H215    1.082   .     S
C199   C752    1.382   1_545 S
C200   C201    1.418   .     A
C200   O236    1.380   .     S
C200   C475    1.382   .     S
C202   N217    1.368   .     A
C202   O238    1.375   .     S
C202   C19     1.428   1_655 S
C203   O240    1.374   .     S
C203   N216    1.380   .     A
C204   O242    1.381   .     S
C204   N216    1.366   .     A
C205   N217    1.383   .     A
C205   O247    1.370   .     S
C205   C20     1.421   1_655 S
C206   O222    1.300   .     A
C206   O223    1.297   .     A
C207   O224    1.302   .     A
C207   O225    1.307   .     A
C207   C209    1.474   .     S
C208   O251    1.391   .     S
C208   C1017   1.407   1_554 S
C210   C211    1.403   .     A
C210   O258    1.381   .     S
C211   C1040   1.412   .     S
C211   O1093   1.383   .     S
C212   O263    1.382   .     S
C212   C1039   1.412   1_554 S
C212   C1014   1.419   1_554 S
Cu213  O220    1.975   .     S
Cu213  N216    2.035   .     S
Cu213  O222    1.961   .     S
Cu213  O218    1.962   .     S
Cu213  Cu214   2.708   .     S
Cu213  O224    1.965   .     S
Cu214  O219    1.961   .     S
Cu214  O225    1.975   .     S
Cu214  O221    1.965   .     S
Cu214  N217    2.035   .     S
Cu214  O223    1.962   .     S
O226   C227    1.416   .     S
C227   H229    1.108   .     S
C227   H230    1.111   .     S
C227   H44     1.105   1_655 S
O231   C232    1.415   .     S
C232   H234    1.115   .     S
C232   H235    1.110   .     S
C232   H233    1.107   .     S
O236   H237    0.985   .     S
O238   H239    0.990   .     S
O240   H241    0.982   .     S
O242   C243    1.411   .     S
C243   H244    1.111   .     S
C243   H245    1.109   .     S
C243   H246    1.109   .     S
O247   H248    0.981   .     S
O249   H250    0.991   .     S
O251   C1080   1.410   1_554 S
C252   H253    1.109   .     S
C252   H254    1.110   .     S
C252   O1079   1.410   .     S
C252   H1083   1.109   .     S
H255   C1080   1.109   1_554 S
O256   H257    0.990   .     S
O258   C259    1.411   .     S
C259   H261    1.115   .     S
H260   C75     1.111   1_655 S
H262   C75     1.106   1_655 S
O263   H264    0.989   .     S
O265   C266    1.409   .     S
O265   C1039   1.383   1_554 S
C266   H268    1.114   .     S
C266   H1095   1.113   1_554 S
H267   C1094   1.113   .     S
H269   C82     1.109   1_655 S
O270   C271    1.418   .     S
C271   H272    1.115   .     S
C271   H273    1.111   .     S
C271   H274    1.107   .     S
O275   H276    0.990   .     S
C277   O310    1.296   .     A
C277   O311    1.303   .     A
C277   C293    1.452   .     S
C278   C279    1.419   .     A
C278   C1108   1.432   .     S
C278   C1132   1.419   .     S
C279   C283    1.415   .     A
C279   C286    1.430   .     A
C280   C284    1.408   .     A
C280   C1106   1.432   1_554 S
C280   C1109   1.420   1_554 S
C281   C282    1.404   .     A
C281   C1108   1.420   .     S
C281   C1128   1.407   .     S
C282   O341    1.381   .     S
C282   C283    1.398   .     A
C283   O362    1.387   .     S
C284   C301    1.412   .     A
C284   O348    1.381   .     S
C285   C301    1.412   .     A
C285   O318    1.378   .     S
C285   C300    1.409   .     A
C286   C302    1.412   .     A
C286   C288    1.502   .     S
C287   C293    1.407   .     A
C287   O367    1.382   .     S
C287   C565    1.407   .     S
C288   O313    1.302   .     A
C288   O312    1.321   .     A
C289   C290    1.405   .     A
C289   O323    1.386   .     S
C290   C298    1.447   .     S
C290   C291    1.393   .     A
C291   H307    1.082   .     S
C292   C293    1.418   .     A
C292   O328    1.380   .     S
C292   C567    1.382   .     S
C294   N309    1.368   .     A
C294   O330    1.375   .     S
C294   C387    1.428   .     S
C295   O332    1.374   .     S
C295   N308    1.380   .     A
C295   C478    1.428   1_455 S
C296   O334    1.381   .     S
C296   N308    1.366   .     A
C296   C481    1.421   1_455 S
C297   N309    1.383   .     A
C297   O339    1.370   .     S
C297   C388    1.421   .     S
C298   O314    1.300   .     A
C298   O315    1.297   .     A
C299   O316    1.302   .     A
C299   O317    1.307   .     A
C299   C301    1.474   .     S
C300   O343    1.391   .     S
C300   C1109   1.407   1_554 S
C302   C303    1.403   .     A
C302   O350    1.381   .     S
C303   C1132   1.412   .     S
C303   O1185   1.383   .     S
C304   O355    1.382   .     S
C304   C1131   1.412   1_554 S
C304   C1106   1.419   1_554 S
Cu305  O312    1.975   .     S
Cu305  N308    2.035   .     S
Cu305  O314    1.961   .     S
Cu305  O310    1.962   .     S
Cu305  Cu306   2.708   .     S
Cu305  O316    1.965   .     S
Cu306  O311    1.961   .     S
Cu306  O317    1.975   .     S
Cu306  O313    1.965   .     S
Cu306  N309    2.035   .     S
Cu306  O315    1.962   .     S
O318   C319    1.416   .     S
C319   H321    1.108   .     S
C319   H322    1.111   .     S
C319   H412    1.105   .     S
H320   C503    1.105   1_455 S
O323   C324    1.415   .     S
C324   H326    1.115   .     S
C324   H327    1.110   .     S
C324   H325    1.107   .     S
O328   H329    0.985   .     S
O330   H331    0.990   .     S
O332   H333    0.982   .     S
O334   C335    1.411   .     S
C335   H336    1.111   .     S
C335   H337    1.109   .     S
C335   H338    1.109   .     S
O339   H340    0.981   .     S
O341   H342    0.991   .     S
O343   C1172   1.410   1_554 S
C344   H345    1.109   .     S
C344   H346    1.110   .     S
C344   O1171   1.410   .     S
C344   H1175   1.109   .     S
H347   C1172   1.109   1_554 S
O348   H349    0.990   .     S
O350   C351    1.411   .     S
C351   H353    1.115   .     S
C351   H536    1.111   1_455 S
C351   H538    1.106   1_455 S
H352   C443    1.111   .     S
H354   C443    1.106   .     S
O355   H356    0.989   .     S
O357   C358    1.409   .     S
O357   C1131   1.383   1_554 S
C358   H360    1.114   .     S
C358   H1187   1.113   1_554 S
C358   H545    1.109   1_455 S
H359   C1186   1.113   .     S
H361   C450    1.109   .     S
O362   C363    1.418   .     S
C363   H364    1.115   .     S
C363   H365    1.111   .     S
C363   H366    1.107   .     S
O367   H368    0.990   .     S
C369   O402    1.296   .     A
C369   O403    1.303   .     A
C369   C385    1.452   .     S
C370   C371    1.419   .     A
C370   C1200   1.432   .     S
C370   C1224   1.419   .     S
C371   C375    1.415   .     A
C371   C378    1.430   .     A
C372   C376    1.408   .     A
C372   C1198   1.432   1_554 S
C372   C1201   1.420   1_554 S
C373   C374    1.404   .     A
C373   C1200   1.420   .     S
C373   C1220   1.407   .     S
C374   O433    1.381   .     S
C374   C375    1.398   .     A
C375   O454    1.387   .     S
C376   C393    1.412   .     A
C376   O440    1.381   .     S
C377   C393    1.412   .     A
C377   O410    1.378   .     S
C377   C392    1.409   .     A
C378   C394    1.412   .     A
C378   C380    1.502   .     S
C379   C385    1.407   .     A
C379   O459    1.382   .     S
C379   C657    1.407   .     S
C380   O405    1.302   .     A
C380   O404    1.321   .     A
C381   C382    1.405   .     A
C381   O415    1.386   .     S
C382   C390    1.447   .     S
C382   C383    1.393   .     A
C383   H399    1.082   .     S
C384   C385    1.418   .     A
C384   O420    1.380   .     S
C384   C659    1.382   .     S
C386   N401    1.368   .     A
C386   O422    1.375   .     S
C386   C479    1.428   .     S
C387   O424    1.374   .     S
C387   N400    1.380   .     A
C388   O426    1.381   .     S
C388   N400    1.366   .     A
C389   N401    1.383   .     A
C389   O431    1.370   .     S
C389   C480    1.421   .     S
C390   O406    1.300   .     A
C390   O407    1.297   .     A
C391   O408    1.302   .     A
C391   O409    1.307   .     A
C391   C393    1.474   .     S
C392   O435    1.391   .     S
C392   C1201   1.407   1_554 S
C394   C395    1.403   .     A
C394   O442    1.381   .     S
C395   C1224   1.412   .     S
C395   O1277   1.383   .     S
C396   O447    1.382   .     S
C396   C1223   1.412   1_554 S
C396   C1198   1.419   1_554 S
Cu397  O404    1.975   .     S
Cu397  N400    2.035   .     S
Cu397  O406    1.961   .     S
Cu397  O402    1.962   .     S
Cu397  Cu398   2.708   .     S
Cu397  O408    1.965   .     S
Cu398  O403    1.961   .     S
Cu398  O409    1.975   .     S
Cu398  O405    1.965   .     S
Cu398  N401    2.035   .     S
Cu398  O407    1.962   .     S
O410   C411    1.416   .     S
C411   H413    1.108   .     S
C411   H414    1.111   .     S
C411   H504    1.105   .     S
O415   C416    1.415   .     S
C416   H418    1.115   .     S
C416   H419    1.110   .     S
C416   H417    1.107   .     S
O420   H421    0.985   .     S
O422   H423    0.990   .     S
O424   H425    0.982   .     S
O426   C427    1.411   .     S
C427   H428    1.111   .     S
C427   H429    1.109   .     S
C427   H430    1.109   .     S
O431   H432    0.981   .     S
O433   H434    0.991   .     S
O435   C1264   1.410   1_554 S
C436   H437    1.109   .     S
C436   H438    1.110   .     S
C436   O1263   1.410   .     S
C436   H1267   1.109   .     S
H439   C1264   1.109   1_554 S
O440   H441    0.990   .     S
O442   C443    1.411   .     S
C443   H445    1.115   .     S
H444   C535    1.111   .     S
H446   C535    1.106   .     S
O447   H448    0.989   .     S
O449   C450    1.409   .     S
O449   C1223   1.383   1_554 S
C450   H452    1.114   .     S
C450   H1279   1.113   1_554 S
H451   C1278   1.113   .     S
H453   C542    1.109   .     S
O454   C455    1.418   .     S
C455   H456    1.115   .     S
C455   H457    1.111   .     S
C455   H458    1.107   .     S
O459   H460    0.990   .     S
C461   O494    1.296   .     A
C461   O495    1.303   .     A
C461   C477    1.452   .     S
C462   C463    1.419   .     A
C462   C1292   1.432   .     S
C462   C1316   1.419   .     S
C463   C467    1.415   .     A
C463   C470    1.430   .     A
C464   C468    1.408   .     A
C464   C1290   1.432   1_554 S
C464   C1293   1.420   1_554 S
C465   C466    1.404   .     A
C465   C1292   1.420   .     S
C465   C1312   1.407   .     S
C466   O525    1.381   .     S
C466   C467    1.398   .     A
C467   O546    1.387   .     S
C468   C485    1.412   .     A
C468   O532    1.381   .     S
C469   C485    1.412   .     A
C469   O502    1.378   .     S
C469   C484    1.409   .     A
C470   C486    1.412   .     A
C470   C472    1.502   .     S
C471   C477    1.407   .     A
C471   O551    1.382   .     S
C471   C749    1.407   .     S
C472   O497    1.302   .     A
C472   O496    1.321   .     A
C473   C474    1.405   .     A
C473   O507    1.386   .     S
C474   C482    1.447   .     S
C474   C475    1.393   .     A
C475   H491    1.082   .     S
C476   C477    1.418   .     A
C476   O512    1.380   .     S
C476   C751    1.382   .     S
C478   N493    1.368   .     A
C478   O514    1.375   .     S
C478   C295    1.428   1_655 S
C479   O516    1.374   .     S
C479   N492    1.380   .     A
C480   O518    1.381   .     S
C480   N492    1.366   .     A
C481   N493    1.383   .     A
C481   O523    1.370   .     S
C481   C296    1.421   1_655 S
C482   O498    1.300   .     A
C482   O499    1.297   .     A
C483   O500    1.302   .     A
C483   O501    1.307   .     A
C483   C485    1.474   .     S
C484   O527    1.391   .     S
C484   C1293   1.407   1_554 S
C486   C487    1.403   .     A
C486   O534    1.381   .     S
C487   C1316   1.412   .     S
C487   O1369   1.383   .     S
C488   O539    1.382   .     S
C488   C1315   1.412   1_554 S
C488   C1290   1.419   1_554 S
Cu489  O496    1.975   .     S
Cu489  N492    2.035   .     S
Cu489  O498    1.961   .     S
Cu489  O494    1.962   .     S
Cu489  Cu490   2.708   .     S
Cu489  O500    1.965   .     S
Cu490  O495    1.961   .     S
Cu490  O501    1.975   .     S
Cu490  O497    1.965   .     S
Cu490  N493    2.035   .     S
Cu490  O499    1.962   .     S
O502   C503    1.416   .     S
C503   H505    1.108   .     S
C503   H506    1.111   .     S
C503   H320    1.105   1_655 S
O507   C508    1.415   .     S
C508   H510    1.115   .     S
C508   H511    1.110   .     S
C508   H509    1.107   .     S
O512   H513    0.985   .     S
O514   H515    0.990   .     S
O516   H517    0.982   .     S
O518   C519    1.411   .     S
C519   H520    1.111   .     S
C519   H521    1.109   .     S
C519   H522    1.109   .     S
O523   H524    0.981   .     S
O525   H526    0.991   .     S
O527   C1356   1.410   1_554 S
C528   H529    1.109   .     S
C528   H530    1.110   .     S
C528   O1355   1.410   .     S
C528   H1359   1.109   .     S
H531   C1356   1.109   1_554 S
O532   H533    0.990   .     S
O534   C535    1.411   .     S
C535   H537    1.115   .     S
H536   C351    1.111   1_655 S
H538   C351    1.106   1_655 S
O539   H540    0.989   .     S
O541   C542    1.409   .     S
O541   C1315   1.383   1_554 S
C542   H544    1.114   .     S
C542   H1371   1.113   1_554 S
H543   C1370   1.113   .     S
H545   C358    1.109   1_655 S
O546   C547    1.418   .     S
C547   H548    1.115   .     S
C547   H549    1.111   .     S
C547   H550    1.107   .     S
O551   H552    0.990   .     S
C553   O586    1.296   .     A
C553   O587    1.303   .     A
C553   C569    1.452   .     S
C554   C555    1.419   .     A
C554   C1384   1.432   .     S
C554   C1408   1.419   .     S
C555   C559    1.415   .     A
C555   C562    1.430   .     A
C556   C560    1.408   .     A
C556   C1382   1.432   1_554 S
C556   C1385   1.420   1_554 S
C557   C558    1.404   .     A
C557   C1384   1.420   .     S
C557   C1404   1.407   .     S
C558   O617    1.381   .     S
C558   C559    1.398   .     A
C559   O638    1.387   .     S
C560   C577    1.412   .     A
C560   O624    1.381   .     S
C561   C577    1.412   .     A
C561   O594    1.378   .     S
C561   C576    1.409   .     A
C562   C578    1.412   .     A
C562   C564    1.502   .     S
C563   C569    1.407   .     A
C563   O643    1.382   .     S
C563   C13     1.407   1_565 S
C564   O589    1.302   .     A
C564   O588    1.321   .     A
C565   C566    1.405   .     A
C565   O599    1.386   .     S
C566   C574    1.447   .     S
C566   C567    1.393   .     A
C567   H583    1.082   .     S
C568   C569    1.418   .     A
C568   O604    1.380   .     S
C568   C15     1.382   1_565 S
C570   N585    1.368   .     A
C570   O606    1.375   .     S
C570   C663    1.428   .     S
C571   O608    1.374   .     S
C571   N584    1.380   .     A
C571   C754    1.428   1_455 S
C572   O610    1.381   .     S
C572   N584    1.366   .     A
C572   C757    1.421   1_455 S
C573   N585    1.383   .     A
C573   O615    1.370   .     S
C573   C664    1.421   .     S
C574   O590    1.300   .     A
C574   O591    1.297   .     A
C575   O592    1.302   .     A
C575   O593    1.307   .     A
C575   C577    1.474   .     S
C576   O619    1.391   .     S
C576   C1385   1.407   1_554 S
C578   C579    1.403   .     A
C578   O626    1.381   .     S
C579   C1408   1.412   .     S
C579   O1461   1.383   .     S
C580   O631    1.382   .     S
C580   C1407   1.412   1_554 S
C580   C1382   1.419   1_554 S
Cu581  O588    1.975   .     S
Cu581  N584    2.035   .     S
Cu581  O590    1.961   .     S
Cu581  O586    1.962   .     S
Cu581  Cu582   2.708   .     S
Cu581  O592    1.965   .     S
Cu582  O587    1.961   .     S
Cu582  O593    1.975   .     S
Cu582  O589    1.965   .     S
Cu582  N585    2.035   .     S
Cu582  O591    1.962   .     S
O594   C595    1.416   .     S
C595   H597    1.108   .     S
C595   H598    1.111   .     S
C595   H688    1.105   .     S
H596   C779    1.105   1_455 S
O599   C600    1.415   .     S
C600   H602    1.115   .     S
C600   H603    1.110   .     S
C600   H601    1.107   .     S
O604   H605    0.985   .     S
O606   H607    0.990   .     S
O608   H609    0.982   .     S
O610   C611    1.411   .     S
C611   H612    1.111   .     S
C611   H613    1.109   .     S
C611   H614    1.109   .     S
O615   H616    0.981   .     S
O617   H618    0.991   .     S
O619   C1448   1.410   1_554 S
C620   H621    1.109   .     S
C620   H622    1.110   .     S
C620   O1447   1.410   .     S
C620   H1451   1.109   .     S
H623   C1448   1.109   1_554 S
O624   H625    0.990   .     S
O626   C627    1.411   .     S
C627   H629    1.115   .     S
C627   H812    1.111   1_455 S
C627   H814    1.106   1_455 S
H628   C719    1.111   .     S
H630   C719    1.106   .     S
O631   H632    0.989   .     S
O633   C634    1.409   .     S
O633   C1407   1.383   1_554 S
C634   H636    1.114   .     S
C634   H1463   1.113   1_554 S
C634   H821    1.109   1_455 S
H635   C1462   1.113   .     S
H637   C726    1.109   .     S
O638   C639    1.418   .     S
C639   H640    1.115   .     S
C639   H641    1.111   .     S
C639   H642    1.107   .     S
O643   H644    0.990   .     S
C645   O678    1.296   .     A
C645   O679    1.303   .     A
C645   C661    1.452   .     S
C646   C647    1.419   .     A
C646   C1476   1.432   .     S
C646   C1500   1.419   .     S
C647   C651    1.415   .     A
C647   C654    1.430   .     A
C648   C652    1.408   .     A
C648   C1474   1.432   1_554 S
C648   C1477   1.420   1_554 S
C649   C650    1.404   .     A
C649   C1476   1.420   .     S
C649   C1496   1.407   .     S
C650   O709    1.381   .     S
C650   C651    1.398   .     A
C651   O730    1.387   .     S
C652   C669    1.412   .     A
C652   O716    1.381   .     S
C653   C669    1.412   .     A
C653   O686    1.378   .     S
C653   C668    1.409   .     A
C654   C670    1.412   .     A
C654   C656    1.502   .     S
C655   C661    1.407   .     A
C655   O735    1.382   .     S
C655   C105    1.407   1_565 S
C656   O681    1.302   .     A
C656   O680    1.321   .     A
C657   C658    1.405   .     A
C657   O691    1.386   .     S
C658   C666    1.447   .     S
C658   C659    1.393   .     A
C659   H675    1.082   .     S
C660   C661    1.418   .     A
C660   O696    1.380   .     S
C660   C107    1.382   1_565 S
C662   N677    1.368   .     A
C662   O698    1.375   .     S
C662   C755    1.428   .     S
C663   O700    1.374   .     S
C663   N676    1.380   .     A
C664   O702    1.381   .     S
C664   N676    1.366   .     A
C665   N677    1.383   .     A
C665   O707    1.370   .     S
C665   C756    1.421   .     S
C666   O682    1.300   .     A
C666   O683    1.297   .     A
C667   O684    1.302   .     A
C667   O685    1.307   .     A
C667   C669    1.474   .     S
C668   O711    1.391   .     S
C668   C1477   1.407   1_554 S
C670   C671    1.403   .     A
C670   O718    1.381   .     S
C671   C1500   1.412   .     S
C671   O1553   1.383   .     S
C672   O723    1.382   .     S
C672   C1499   1.412   1_554 S
C672   C1474   1.419   1_554 S
Cu673  O680    1.975   .     S
Cu673  N676    2.035   .     S
Cu673  O682    1.961   .     S
Cu673  O678    1.962   .     S
Cu673  Cu674   2.708   .     S
Cu673  O684    1.965   .     S
Cu674  O679    1.961   .     S
Cu674  O685    1.975   .     S
Cu674  O681    1.965   .     S
Cu674  N677    2.035   .     S
Cu674  O683    1.962   .     S
O686   C687    1.416   .     S
C687   H689    1.108   .     S
C687   H690    1.111   .     S
C687   H780    1.105   .     S
O691   C692    1.415   .     S
C692   H694    1.115   .     S
C692   H695    1.110   .     S
C692   H693    1.107   .     S
O696   H697    0.985   .     S
O698   H699    0.990   .     S
O700   H701    0.982   .     S
O702   C703    1.411   .     S
C703   H704    1.111   .     S
C703   H705    1.109   .     S
C703   H706    1.109   .     S
O707   H708    0.981   .     S
O709   H710    0.991   .     S
O711   C1540   1.410   1_554 S
C712   H713    1.109   .     S
C712   H714    1.110   .     S
C712   O1539   1.410   .     S
C712   H1543   1.109   .     S
H715   C1540   1.109   1_554 S
O716   H717    0.990   .     S
O718   C719    1.411   .     S
C719   H721    1.115   .     S
H720   C811    1.111   .     S
H722   C811    1.106   .     S
O723   H724    0.989   .     S
O725   C726    1.409   .     S
O725   C1499   1.383   1_554 S
C726   H728    1.114   .     S
C726   H1555   1.113   1_554 S
H727   C1554   1.113   .     S
H729   C818    1.109   .     S
O730   C731    1.418   .     S
C731   H732    1.115   .     S
C731   H733    1.111   .     S
C731   H734    1.107   .     S
O735   H736    0.990   .     S
C737   O770    1.296   .     A
C737   O771    1.303   .     A
C737   C753    1.452   .     S
C738   C739    1.419   .     A
C738   C1568   1.432   .     S
C738   C1592   1.419   .     S
C739   C743    1.415   .     A
C739   C746    1.430   .     A
C740   C744    1.408   .     A
C740   C1566   1.432   1_554 S
C740   C1569   1.420   1_554 S
C741   C742    1.404   .     A
C741   C1568   1.420   .     S
C741   C1588   1.407   .     S
C742   O801    1.381   .     S
C742   C743    1.398   .     A
C743   O822    1.387   .     S
C744   C761    1.412   .     A
C744   O808    1.381   .     S
C745   C761    1.412   .     A
C745   O778    1.378   .     S
C745   C760    1.409   .     A
C746   C762    1.412   .     A
C746   C748    1.502   .     S
C747   C753    1.407   .     A
C747   O827    1.382   .     S
C747   C197    1.407   1_565 S
C748   O773    1.302   .     A
C748   O772    1.321   .     A
C749   C750    1.405   .     A
C749   O783    1.386   .     S
C750   C758    1.447   .     S
C750   C751    1.393   .     A
C751   H767    1.082   .     S
C752   C753    1.418   .     A
C752   O788    1.380   .     S
C752   C199    1.382   1_565 S
C754   N769    1.368   .     A
C754   O790    1.375   .     S
C754   C571    1.428   1_655 S
C755   O792    1.374   .     S
C755   N768    1.380   .     A
C756   O794    1.381   .     S
C756   N768    1.366   .     A
C757   N769    1.383   .     A
C757   O799    1.370   .     S
C757   C572    1.421   1_655 S
C758   O774    1.300   .     A
C758   O775    1.297   .     A
C759   O776    1.302   .     A
C759   O777    1.307   .     A
C759   C761    1.474   .     S
C760   O803    1.391   .     S
C760   C1569   1.407   1_554 S
C762   C763    1.403   .     A
C762   O810    1.381   .     S
C763   C1592   1.412   .     S
C763   O1645   1.383   .     S
C764   O815    1.382   .     S
C764   C1591   1.412   1_554 S
C764   C1566   1.419   1_554 S
Cu765  O772    1.975   .     S
Cu765  N768    2.035   .     S
Cu765  O774    1.961   .     S
Cu765  O770    1.962   .     S
Cu765  Cu766   2.708   .     S
Cu765  O776    1.965   .     S
Cu766  O771    1.961   .     S
Cu766  O777    1.975   .     S
Cu766  O773    1.965   .     S
Cu766  N769    2.035   .     S
Cu766  O775    1.962   .     S
O778   C779    1.416   .     S
C779   H781    1.108   .     S
C779   H782    1.111   .     S
C779   H596    1.105   1_655 S
O783   C784    1.415   .     S
C784   H786    1.115   .     S
C784   H787    1.110   .     S
C784   H785    1.107   .     S
O788   H789    0.985   .     S
O790   H791    0.990   .     S
O792   H793    0.982   .     S
O794   C795    1.411   .     S
C795   H796    1.111   .     S
C795   H797    1.109   .     S
C795   H798    1.109   .     S
O799   H800    0.981   .     S
O801   H802    0.991   .     S
O803   C1632   1.410   1_554 S
C804   H805    1.109   .     S
C804   H806    1.110   .     S
C804   O1631   1.410   .     S
C804   H1635   1.109   .     S
H807   C1632   1.109   1_554 S
O808   H809    0.990   .     S
O810   C811    1.411   .     S
C811   H813    1.115   .     S
H812   C627    1.111   1_655 S
H814   C627    1.106   1_655 S
O815   H816    0.989   .     S
O817   C818    1.409   .     S
O817   C1591   1.383   1_554 S
C818   H820    1.114   .     S
C818   H1647   1.113   1_554 S
H819   C1646   1.113   .     S
H821   C634    1.109   1_655 S
O822   C823    1.418   .     S
C823   H824    1.115   .     S
C823   H825    1.111   .     S
C823   H826    1.107   .     S
O827   H828    0.990   .     S
C829   O862    1.296   .     A
C829   O863    1.303   .     A
C829   C845    1.452   .     S
C830   C831    1.419   .     A
C830   C4      1.432   1_556 S
C830   C28     1.419   1_556 S
C831   C835    1.415   .     A
C831   C838    1.430   .     A
C832   C836    1.408   .     A
C833   C834    1.404   .     A
C833   C4      1.420   1_556 S
C833   C24     1.407   1_556 S
C834   O893    1.381   .     S
C834   C835    1.398   .     A
C835   O914    1.387   .     S
C836   C853    1.412   .     A
C836   O900    1.381   .     S
C837   C853    1.412   .     A
C837   O870    1.378   .     S
C837   C852    1.409   .     A
C838   C854    1.412   .     A
C838   C840    1.502   .     S
C839   C845    1.407   .     A
C839   O919    1.382   .     S
C839   C1117   1.407   .     S
C840   O865    1.302   .     A
C840   O864    1.321   .     A
C841   C842    1.405   .     A
C841   O875    1.386   .     S
C841   C1391   1.407   1_545 S
C842   C850    1.447   .     S
C842   C843    1.393   .     A
C843   H859    1.082   .     S
C843   C1396   1.382   1_545 S
C844   C845    1.418   .     A
C844   O880    1.380   .     S
C844   C1119   1.382   .     S
C846   N861    1.368   .     A
C846   O882    1.375   .     S
C846   C939    1.428   .     S
C847   O884    1.374   .     S
C847   N860    1.380   .     A
C847   C1030   1.428   1_455 S
C848   O886    1.381   .     S
C848   N860    1.366   .     A
C848   C1033   1.421   1_455 S
C849   N861    1.383   .     A
C849   O891    1.370   .     S
C849   C940    1.421   .     S
C850   O866    1.300   .     A
C850   O867    1.297   .     A
C851   O868    1.302   .     A
C851   O869    1.307   .     A
C851   C853    1.474   .     S
C852   O895    1.391   .     S
C854   C855    1.403   .     A
C854   O902    1.381   .     S
C855   C28     1.412   1_556 S
C855   O81     1.383   1_556 S
C856   O907    1.382   .     S
Cu857  O864    1.975   .     S
Cu857  N860    2.035   .     S
Cu857  O866    1.961   .     S
Cu857  O862    1.962   .     S
Cu857  Cu858   2.708   .     S
Cu857  O868    1.965   .     S
Cu858  O863    1.961   .     S
Cu858  O869    1.975   .     S
Cu858  O865    1.965   .     S
Cu858  N861    2.035   .     S
Cu858  O867    1.962   .     S
O870   C871    1.416   .     S
C871   H873    1.108   .     S
C871   H874    1.111   .     S
C871   H964    1.105   .     S
H872   C1055   1.105   1_455 S
O875   C876    1.415   .     S
C876   H878    1.115   .     S
C876   H879    1.110   .     S
C876   H877    1.107   .     S
O880   H881    0.985   .     S
O882   H883    0.990   .     S
O884   H885    0.982   .     S
O886   C887    1.411   .     S
C887   H888    1.111   .     S
C887   H889    1.109   .     S
C887   H890    1.109   .     S
O891   H892    0.981   .     S
O893   H894    0.991   .     S
C896   H897    1.109   .     S
C896   H898    1.110   .     S
C896   O67     1.410   1_556 S
C896   H71     1.109   1_556 S
O900   H901    0.990   .     S
O902   C903    1.411   .     S
C903   H905    1.115   .     S
C903   H1088   1.111   1_455 S
C903   H1090   1.106   1_455 S
H904   C995    1.111   .     S
H906   C995    1.106   .     S
O907   H908    0.989   .     S
O909   C910    1.409   .     S
C910   H912    1.114   .     S
C910   H1097   1.109   1_455 S
H911   C82     1.113   1_556 S
H913   C1002   1.109   .     S
O914   C915    1.418   .     S
C915   H916    1.115   .     S
C915   H917    1.111   .     S
C915   H918    1.107   .     S
O919   H920    0.990   .     S
C921   O954    1.296   .     A
C921   O955    1.303   .     A
C921   C937    1.452   .     S
C922   C923    1.419   .     A
C922   C96     1.432   1_556 S
C922   C120    1.419   1_556 S
C923   C927    1.415   .     A
C923   C930    1.430   .     A
C924   C928    1.408   .     A
C925   C926    1.404   .     A
C925   C96     1.420   1_556 S
C925   C116    1.407   1_556 S
C926   O985    1.381   .     S
C926   C927    1.398   .     A
C927   O1006   1.387   .     S
C928   C945    1.412   .     A
C928   O992    1.381   .     S
C929   C945    1.412   .     A
C929   O962    1.378   .     S
C929   C944    1.409   .     A
C930   C946    1.412   .     A
C930   C932    1.502   .     S
C931   C937    1.407   .     A
C931   O1011   1.382   .     S
C931   C1209   1.407   .     S
C932   O957    1.302   .     A
C932   O956    1.321   .     A
C933   C934    1.405   .     A
C933   O967    1.386   .     S
C933   C1483   1.407   1_545 S
C934   C942    1.447   .     S
C934   C935    1.393   .     A
C935   H951    1.082   .     S
C935   C1488   1.382   1_545 S
C936   C937    1.418   .     A
C936   O972    1.380   .     S
C936   C1211   1.382   .     S
C938   N953    1.368   .     A
C938   O974    1.375   .     S
C938   C1031   1.428   .     S
C939   O976    1.374   .     S
C939   N952    1.380   .     A
C940   O978    1.381   .     S
C940   N952    1.366   .     A
C941   N953    1.383   .     A
C941   O983    1.370   .     S
C941   C1032   1.421   .     S
C942   O958    1.300   .     A
C942   O959    1.297   .     A
C943   O960    1.302   .     A
C943   O961    1.307   .     A
C943   C945    1.474   .     S
C944   O987    1.391   .     S
C946   C947    1.403   .     A
C946   O994    1.381   .     S
C947   C120    1.412   1_556 S
C947   O173    1.383   1_556 S
C948   O999    1.382   .     S
Cu949  O956    1.975   .     S
Cu949  N952    2.035   .     S
Cu949  O958    1.961   .     S
Cu949  O954    1.962   .     S
Cu949  Cu950   2.708   .     S
Cu949  O960    1.965   .     S
Cu950  O955    1.961   .     S
Cu950  O961    1.975   .     S
Cu950  O957    1.965   .     S
Cu950  N953    2.035   .     S
Cu950  O959    1.962   .     S
O962   C963    1.416   .     S
C963   H965    1.108   .     S
C963   H966    1.111   .     S
C963   H1056   1.105   .     S
O967   C968    1.415   .     S
C968   H970    1.115   .     S
C968   H971    1.110   .     S
C968   H969    1.107   .     S
O972   H973    0.985   .     S
O974   H975    0.990   .     S
O976   H977    0.982   .     S
O978   C979    1.411   .     S
C979   H980    1.111   .     S
C979   H981    1.109   .     S
C979   H982    1.109   .     S
O983   H984    0.981   .     S
O985   H986    0.991   .     S
C988   H989    1.109   .     S
C988   H990    1.110   .     S
C988   O159    1.410   1_556 S
C988   H163    1.109   1_556 S
O992   H993    0.990   .     S
O994   C995    1.411   .     S
C995   H997    1.115   .     S
H996   C1087   1.111   .     S
H998   C1087   1.106   .     S
O999   H1000   0.989   .     S
O1001  C1002   1.409   .     S
C1002  H1004   1.114   .     S
H1003  C174    1.113   1_556 S
H1005  C1094   1.109   .     S
O1006  C1007   1.418   .     S
C1007  H1008   1.115   .     S
C1007  H1009   1.111   .     S
C1007  H1010   1.107   .     S
O1011  H1012   0.990   .     S
C1013  O1046   1.296   .     A
C1013  O1047   1.303   .     A
C1013  C1029   1.452   .     S
C1014  C1015   1.419   .     A
C1014  C188    1.432   1_556 S
C1014  C212    1.419   1_556 S
C1015  C1019   1.415   .     A
C1015  C1022   1.430   .     A
C1016  C1020   1.408   .     A
C1017  C1018   1.404   .     A
C1017  C188    1.420   1_556 S
C1017  C208    1.407   1_556 S
C1018  O1077   1.381   .     S
C1018  C1019   1.398   .     A
C1019  O1098   1.387   .     S
C1020  C1037   1.412   .     A
C1020  O1084   1.381   .     S
C1021  C1037   1.412   .     A
C1021  O1054   1.378   .     S
C1021  C1036   1.409   .     A
C1022  C1038   1.412   .     A
C1022  C1024   1.502   .     S
C1023  C1029   1.407   .     A
C1023  O1103   1.382   .     S
C1023  C1301   1.407   .     S
C1024  O1049   1.302   .     A
C1024  O1048   1.321   .     A
C1025  C1026   1.405   .     A
C1025  O1059   1.386   .     S
C1025  C1575   1.407   1_545 S
C1026  C1034   1.447   .     S
C1026  C1027   1.393   .     A
C1027  H1043   1.082   .     S
C1027  C1580   1.382   1_545 S
C1028  C1029   1.418   .     A
C1028  O1064   1.380   .     S
C1028  C1303   1.382   .     S
C1030  N1045   1.368   .     A
C1030  O1066   1.375   .     S
C1030  C847    1.428   1_655 S
C1031  O1068   1.374   .     S
C1031  N1044   1.380   .     A
C1032  O1070   1.381   .     S
C1032  N1044   1.366   .     A
C1033  N1045   1.383   .     A
C1033  O1075   1.370   .     S
C1033  C848    1.421   1_655 S
C1034  O1050   1.300   .     A
C1034  O1051   1.297   .     A
C1035  O1052   1.302   .     A
C1035  O1053   1.307   .     A
C1035  C1037   1.474   .     S
C1036  O1079   1.391   .     S
C1038  C1039   1.403   .     A
C1038  O1086   1.381   .     S
C1039  C212    1.412   1_556 S
C1039  O265    1.383   1_556 S
C1040  O1091   1.382   .     S
Cu1041 O1048   1.975   .     S
Cu1041 N1044   2.035   .     S
Cu1041 O1050   1.961   .     S
Cu1041 O1046   1.962   .     S
Cu1041 Cu1042  2.708   .     S
Cu1041 O1052   1.965   .     S
Cu1042 O1047   1.961   .     S
Cu1042 O1053   1.975   .     S
Cu1042 O1049   1.965   .     S
Cu1042 N1045   2.035   .     S
Cu1042 O1051   1.962   .     S
O1054  C1055   1.416   .     S
C1055  H1057   1.108   .     S
C1055  H1058   1.111   .     S
C1055  H872    1.105   1_655 S
O1059  C1060   1.415   .     S
C1060  H1062   1.115   .     S
C1060  H1063   1.110   .     S
C1060  H1061   1.107   .     S
O1064  H1065   0.985   .     S
O1066  H1067   0.990   .     S
O1068  H1069   0.982   .     S
O1070  C1071   1.411   .     S
C1071  H1072   1.111   .     S
C1071  H1073   1.109   .     S
C1071  H1074   1.109   .     S
O1075  H1076   0.981   .     S
O1077  H1078   0.991   .     S
C1080  H1081   1.109   .     S
C1080  H1082   1.110   .     S
C1080  O251    1.410   1_556 S
C1080  H255    1.109   1_556 S
O1084  H1085   0.990   .     S
O1086  C1087   1.411   .     S
C1087  H1089   1.115   .     S
H1088  C903    1.111   1_655 S
H1090  C903    1.106   1_655 S
O1091  H1092   0.989   .     S
O1093  C1094   1.409   .     S
C1094  H1096   1.114   .     S
H1095  C266    1.113   1_556 S
H1097  C910    1.109   1_655 S
O1098  C1099   1.418   .     S
C1099  H1100   1.115   .     S
C1099  H1101   1.111   .     S
C1099  H1102   1.107   .     S
O1103  H1104   0.990   .     S
C1105  O1138   1.296   .     A
C1105  O1139   1.303   .     A
C1105  C1121   1.452   .     S
C1106  C1107   1.419   .     A
C1106  C280    1.432   1_556 S
C1106  C304    1.419   1_556 S
C1107  C1111   1.415   .     A
C1107  C1114   1.430   .     A
C1108  C1112   1.408   .     A
C1109  C1110   1.404   .     A
C1109  C280    1.420   1_556 S
C1109  C300    1.407   1_556 S
C1110  O1169   1.381   .     S
C1110  C1111   1.398   .     A
C1111  O1190   1.387   .     S
C1112  C1129   1.412   .     A
C1112  O1176   1.381   .     S
C1113  C1129   1.412   .     A
C1113  O1146   1.378   .     S
C1113  C1128   1.409   .     A
C1114  C1130   1.412   .     A
C1114  C1116   1.502   .     S
C1115  C1121   1.407   .     A
C1115  O1195   1.382   .     S
C1115  C1393   1.407   .     S
C1116  O1141   1.302   .     A
C1116  O1140   1.321   .     A
C1117  C1118   1.405   .     A
C1117  O1151   1.386   .     S
C1118  C1126   1.447   .     S
C1118  C1119   1.393   .     A
C1119  H1135   1.082   .     S
C1120  C1121   1.418   .     A
C1120  O1156   1.380   .     S
C1120  C1395   1.382   .     S
C1122  N1137   1.368   .     A
C1122  O1158   1.375   .     S
C1122  C1215   1.428   .     S
C1123  O1160   1.374   .     S
C1123  N1136   1.380   .     A
C1123  C1306   1.428   1_455 S
C1124  O1162   1.381   .     S
C1124  N1136   1.366   .     A
C1124  C1309   1.421   1_455 S
C1125  N1137   1.383   .     A
C1125  O1167   1.370   .     S
C1125  C1216   1.421   .     S
C1126  O1142   1.300   .     A
C1126  O1143   1.297   .     A
C1127  O1144   1.302   .     A
C1127  O1145   1.307   .     A
C1127  C1129   1.474   .     S
C1128  O1171   1.391   .     S
C1130  C1131   1.403   .     A
C1130  O1178   1.381   .     S
C1131  C304    1.412   1_556 S
C1131  O357    1.383   1_556 S
C1132  O1183   1.382   .     S
Cu1133 O1140   1.975   .     S
Cu1133 N1136   2.035   .     S
Cu1133 O1142   1.961   .     S
Cu1133 O1138   1.962   .     S
Cu1133 Cu1134  2.708   .     S
Cu1133 O1144   1.965   .     S
Cu1134 O1139   1.961   .     S
Cu1134 O1145   1.975   .     S
Cu1134 O1141   1.965   .     S
Cu1134 N1137   2.035   .     S
Cu1134 O1143   1.962   .     S
O1146  C1147   1.416   .     S
C1147  H1149   1.108   .     S
C1147  H1150   1.111   .     S
C1147  H1240   1.105   .     S
H1148  C1331   1.105   1_455 S
O1151  C1152   1.415   .     S
C1152  H1154   1.115   .     S
C1152  H1155   1.110   .     S
C1152  H1153   1.107   .     S
O1156  H1157   0.985   .     S
O1158  H1159   0.990   .     S
O1160  H1161   0.982   .     S
O1162  C1163   1.411   .     S
C1163  H1164   1.111   .     S
C1163  H1165   1.109   .     S
C1163  H1166   1.109   .     S
O1167  H1168   0.981   .     S
O1169  H1170   0.991   .     S
C1172  H1173   1.109   .     S
C1172  H1174   1.110   .     S
C1172  O343    1.410   1_556 S
C1172  H347    1.109   1_556 S
O1176  H1177   0.990   .     S
O1178  C1179   1.411   .     S
C1179  H1181   1.115   .     S
C1179  H1364   1.111   1_455 S
C1179  H1366   1.106   1_455 S
H1180  C1271   1.111   .     S
H1182  C1271   1.106   .     S
O1183  H1184   0.989   .     S
O1185  C1186   1.409   .     S
C1186  H1188   1.114   .     S
C1186  H1373   1.109   1_455 S
H1187  C358    1.113   1_556 S
H1189  C1278   1.109   .     S
O1190  C1191   1.418   .     S
C1191  H1192   1.115   .     S
C1191  H1193   1.111   .     S
C1191  H1194   1.107   .     S
O1195  H1196   0.990   .     S
C1197  O1230   1.296   .     A
C1197  O1231   1.303   .     A
C1197  C1213   1.452   .     S
C1198  C1199   1.419   .     A
C1198  C372    1.432   1_556 S
C1198  C396    1.419   1_556 S
C1199  C1203   1.415   .     A
C1199  C1206   1.430   .     A
C1200  C1204   1.408   .     A
C1201  C1202   1.404   .     A
C1201  C372    1.420   1_556 S
C1201  C392    1.407   1_556 S
C1202  O1261   1.381   .     S
C1202  C1203   1.398   .     A
C1203  O1282   1.387   .     S
C1204  C1221   1.412   .     A
C1204  O1268   1.381   .     S
C1205  C1221   1.412   .     A
C1205  O1238   1.378   .     S
C1205  C1220   1.409   .     A
C1206  C1222   1.412   .     A
C1206  C1208   1.502   .     S
C1207  C1213   1.407   .     A
C1207  O1287   1.382   .     S
C1207  C1485   1.407   .     S
C1208  O1233   1.302   .     A
C1208  O1232   1.321   .     A
C1209  C1210   1.405   .     A
C1209  O1243   1.386   .     S
C1210  C1218   1.447   .     S
C1210  C1211   1.393   .     A
C1211  H1227   1.082   .     S
C1212  C1213   1.418   .     A
C1212  O1248   1.380   .     S
C1212  C1487   1.382   .     S
C1214  N1229   1.368   .     A
C1214  O1250   1.375   .     S
C1214  C1307   1.428   .     S
C1215  O1252   1.374   .     S
C1215  N1228   1.380   .     A
C1216  O1254   1.381   .     S
C1216  N1228   1.366   .     A
C1217  N1229   1.383   .     A
C1217  O1259   1.370   .     S
C1217  C1308   1.421   .     S
C1218  O1234   1.300   .     A
C1218  O1235   1.297   .     A
C1219  O1236   1.302   .     A
C1219  O1237   1.307   .     A
C1219  C1221   1.474   .     S
C1220  O1263   1.391   .     S
C1222  C1223   1.403   .     A
C1222  O1270   1.381   .     S
C1223  C396    1.412   1_556 S
C1223  O449    1.383   1_556 S
C1224  O1275   1.382   .     S
Cu1225 O1232   1.975   .     S
Cu1225 N1228   2.035   .     S
Cu1225 O1234   1.961   .     S
Cu1225 O1230   1.962   .     S
Cu1225 Cu1226  2.708   .     S
Cu1225 O1236   1.965   .     S
Cu1226 O1231   1.961   .     S
Cu1226 O1237   1.975   .     S
Cu1226 O1233   1.965   .     S
Cu1226 N1229   2.035   .     S
Cu1226 O1235   1.962   .     S
O1238  C1239   1.416   .     S
C1239  H1241   1.108   .     S
C1239  H1242   1.111   .     S
C1239  H1332   1.105   .     S
O1243  C1244   1.415   .     S
C1244  H1246   1.115   .     S
C1244  H1247   1.110   .     S
C1244  H1245   1.107   .     S
O1248  H1249   0.985   .     S
O1250  H1251   0.990   .     S
O1252  H1253   0.982   .     S
O1254  C1255   1.411   .     S
C1255  H1256   1.111   .     S
C1255  H1257   1.109   .     S
C1255  H1258   1.109   .     S
O1259  H1260   0.981   .     S
O1261  H1262   0.991   .     S
C1264  H1265   1.109   .     S
C1264  H1266   1.110   .     S
C1264  O435    1.410   1_556 S
C1264  H439    1.109   1_556 S
O1268  H1269   0.990   .     S
O1270  C1271   1.411   .     S
C1271  H1273   1.115   .     S
H1272  C1363   1.111   .     S
H1274  C1363   1.106   .     S
O1275  H1276   0.989   .     S
O1277  C1278   1.409   .     S
C1278  H1280   1.114   .     S
H1279  C450    1.113   1_556 S
H1281  C1370   1.109   .     S
O1282  C1283   1.418   .     S
C1283  H1284   1.115   .     S
C1283  H1285   1.111   .     S
C1283  H1286   1.107   .     S
O1287  H1288   0.990   .     S
C1289  O1322   1.296   .     A
C1289  O1323   1.303   .     A
C1289  C1305   1.452   .     S
C1290  C1291   1.419   .     A
C1290  C464    1.432   1_556 S
C1290  C488    1.419   1_556 S
C1291  C1295   1.415   .     A
C1291  C1298   1.430   .     A
C1292  C1296   1.408   .     A
C1293  C1294   1.404   .     A
C1293  C464    1.420   1_556 S
C1293  C484    1.407   1_556 S
C1294  O1353   1.381   .     S
C1294  C1295   1.398   .     A
C1295  O1374   1.387   .     S
C1296  C1313   1.412   .     A
C1296  O1360   1.381   .     S
C1297  C1313   1.412   .     A
C1297  O1330   1.378   .     S
C1297  C1312   1.409   .     A
C1298  C1314   1.412   .     A
C1298  C1300   1.502   .     S
C1299  C1305   1.407   .     A
C1299  O1379   1.382   .     S
C1299  C1577   1.407   .     S
C1300  O1325   1.302   .     A
C1300  O1324   1.321   .     A
C1301  C1302   1.405   .     A
C1301  O1335   1.386   .     S
C1302  C1310   1.447   .     S
C1302  C1303   1.393   .     A
C1303  H1319   1.082   .     S
C1304  C1305   1.418   .     A
C1304  O1340   1.380   .     S
C1304  C1579   1.382   .     S
C1306  N1321   1.368   .     A
C1306  O1342   1.375   .     S
C1306  C1123   1.428   1_655 S
C1307  O1344   1.374   .     S
C1307  N1320   1.380   .     A
C1308  O1346   1.381   .     S
C1308  N1320   1.366   .     A
C1309  N1321   1.383   .     A
C1309  O1351   1.370   .     S
C1309  C1124   1.421   1_655 S
C1310  O1326   1.300   .     A
C1310  O1327   1.297   .     A
C1311  O1328   1.302   .     A
C1311  O1329   1.307   .     A
C1311  C1313   1.474   .     S
C1312  O1355   1.391   .     S
C1314  C1315   1.403   .     A
C1314  O1362   1.381   .     S
C1315  C488    1.412   1_556 S
C1315  O541    1.383   1_556 S
C1316  O1367   1.382   .     S
Cu1317 O1324   1.975   .     S
Cu1317 N1320   2.035   .     S
Cu1317 O1326   1.961   .     S
Cu1317 O1322   1.962   .     S
Cu1317 Cu1318  2.708   .     S
Cu1317 O1328   1.965   .     S
Cu1318 O1323   1.961   .     S
Cu1318 O1329   1.975   .     S
Cu1318 O1325   1.965   .     S
Cu1318 N1321   2.035   .     S
Cu1318 O1327   1.962   .     S
O1330  C1331   1.416   .     S
C1331  H1333   1.108   .     S
C1331  H1334   1.111   .     S
C1331  H1148   1.105   1_655 S
O1335  C1336   1.415   .     S
C1336  H1338   1.115   .     S
C1336  H1339   1.110   .     S
C1336  H1337   1.107   .     S
O1340  H1341   0.985   .     S
O1342  H1343   0.990   .     S
O1344  H1345   0.982   .     S
O1346  C1347   1.411   .     S
C1347  H1348   1.111   .     S
C1347  H1349   1.109   .     S
C1347  H1350   1.109   .     S
O1351  H1352   0.981   .     S
O1353  H1354   0.991   .     S
C1356  H1357   1.109   .     S
C1356  H1358   1.110   .     S
C1356  O527    1.410   1_556 S
C1356  H531    1.109   1_556 S
O1360  H1361   0.990   .     S
O1362  C1363   1.411   .     S
C1363  H1365   1.115   .     S
H1364  C1179   1.111   1_655 S
H1366  C1179   1.106   1_655 S
O1367  H1368   0.989   .     S
O1369  C1370   1.409   .     S
C1370  H1372   1.114   .     S
H1371  C542    1.113   1_556 S
H1373  C1186   1.109   1_655 S
O1374  C1375   1.418   .     S
C1375  H1376   1.115   .     S
C1375  H1377   1.111   .     S
C1375  H1378   1.107   .     S
O1379  H1380   0.990   .     S
C1381  O1414   1.296   .     A
C1381  O1415   1.303   .     A
C1381  C1397   1.452   .     S
C1382  C1383   1.419   .     A
C1382  C556    1.432   1_556 S
C1382  C580    1.419   1_556 S
C1383  C1387   1.415   .     A
C1383  C1390   1.430   .     A
C1384  C1388   1.408   .     A
C1385  C1386   1.404   .     A
C1385  C556    1.420   1_556 S
C1385  C576    1.407   1_556 S
C1386  O1445   1.381   .     S
C1386  C1387   1.398   .     A
C1387  O1466   1.387   .     S
C1388  C1405   1.412   .     A
C1388  O1452   1.381   .     S
C1389  C1405   1.412   .     A
C1389  O1422   1.378   .     S
C1389  C1404   1.409   .     A
C1390  C1406   1.412   .     A
C1390  C1392   1.502   .     S
C1391  C1397   1.407   .     A
C1391  O1471   1.382   .     S
C1391  C841    1.407   1_565 S
C1392  O1417   1.302   .     A
C1392  O1416   1.321   .     A
C1393  C1394   1.405   .     A
C1393  O1427   1.386   .     S
C1394  C1402   1.447   .     S
C1394  C1395   1.393   .     A
C1395  H1411   1.082   .     S
C1396  C1397   1.418   .     A
C1396  O1432   1.380   .     S
C1396  C843    1.382   1_565 S
C1398  N1413   1.368   .     A
C1398  O1434   1.375   .     S
C1398  C1491   1.428   .     S
C1399  O1436   1.374   .     S
C1399  N1412   1.380   .     A
C1399  C1582   1.428   1_455 S
C1400  O1438   1.381   .     S
C1400  N1412   1.366   .     A
C1400  C1585   1.421   1_455 S
C1401  N1413   1.383   .     A
C1401  O1443   1.370   .     S
C1401  C1492   1.421   .     S
C1402  O1418   1.300   .     A
C1402  O1419   1.297   .     A
C1403  O1420   1.302   .     A
C1403  O1421   1.307   .     A
C1403  C1405   1.474   .     S
C1404  O1447   1.391   .     S
C1406  C1407   1.403   .     A
C1406  O1454   1.381   .     S
C1407  C580    1.412   1_556 S
C1407  O633    1.383   1_556 S
C1408  O1459   1.382   .     S
Cu1409 O1416   1.975   .     S
Cu1409 N1412   2.035   .     S
Cu1409 O1418   1.961   .     S
Cu1409 O1414   1.962   .     S
Cu1409 Cu1410  2.708   .     S
Cu1409 O1420   1.965   .     S
Cu1410 O1415   1.961   .     S
Cu1410 O1421   1.975   .     S
Cu1410 O1417   1.965   .     S
Cu1410 N1413   2.035   .     S
Cu1410 O1419   1.962   .     S
O1422  C1423   1.416   .     S
C1423  H1425   1.108   .     S
C1423  H1426   1.111   .     S
C1423  H1516   1.105   .     S
H1424  C1607   1.105   1_455 S
O1427  C1428   1.415   .     S
C1428  H1430   1.115   .     S
C1428  H1431   1.110   .     S
C1428  H1429   1.107   .     S
O1432  H1433   0.985   .     S
O1434  H1435   0.990   .     S
O1436  H1437   0.982   .     S
O1438  C1439   1.411   .     S
C1439  H1440   1.111   .     S
C1439  H1441   1.109   .     S
C1439  H1442   1.109   .     S
O1443  H1444   0.981   .     S
O1445  H1446   0.991   .     S
C1448  H1449   1.109   .     S
C1448  H1450   1.110   .     S
C1448  O619    1.410   1_556 S
C1448  H623    1.109   1_556 S
O1452  H1453   0.990   .     S
O1454  C1455   1.411   .     S
C1455  H1457   1.115   .     S
C1455  H1640   1.111   1_455 S
C1455  H1642   1.106   1_455 S
H1456  C1547   1.111   .     S
H1458  C1547   1.106   .     S
O1459  H1460   0.989   .     S
O1461  C1462   1.409   .     S
C1462  H1464   1.114   .     S
C1462  H1649   1.109   1_455 S
H1463  C634    1.113   1_556 S
H1465  C1554   1.109   .     S
O1466  C1467   1.418   .     S
C1467  H1468   1.115   .     S
C1467  H1469   1.111   .     S
C1467  H1470   1.107   .     S
O1471  H1472   0.990   .     S
C1473  O1506   1.296   .     A
C1473  O1507   1.303   .     A
C1473  C1489   1.452   .     S
C1474  C1475   1.419   .     A
C1474  C648    1.432   1_556 S
C1474  C672    1.419   1_556 S
C1475  C1479   1.415   .     A
C1475  C1482   1.430   .     A
C1476  C1480   1.408   .     A
C1477  C1478   1.404   .     A
C1477  C648    1.420   1_556 S
C1477  C668    1.407   1_556 S
C1478  O1537   1.381   .     S
C1478  C1479   1.398   .     A
C1479  O1558   1.387   .     S
C1480  C1497   1.412   .     A
C1480  O1544   1.381   .     S
C1481  C1497   1.412   .     A
C1481  O1514   1.378   .     S
C1481  C1496   1.409   .     A
C1482  C1498   1.412   .     A
C1482  C1484   1.502   .     S
C1483  C1489   1.407   .     A
C1483  O1563   1.382   .     S
C1483  C933    1.407   1_565 S
C1484  O1509   1.302   .     A
C1484  O1508   1.321   .     A
C1485  C1486   1.405   .     A
C1485  O1519   1.386   .     S
C1486  C1494   1.447   .     S
C1486  C1487   1.393   .     A
C1487  H1503   1.082   .     S
C1488  C1489   1.418   .     A
C1488  O1524   1.380   .     S
C1488  C935    1.382   1_565 S
C1490  N1505   1.368   .     A
C1490  O1526   1.375   .     S
C1490  C1583   1.428   .     S
C1491  O1528   1.374   .     S
C1491  N1504   1.380   .     A
C1492  O1530   1.381   .     S
C1492  N1504   1.366   .     A
C1493  N1505   1.383   .     A
C1493  O1535   1.370   .     S
C1493  C1584   1.421   .     S
C1494  O1510   1.300   .     A
C1494  O1511   1.297   .     A
C1495  O1512   1.302   .     A
C1495  O1513   1.307   .     A
C1495  C1497   1.474   .     S
C1496  O1539   1.391   .     S
C1498  C1499   1.403   .     A
C1498  O1546   1.381   .     S
C1499  C672    1.412   1_556 S
C1499  O725    1.383   1_556 S
C1500  O1551   1.382   .     S
Cu1501 O1508   1.975   .     S
Cu1501 N1504   2.035   .     S
Cu1501 O1510   1.961   .     S
Cu1501 O1506   1.962   .     S
Cu1501 Cu1502  2.708   .     S
Cu1501 O1512   1.965   .     S
Cu1502 O1507   1.961   .     S
Cu1502 O1513   1.975   .     S
Cu1502 O1509   1.965   .     S
Cu1502 N1505   2.035   .     S
Cu1502 O1511   1.962   .     S
O1514  C1515   1.416   .     S
C1515  H1517   1.108   .     S
C1515  H1518   1.111   .     S
C1515  H1608   1.105   .     S
O1519  C1520   1.415   .     S
C1520  H1522   1.115   .     S
C1520  H1523   1.110   .     S
C1520  H1521   1.107   .     S
O1524  H1525   0.985   .     S
O1526  H1527   0.990   .     S
O1528  H1529   0.982   .     S
O1530  C1531   1.411   .     S
C1531  H1532   1.111   .     S
C1531  H1533   1.109   .     S
C1531  H1534   1.109   .     S
O1535  H1536   0.981   .     S
O1537  H1538   0.991   .     S
C1540  H1541   1.109   .     S
C1540  H1542   1.110   .     S
C1540  O711    1.410   1_556 S
C1540  H715    1.109   1_556 S
O1544  H1545   0.990   .     S
O1546  C1547   1.411   .     S
C1547  H1549   1.115   .     S
H1548  C1639   1.111   .     S
H1550  C1639   1.106   .     S
O1551  H1552   0.989   .     S
O1553  C1554   1.409   .     S
C1554  H1556   1.114   .     S
H1555  C726    1.113   1_556 S
H1557  C1646   1.109   .     S
O1558  C1559   1.418   .     S
C1559  H1560   1.115   .     S
C1559  H1561   1.111   .     S
C1559  H1562   1.107   .     S
O1563  H1564   0.990   .     S
C1565  O1598   1.296   .     A
C1565  O1599   1.303   .     A
C1565  C1581   1.452   .     S
C1566  C1567   1.419   .     A
C1566  C740    1.432   1_556 S
C1566  C764    1.419   1_556 S
C1567  C1571   1.415   .     A
C1567  C1574   1.430   .     A
C1568  C1572   1.408   .     A
C1569  C1570   1.404   .     A
C1569  C740    1.420   1_556 S
C1569  C760    1.407   1_556 S
C1570  O1629   1.381   .     S
C1570  C1571   1.398   .     A
C1571  O1650   1.387   .     S
C1572  C1589   1.412   .     A
C1572  O1636   1.381   .     S
C1573  C1589   1.412   .     A
C1573  O1606   1.378   .     S
C1573  C1588   1.409   .     A
C1574  C1590   1.412   .     A
C1574  C1576   1.502   .     S
C1575  C1581   1.407   .     A
C1575  O1655   1.382   .     S
C1575  C1025   1.407   1_565 S
C1576  O1601   1.302   .     A
C1576  O1600   1.321   .     A
C1577  C1578   1.405   .     A
C1577  O1611   1.386   .     S
C1578  C1586   1.447   .     S
C1578  C1579   1.393   .     A
C1579  H1595   1.082   .     S
C1580  C1581   1.418   .     A
C1580  O1616   1.380   .     S
C1580  C1027   1.382   1_565 S
C1582  N1597   1.368   .     A
C1582  O1618   1.375   .     S
C1582  C1399   1.428   1_655 S
C1583  O1620   1.374   .     S
C1583  N1596   1.380   .     A
C1584  O1622   1.381   .     S
C1584  N1596   1.366   .     A
C1585  N1597   1.383   .     A
C1585  O1627   1.370   .     S
C1585  C1400   1.421   1_655 S
C1586  O1602   1.300   .     A
C1586  O1603   1.297   .     A
C1587  O1604   1.302   .     A
C1587  O1605   1.307   .     A
C1587  C1589   1.474   .     S
C1588  O1631   1.391   .     S
C1590  C1591   1.403   .     A
C1590  O1638   1.381   .     S
C1591  C764    1.412   1_556 S
C1591  O817    1.383   1_556 S
C1592  O1643   1.382   .     S
Cu1593 O1600   1.975   .     S
Cu1593 N1596   2.035   .     S
Cu1593 O1602   1.961   .     S
Cu1593 O1598   1.962   .     S
Cu1593 Cu1594  2.708   .     S
Cu1593 O1604   1.965   .     S
Cu1594 O1599   1.961   .     S
Cu1594 O1605   1.975   .     S
Cu1594 O1601   1.965   .     S
Cu1594 N1597   2.035   .     S
Cu1594 O1603   1.962   .     S
O1606  C1607   1.416   .     S
C1607  H1609   1.108   .     S
C1607  H1610   1.111   .     S
C1607  H1424   1.105   1_655 S
O1611  C1612   1.415   .     S
C1612  H1614   1.115   .     S
C1612  H1615   1.110   .     S
C1612  H1613   1.107   .     S
O1616  H1617   0.985   .     S
O1618  H1619   0.990   .     S
O1620  H1621   0.982   .     S
O1622  C1623   1.411   .     S
C1623  H1624   1.111   .     S
C1623  H1625   1.109   .     S
C1623  H1626   1.109   .     S
O1627  H1628   0.981   .     S
O1629  H1630   0.991   .     S
C1632  H1633   1.109   .     S
C1632  H1634   1.110   .     S
C1632  O803    1.410   1_556 S
C1632  H807    1.109   1_556 S
O1636  H1637   0.990   .     S
O1638  C1639   1.411   .     S
C1639  H1641   1.115   .     S
H1640  C1455   1.111   1_655 S
H1642  C1455   1.106   1_655 S
O1643  H1644   0.989   .     S
O1645  C1646   1.409   .     S
C1646  H1648   1.114   .     S
H1647  C818    1.113   1_556 S
H1649  C1462   1.109   1_655 S
O1650  C1651   1.418   .     S
C1651  H1652   1.115   .     S
C1651  H1653   1.111   .     S
C1651  H1654   1.107   .     S
O1655  H1656   0.990   .     S
