data_str_m2_o2_o10_pcu_sym.111
_audit_creation_date              2020-01-03
_audit_creation_method            'Materials Studio'
_symmetry_space_group_name_H-M    'P1'
_symmetry_Int_Tables_number       1
_symmetry_cell_setting            triclinic
loop_
_symmetry_equiv_pos_as_xyz
  x,y,z
_cell_length_a                    26.1906
_cell_length_b                    30.2670
_cell_length_c                    27.6674
_cell_angle_alpha                 90.3235
_cell_angle_beta                  97.9412
_cell_angle_gamma                 89.9521
loop_
_atom_site_label
_atom_site_type_symbol
_atom_site_fract_x
_atom_site_fract_y
_atom_site_fract_z
_atom_site_U_iso_or_equiv
_atom_site_adp_type
_atom_site_occupancy
C1     C     0.16713   0.16491   0.24988   0.00000  Uiso   1.00
C2     C     0.20601   0.27040   0.45178   0.00000  Uiso   1.00
C3     C     0.16698   0.24968   0.02729   0.00000  Uiso   1.00
C4     C     0.16637   0.24969   0.47272   0.00000  Uiso   1.00
C5     C     0.06787   0.24996   0.23753   0.00000  Uiso   1.00
C6     C     0.26547   0.24997   0.26246   0.00000  Uiso   1.00
C7     C     0.01261   0.24990   0.23063   0.00000  Uiso   1.00
C8     C     0.32072   0.24992   0.26937   0.00000  Uiso   1.00
C9     C     0.13923   0.04827   0.28382   0.00000  Uiso   1.00
C10    C     0.14211   0.45182   0.20765   0.00000  Uiso   1.00
C11    C     0.14253   0.09437   0.28441   0.00000  Uiso   1.00
C12    C     0.16711   0.33513   0.25025   0.00000  Uiso   1.00
C13    C     0.14519   0.40575   0.20822   0.00000  Uiso   1.00
C14    C     0.16652   0.11660   0.24934   0.00000  Uiso   1.00
C15    C     0.16653   0.38350   0.25058   0.00000  Uiso   1.00
C16    C     0.18906   0.09240   0.21409   0.00000  Uiso   1.00
C17    C     0.18652   0.40781   0.29260   0.00000  Uiso   1.00
C18    C     0.18715   0.04636   0.21449   0.00000  Uiso   1.00
C19    C     0.18459   0.45386   0.29155   0.00000  Uiso   1.00
C20    C     0.16263   0.02427   0.24916   0.00000  Uiso   1.00
C21    C     0.16269   0.47590   0.24941   0.00000  Uiso   1.00
C22    C     0.06216   0.03276   0.30916   0.00000  Uiso   1.00
C23    C     0.20657   0.22872   0.05876   0.00000  Uiso   1.00
C24    C     0.06737   0.47049   0.16057   0.00000  Uiso   1.00
C25    C     0.12656   0.22904   0.44097   0.00000  Uiso   1.00
C26    C     0.20525   0.22906   0.10971   0.00000  Uiso   1.00
C27    C     0.12788   0.22935   0.39003   0.00000  Uiso   1.00
C28    C     0.12827   0.27076   0.09948   0.00000  Uiso   1.00
C29    C     0.20524   0.27051   0.40079   0.00000  Uiso   1.00
C30    C     0.12752   0.27066   0.04849   0.00000  Uiso   1.00
Cu31   Cu    0.16667   0.24999   0.29821   0.00000  Uiso   1.00
Cu32   Cu    0.16667   0.25000   0.20178   0.00000  Uiso   1.00
H33    H     0.32596   0.24987   0.19347   0.00000  Uiso   1.00
H34    H     0.23573   0.28711   0.38538   0.00000  Uiso   1.00
H35    H     0.09648   0.28728   0.02570   0.00000  Uiso   1.00
H36    H     0.23721   0.28681   0.47479   0.00000  Uiso   1.00
H37    H     0.04653   0.02331   0.27104   0.00000  Uiso   1.00
H38    H     0.05162   0.06746   0.31674   0.00000  Uiso   1.00
H39    H     0.04346   0.01122   0.33386   0.00000  Uiso   1.00
H40    H     0.05213   0.48442   0.19305   0.00000  Uiso   1.00
H41    H     0.05410   0.43581   0.15389   0.00000  Uiso   1.00
H42    H     0.05091   0.49024   0.12849   0.00000  Uiso   1.00
H43    H     0.19798   0.10496   0.14412   0.00000  Uiso   1.00
H44    H     0.00737   0.24993   0.30653   0.00000  Uiso   1.00
H45    H     0.25353   0.10307   0.18328   0.00000  Uiso   1.00
H46    H     0.24823   0.39734   0.34370   0.00000  Uiso   1.00
H47    H     0.19064   0.39545   0.36471   0.00000  Uiso   1.00
H48    H     0.24734   0.17335   0.05015   0.00000  Uiso   1.00
H49    H     0.28228   0.22045   0.05481   0.00000  Uiso   1.00
H50    H     0.08517   0.17402   0.44887   0.00000  Uiso   1.00
H51    H     0.05075   0.22141   0.44482   0.00000  Uiso   1.00
H52    H     0.12571   0.11281   0.31195   0.00000  Uiso   1.00
H53    H     0.13013   0.38742   0.17560   0.00000  Uiso   1.00
H54    H     0.20560   0.02774   0.18813   0.00000  Uiso   1.00
H55    H     0.20099   0.47251   0.32351   0.00000  Uiso   1.00
H56    H     0.23527   0.21231   0.13354   0.00000  Uiso   1.00
H57    H     0.09767   0.21282   0.36599   0.00000  Uiso   1.00
H58    H     0.09791   0.28755   0.11510   0.00000  Uiso   1.00
N59    N     0.16667   0.25001   0.12934   0.00000  Uiso   1.00
N60    N     0.16667   0.24999   0.37065   0.00000  Uiso   1.00
N61    N     0.21542   0.11430   0.17896   0.00000  Uiso   1.00
N62    N     0.21025   0.38605   0.33584   0.00000  Uiso   1.00
N63    N     0.24739   0.20636   0.03920   0.00000  Uiso   1.00
N64    N     0.08549   0.20703   0.46025   0.00000  Uiso   1.00
O65    O     0.16667   0.18572   0.29071   0.00000  Uiso   1.00
O66    O     0.12155   0.47348   0.16553   0.00000  Uiso   1.00
O67    O     0.16666   0.31427   0.20928   0.00000  Uiso   1.00
O68    O     0.16667   0.18573   0.20928   0.00000  Uiso   1.00
O69    O     0.16666   0.31427   0.29072   0.00000  Uiso   1.00
O70    O     0.09161   0.24999   0.28132   0.00000  Uiso   1.00
O71    O     0.24172   0.25000   0.21868   0.00000  Uiso   1.00
O72    O     0.09161   0.25000   0.19988   0.00000  Uiso   1.00
O73    O     0.24172   0.25000   0.30011   0.00000  Uiso   1.00
O74    O     0.11595   0.02632   0.31872   0.00000  Uiso   1.00
C75    C     0.50047   0.16491   0.24988   0.00000  Uiso   1.00
C76    C     0.53935   0.27040   0.45178   0.00000  Uiso   1.00
C77    C     0.50032   0.24968   0.02729   0.00000  Uiso   1.00
C78    C     0.49970   0.24969   0.47272   0.00000  Uiso   1.00
C79    C     0.40120   0.24996   0.23753   0.00000  Uiso   1.00
C80    C     0.59880   0.24997   0.26246   0.00000  Uiso   1.00
C81    C     0.34595   0.24990   0.23063   0.00000  Uiso   1.00
C82    C     0.65405   0.24992   0.26937   0.00000  Uiso   1.00
C83    C     0.47257   0.04827   0.28382   0.00000  Uiso   1.00
C84    C     0.47545   0.45182   0.20765   0.00000  Uiso   1.00
C85    C     0.47586   0.09437   0.28441   0.00000  Uiso   1.00
C86    C     0.50044   0.33513   0.25025   0.00000  Uiso   1.00
C87    C     0.47852   0.40575   0.20822   0.00000  Uiso   1.00
C88    C     0.49986   0.11660   0.24934   0.00000  Uiso   1.00
C89    C     0.49986   0.38350   0.25058   0.00000  Uiso   1.00
C90    C     0.52239   0.09240   0.21409   0.00000  Uiso   1.00
C91    C     0.51985   0.40781   0.29260   0.00000  Uiso   1.00
C92    C     0.52049   0.04636   0.21449   0.00000  Uiso   1.00
C93    C     0.51792   0.45386   0.29155   0.00000  Uiso   1.00
C94    C     0.49596   0.02427   0.24916   0.00000  Uiso   1.00
C95    C     0.49603   0.47590   0.24941   0.00000  Uiso   1.00
C96    C     0.39550   0.03276   0.30916   0.00000  Uiso   1.00
C97    C     0.53990   0.22872   0.05876   0.00000  Uiso   1.00
C98    C     0.40070   0.47049   0.16057   0.00000  Uiso   1.00
C99    C     0.45989   0.22904   0.44097   0.00000  Uiso   1.00
C100   C     0.53858   0.22906   0.10971   0.00000  Uiso   1.00
C101   C     0.46121   0.22935   0.39003   0.00000  Uiso   1.00
C102   C     0.46161   0.27076   0.09948   0.00000  Uiso   1.00
C103   C     0.53857   0.27051   0.40079   0.00000  Uiso   1.00
C104   C     0.46086   0.27066   0.04849   0.00000  Uiso   1.00
Cu105  Cu    0.50000   0.24999   0.29821   0.00000  Uiso   1.00
Cu106  Cu    0.50000   0.25000   0.20178   0.00000  Uiso   1.00
H107   H     0.65929   0.24987   0.19347   0.00000  Uiso   1.00
H108   H     0.56907   0.28711   0.38538   0.00000  Uiso   1.00
H109   H     0.42982   0.28728   0.02570   0.00000  Uiso   1.00
H110   H     0.57054   0.28681   0.47479   0.00000  Uiso   1.00
H111   H     0.37987   0.02331   0.27104   0.00000  Uiso   1.00
H112   H     0.38496   0.06746   0.31674   0.00000  Uiso   1.00
H113   H     0.37679   0.01122   0.33386   0.00000  Uiso   1.00
H114   H     0.38546   0.48442   0.19305   0.00000  Uiso   1.00
H115   H     0.38743   0.43581   0.15389   0.00000  Uiso   1.00
H116   H     0.38424   0.49024   0.12849   0.00000  Uiso   1.00
H117   H     0.53132   0.10496   0.14412   0.00000  Uiso   1.00
H118   H     0.34071   0.24993   0.30653   0.00000  Uiso   1.00
H119   H     0.58687   0.10307   0.18328   0.00000  Uiso   1.00
H120   H     0.58156   0.39734   0.34370   0.00000  Uiso   1.00
H121   H     0.52398   0.39545   0.36471   0.00000  Uiso   1.00
H122   H     0.58067   0.17335   0.05015   0.00000  Uiso   1.00
H123   H     0.61562   0.22045   0.05481   0.00000  Uiso   1.00
H124   H     0.41850   0.17402   0.44887   0.00000  Uiso   1.00
H125   H     0.38409   0.22141   0.44482   0.00000  Uiso   1.00
H126   H     0.45904   0.11281   0.31195   0.00000  Uiso   1.00
H127   H     0.46347   0.38742   0.17560   0.00000  Uiso   1.00
H128   H     0.53893   0.02774   0.18813   0.00000  Uiso   1.00
H129   H     0.53432   0.47251   0.32351   0.00000  Uiso   1.00
H130   H     0.56860   0.21231   0.13354   0.00000  Uiso   1.00
H131   H     0.43100   0.21282   0.36599   0.00000  Uiso   1.00
H132   H     0.43124   0.28755   0.11510   0.00000  Uiso   1.00
N133   N     0.50000   0.25001   0.12934   0.00000  Uiso   1.00
N134   N     0.50000   0.24999   0.37065   0.00000  Uiso   1.00
N135   N     0.54875   0.11430   0.17896   0.00000  Uiso   1.00
N136   N     0.54359   0.38605   0.33584   0.00000  Uiso   1.00
N137   N     0.58072   0.20636   0.03920   0.00000  Uiso   1.00
N138   N     0.41882   0.20703   0.46025   0.00000  Uiso   1.00
O139   O     0.50000   0.18572   0.29071   0.00000  Uiso   1.00
O140   O     0.45489   0.47348   0.16553   0.00000  Uiso   1.00
O141   O     0.50000   0.31427   0.20928   0.00000  Uiso   1.00
O142   O     0.50000   0.18573   0.20928   0.00000  Uiso   1.00
O143   O     0.50000   0.31427   0.29072   0.00000  Uiso   1.00
O144   O     0.42495   0.24999   0.28132   0.00000  Uiso   1.00
O145   O     0.57505   0.25000   0.21868   0.00000  Uiso   1.00
O146   O     0.42495   0.25000   0.19988   0.00000  Uiso   1.00
O147   O     0.57505   0.25000   0.30011   0.00000  Uiso   1.00
O148   O     0.44928   0.02632   0.31872   0.00000  Uiso   1.00
C149   C     0.83380   0.16491   0.24988   0.00000  Uiso   1.00
C150   C     0.87268   0.27040   0.45178   0.00000  Uiso   1.00
C151   C     0.83365   0.24968   0.02729   0.00000  Uiso   1.00
C152   C     0.83304   0.24969   0.47272   0.00000  Uiso   1.00
C153   C     0.73453   0.24996   0.23753   0.00000  Uiso   1.00
C154   C     0.93213   0.24997   0.26246   0.00000  Uiso   1.00
C155   C     0.67928   0.24990   0.23063   0.00000  Uiso   1.00
C156   C     0.98738   0.24992   0.26937   0.00000  Uiso   1.00
C157   C     0.80590   0.04827   0.28382   0.00000  Uiso   1.00
C158   C     0.80878   0.45182   0.20765   0.00000  Uiso   1.00
C159   C     0.80920   0.09437   0.28441   0.00000  Uiso   1.00
C160   C     0.83378   0.33513   0.25025   0.00000  Uiso   1.00
C161   C     0.81185   0.40575   0.20822   0.00000  Uiso   1.00
C162   C     0.83319   0.11660   0.24934   0.00000  Uiso   1.00
C163   C     0.83320   0.38350   0.25058   0.00000  Uiso   1.00
C164   C     0.85572   0.09240   0.21409   0.00000  Uiso   1.00
C165   C     0.85318   0.40781   0.29260   0.00000  Uiso   1.00
C166   C     0.85382   0.04636   0.21449   0.00000  Uiso   1.00
C167   C     0.85126   0.45386   0.29155   0.00000  Uiso   1.00
C168   C     0.82929   0.02427   0.24916   0.00000  Uiso   1.00
C169   C     0.82936   0.47590   0.24941   0.00000  Uiso   1.00
C170   C     0.72883   0.03276   0.30916   0.00000  Uiso   1.00
C171   C     0.87323   0.22872   0.05876   0.00000  Uiso   1.00
C172   C     0.73403   0.47049   0.16057   0.00000  Uiso   1.00
C173   C     0.79323   0.22904   0.44097   0.00000  Uiso   1.00
C174   C     0.87191   0.22906   0.10971   0.00000  Uiso   1.00
C175   C     0.79454   0.22935   0.39003   0.00000  Uiso   1.00
C176   C     0.79494   0.27076   0.09948   0.00000  Uiso   1.00
C177   C     0.87190   0.27051   0.40079   0.00000  Uiso   1.00
C178   C     0.79419   0.27066   0.04849   0.00000  Uiso   1.00
Cu179  Cu    0.83333   0.24999   0.29821   0.00000  Uiso   1.00
Cu180  Cu    0.83333   0.25000   0.20178   0.00000  Uiso   1.00
H181   H     0.99262   0.24987   0.19347   0.00000  Uiso   1.00
H182   H     0.90240   0.28711   0.38538   0.00000  Uiso   1.00
H183   H     0.76315   0.28728   0.02570   0.00000  Uiso   1.00
H184   H     0.90387   0.28681   0.47479   0.00000  Uiso   1.00
H185   H     0.71320   0.02331   0.27104   0.00000  Uiso   1.00
H186   H     0.71829   0.06746   0.31674   0.00000  Uiso   1.00
H187   H     0.71012   0.01122   0.33386   0.00000  Uiso   1.00
H188   H     0.71880   0.48442   0.19305   0.00000  Uiso   1.00
H189   H     0.72077   0.43581   0.15389   0.00000  Uiso   1.00
H190   H     0.71757   0.49024   0.12849   0.00000  Uiso   1.00
H191   H     0.86465   0.10496   0.14412   0.00000  Uiso   1.00
H192   H     0.67404   0.24993   0.30653   0.00000  Uiso   1.00
H193   H     0.92020   0.10307   0.18328   0.00000  Uiso   1.00
H194   H     0.91490   0.39734   0.34370   0.00000  Uiso   1.00
H195   H     0.85731   0.39545   0.36471   0.00000  Uiso   1.00
H196   H     0.91400   0.17335   0.05015   0.00000  Uiso   1.00
H197   H     0.94895   0.22045   0.05481   0.00000  Uiso   1.00
H198   H     0.75184   0.17402   0.44887   0.00000  Uiso   1.00
H199   H     0.71742   0.22141   0.44482   0.00000  Uiso   1.00
H200   H     0.79237   0.11281   0.31195   0.00000  Uiso   1.00
H201   H     0.79680   0.38742   0.17560   0.00000  Uiso   1.00
H202   H     0.87227   0.02774   0.18813   0.00000  Uiso   1.00
H203   H     0.86766   0.47251   0.32351   0.00000  Uiso   1.00
H204   H     0.90194   0.21231   0.13354   0.00000  Uiso   1.00
H205   H     0.76433   0.21282   0.36599   0.00000  Uiso   1.00
H206   H     0.76457   0.28755   0.11510   0.00000  Uiso   1.00
N207   N     0.83333   0.25001   0.12934   0.00000  Uiso   1.00
N208   N     0.83333   0.24999   0.37065   0.00000  Uiso   1.00
N209   N     0.88208   0.11430   0.17896   0.00000  Uiso   1.00
N210   N     0.87692   0.38605   0.33584   0.00000  Uiso   1.00
N211   N     0.91406   0.20636   0.03920   0.00000  Uiso   1.00
N212   N     0.75215   0.20703   0.46025   0.00000  Uiso   1.00
O213   O     0.83334   0.18572   0.29071   0.00000  Uiso   1.00
O214   O     0.78822   0.47348   0.16553   0.00000  Uiso   1.00
O215   O     0.83333   0.31427   0.20928   0.00000  Uiso   1.00
O216   O     0.83334   0.18573   0.20928   0.00000  Uiso   1.00
O217   O     0.83333   0.31427   0.29072   0.00000  Uiso   1.00
O218   O     0.75828   0.24999   0.28132   0.00000  Uiso   1.00
O219   O     0.90839   0.25000   0.21868   0.00000  Uiso   1.00
O220   O     0.75828   0.25000   0.19988   0.00000  Uiso   1.00
O221   O     0.90839   0.25000   0.30011   0.00000  Uiso   1.00
O222   O     0.78261   0.02632   0.31872   0.00000  Uiso   1.00
C223   C     0.16713   0.66491   0.24988   0.00000  Uiso   1.00
C224   C     0.20601   0.77040   0.45178   0.00000  Uiso   1.00
C225   C     0.16698   0.74968   0.02729   0.00000  Uiso   1.00
C226   C     0.16637   0.74969   0.47272   0.00000  Uiso   1.00
C227   C     0.06787   0.74996   0.23753   0.00000  Uiso   1.00
C228   C     0.26547   0.74997   0.26246   0.00000  Uiso   1.00
C229   C     0.01261   0.74990   0.23063   0.00000  Uiso   1.00
C230   C     0.32072   0.74992   0.26937   0.00000  Uiso   1.00
C231   C     0.13923   0.54827   0.28382   0.00000  Uiso   1.00
C232   C     0.14211   0.95182   0.20765   0.00000  Uiso   1.00
C233   C     0.14253   0.59437   0.28441   0.00000  Uiso   1.00
C234   C     0.16711   0.83513   0.25025   0.00000  Uiso   1.00
C235   C     0.14519   0.90575   0.20822   0.00000  Uiso   1.00
C236   C     0.16652   0.61660   0.24934   0.00000  Uiso   1.00
C237   C     0.16653   0.88350   0.25058   0.00000  Uiso   1.00
C238   C     0.18906   0.59240   0.21409   0.00000  Uiso   1.00
C239   C     0.18652   0.90781   0.29260   0.00000  Uiso   1.00
C240   C     0.18715   0.54636   0.21449   0.00000  Uiso   1.00
C241   C     0.18459   0.95386   0.29155   0.00000  Uiso   1.00
C242   C     0.16263   0.52427   0.24916   0.00000  Uiso   1.00
C243   C     0.16269   0.97590   0.24941   0.00000  Uiso   1.00
C244   C     0.06216   0.53276   0.30916   0.00000  Uiso   1.00
C245   C     0.20657   0.72872   0.05876   0.00000  Uiso   1.00
C246   C     0.06737   0.97049   0.16057   0.00000  Uiso   1.00
C247   C     0.12656   0.72904   0.44097   0.00000  Uiso   1.00
C248   C     0.20525   0.72906   0.10971   0.00000  Uiso   1.00
C249   C     0.12788   0.72935   0.39003   0.00000  Uiso   1.00
C250   C     0.12827   0.77076   0.09948   0.00000  Uiso   1.00
C251   C     0.20524   0.77051   0.40079   0.00000  Uiso   1.00
C252   C     0.12752   0.77066   0.04849   0.00000  Uiso   1.00
Cu253  Cu    0.16667   0.74999   0.29821   0.00000  Uiso   1.00
Cu254  Cu    0.16667   0.75000   0.20178   0.00000  Uiso   1.00
H255   H     0.32596   0.74987   0.19347   0.00000  Uiso   1.00
H256   H     0.23573   0.78711   0.38538   0.00000  Uiso   1.00
H257   H     0.09648   0.78728   0.02570   0.00000  Uiso   1.00
H258   H     0.23721   0.78681   0.47479   0.00000  Uiso   1.00
H259   H     0.04653   0.52331   0.27104   0.00000  Uiso   1.00
H260   H     0.05162   0.56746   0.31674   0.00000  Uiso   1.00
H261   H     0.04346   0.51122   0.33386   0.00000  Uiso   1.00
H262   H     0.05213   0.98442   0.19305   0.00000  Uiso   1.00
H263   H     0.05410   0.93581   0.15389   0.00000  Uiso   1.00
H264   H     0.05091   0.99024   0.12849   0.00000  Uiso   1.00
H265   H     0.19798   0.60496   0.14412   0.00000  Uiso   1.00
H266   H     0.00737   0.74993   0.30653   0.00000  Uiso   1.00
H267   H     0.25353   0.60307   0.18328   0.00000  Uiso   1.00
H268   H     0.24823   0.89734   0.34370   0.00000  Uiso   1.00
H269   H     0.19064   0.89545   0.36471   0.00000  Uiso   1.00
H270   H     0.24734   0.67335   0.05015   0.00000  Uiso   1.00
H271   H     0.28228   0.72045   0.05481   0.00000  Uiso   1.00
H272   H     0.08517   0.67402   0.44887   0.00000  Uiso   1.00
H273   H     0.05075   0.72141   0.44482   0.00000  Uiso   1.00
H274   H     0.12571   0.61281   0.31195   0.00000  Uiso   1.00
H275   H     0.13013   0.88742   0.17560   0.00000  Uiso   1.00
H276   H     0.20560   0.52774   0.18813   0.00000  Uiso   1.00
H277   H     0.20099   0.97251   0.32351   0.00000  Uiso   1.00
H278   H     0.23527   0.71231   0.13354   0.00000  Uiso   1.00
H279   H     0.09767   0.71282   0.36599   0.00000  Uiso   1.00
H280   H     0.09791   0.78755   0.11510   0.00000  Uiso   1.00
N281   N     0.16667   0.75001   0.12934   0.00000  Uiso   1.00
N282   N     0.16667   0.74999   0.37065   0.00000  Uiso   1.00
N283   N     0.21542   0.61430   0.17896   0.00000  Uiso   1.00
N284   N     0.21025   0.88605   0.33584   0.00000  Uiso   1.00
N285   N     0.24739   0.70636   0.03920   0.00000  Uiso   1.00
N286   N     0.08549   0.70703   0.46025   0.00000  Uiso   1.00
O287   O     0.16667   0.68572   0.29071   0.00000  Uiso   1.00
O288   O     0.12155   0.97348   0.16553   0.00000  Uiso   1.00
O289   O     0.16666   0.81427   0.20928   0.00000  Uiso   1.00
O290   O     0.16667   0.68573   0.20928   0.00000  Uiso   1.00
O291   O     0.16666   0.81427   0.29072   0.00000  Uiso   1.00
O292   O     0.09161   0.74999   0.28132   0.00000  Uiso   1.00
O293   O     0.24172   0.75000   0.21868   0.00000  Uiso   1.00
O294   O     0.09161   0.75000   0.19988   0.00000  Uiso   1.00
O295   O     0.24172   0.75000   0.30011   0.00000  Uiso   1.00
O296   O     0.11595   0.52632   0.31872   0.00000  Uiso   1.00
C297   C     0.50047   0.66491   0.24988   0.00000  Uiso   1.00
C298   C     0.53935   0.77040   0.45178   0.00000  Uiso   1.00
C299   C     0.50032   0.74968   0.02729   0.00000  Uiso   1.00
C300   C     0.49970   0.74969   0.47272   0.00000  Uiso   1.00
C301   C     0.40120   0.74996   0.23753   0.00000  Uiso   1.00
C302   C     0.59880   0.74997   0.26246   0.00000  Uiso   1.00
C303   C     0.34595   0.74990   0.23063   0.00000  Uiso   1.00
C304   C     0.65405   0.74992   0.26937   0.00000  Uiso   1.00
C305   C     0.47257   0.54827   0.28382   0.00000  Uiso   1.00
C306   C     0.47545   0.95182   0.20765   0.00000  Uiso   1.00
C307   C     0.47586   0.59437   0.28441   0.00000  Uiso   1.00
C308   C     0.50044   0.83513   0.25025   0.00000  Uiso   1.00
C309   C     0.47852   0.90575   0.20822   0.00000  Uiso   1.00
C310   C     0.49986   0.61660   0.24934   0.00000  Uiso   1.00
C311   C     0.49986   0.88350   0.25058   0.00000  Uiso   1.00
C312   C     0.52239   0.59240   0.21409   0.00000  Uiso   1.00
C313   C     0.51985   0.90781   0.29260   0.00000  Uiso   1.00
C314   C     0.52049   0.54636   0.21449   0.00000  Uiso   1.00
C315   C     0.51792   0.95386   0.29155   0.00000  Uiso   1.00
C316   C     0.49596   0.52427   0.24916   0.00000  Uiso   1.00
C317   C     0.49603   0.97590   0.24941   0.00000  Uiso   1.00
C318   C     0.39550   0.53276   0.30916   0.00000  Uiso   1.00
C319   C     0.53990   0.72872   0.05876   0.00000  Uiso   1.00
C320   C     0.40070   0.97049   0.16057   0.00000  Uiso   1.00
C321   C     0.45989   0.72904   0.44097   0.00000  Uiso   1.00
C322   C     0.53858   0.72906   0.10971   0.00000  Uiso   1.00
C323   C     0.46121   0.72935   0.39003   0.00000  Uiso   1.00
C324   C     0.46161   0.77076   0.09948   0.00000  Uiso   1.00
C325   C     0.53857   0.77051   0.40079   0.00000  Uiso   1.00
C326   C     0.46086   0.77066   0.04849   0.00000  Uiso   1.00
Cu327  Cu    0.50000   0.74999   0.29821   0.00000  Uiso   1.00
Cu328  Cu    0.50000   0.75000   0.20178   0.00000  Uiso   1.00
H329   H     0.65929   0.74987   0.19347   0.00000  Uiso   1.00
H330   H     0.56907   0.78711   0.38538   0.00000  Uiso   1.00
H331   H     0.42982   0.78728   0.02570   0.00000  Uiso   1.00
H332   H     0.57054   0.78681   0.47479   0.00000  Uiso   1.00
H333   H     0.37987   0.52331   0.27104   0.00000  Uiso   1.00
H334   H     0.38496   0.56746   0.31674   0.00000  Uiso   1.00
H335   H     0.37679   0.51122   0.33386   0.00000  Uiso   1.00
H336   H     0.38546   0.98442   0.19305   0.00000  Uiso   1.00
H337   H     0.38743   0.93581   0.15389   0.00000  Uiso   1.00
H338   H     0.38424   0.99024   0.12849   0.00000  Uiso   1.00
H339   H     0.53132   0.60496   0.14412   0.00000  Uiso   1.00
H340   H     0.34071   0.74993   0.30653   0.00000  Uiso   1.00
H341   H     0.58687   0.60307   0.18328   0.00000  Uiso   1.00
H342   H     0.58156   0.89734   0.34370   0.00000  Uiso   1.00
H343   H     0.52398   0.89545   0.36471   0.00000  Uiso   1.00
H344   H     0.58067   0.67335   0.05015   0.00000  Uiso   1.00
H345   H     0.61562   0.72045   0.05481   0.00000  Uiso   1.00
H346   H     0.41850   0.67402   0.44887   0.00000  Uiso   1.00
H347   H     0.38409   0.72141   0.44482   0.00000  Uiso   1.00
H348   H     0.45904   0.61281   0.31195   0.00000  Uiso   1.00
H349   H     0.46347   0.88742   0.17560   0.00000  Uiso   1.00
H350   H     0.53893   0.52774   0.18813   0.00000  Uiso   1.00
H351   H     0.53432   0.97251   0.32351   0.00000  Uiso   1.00
H352   H     0.56860   0.71231   0.13354   0.00000  Uiso   1.00
H353   H     0.43100   0.71282   0.36599   0.00000  Uiso   1.00
H354   H     0.43124   0.78755   0.11510   0.00000  Uiso   1.00
N355   N     0.50000   0.75001   0.12934   0.00000  Uiso   1.00
N356   N     0.50000   0.74999   0.37065   0.00000  Uiso   1.00
N357   N     0.54875   0.61430   0.17896   0.00000  Uiso   1.00
N358   N     0.54359   0.88605   0.33584   0.00000  Uiso   1.00
N359   N     0.58072   0.70636   0.03920   0.00000  Uiso   1.00
N360   N     0.41882   0.70703   0.46025   0.00000  Uiso   1.00
O361   O     0.50000   0.68572   0.29071   0.00000  Uiso   1.00
O362   O     0.45489   0.97348   0.16553   0.00000  Uiso   1.00
O363   O     0.50000   0.81427   0.20928   0.00000  Uiso   1.00
O364   O     0.50000   0.68573   0.20928   0.00000  Uiso   1.00
O365   O     0.50000   0.81427   0.29072   0.00000  Uiso   1.00
O366   O     0.42495   0.74999   0.28132   0.00000  Uiso   1.00
O367   O     0.57505   0.75000   0.21868   0.00000  Uiso   1.00
O368   O     0.42495   0.75000   0.19988   0.00000  Uiso   1.00
O369   O     0.57505   0.75000   0.30011   0.00000  Uiso   1.00
O370   O     0.44928   0.52632   0.31872   0.00000  Uiso   1.00
C371   C     0.83380   0.66491   0.24988   0.00000  Uiso   1.00
C372   C     0.87268   0.77040   0.45178   0.00000  Uiso   1.00
C373   C     0.83365   0.74968   0.02729   0.00000  Uiso   1.00
C374   C     0.83304   0.74969   0.47272   0.00000  Uiso   1.00
C375   C     0.73453   0.74996   0.23753   0.00000  Uiso   1.00
C376   C     0.93213   0.74997   0.26246   0.00000  Uiso   1.00
C377   C     0.67928   0.74990   0.23063   0.00000  Uiso   1.00
C378   C     0.98738   0.74992   0.26937   0.00000  Uiso   1.00
C379   C     0.80590   0.54827   0.28382   0.00000  Uiso   1.00
C380   C     0.80878   0.95182   0.20765   0.00000  Uiso   1.00
C381   C     0.80920   0.59437   0.28441   0.00000  Uiso   1.00
C382   C     0.83378   0.83513   0.25025   0.00000  Uiso   1.00
C383   C     0.81185   0.90575   0.20822   0.00000  Uiso   1.00
C384   C     0.83319   0.61660   0.24934   0.00000  Uiso   1.00
C385   C     0.83320   0.88350   0.25058   0.00000  Uiso   1.00
C386   C     0.85572   0.59240   0.21409   0.00000  Uiso   1.00
C387   C     0.85318   0.90781   0.29260   0.00000  Uiso   1.00
C388   C     0.85382   0.54636   0.21449   0.00000  Uiso   1.00
C389   C     0.85126   0.95386   0.29155   0.00000  Uiso   1.00
C390   C     0.82929   0.52427   0.24916   0.00000  Uiso   1.00
C391   C     0.82936   0.97590   0.24941   0.00000  Uiso   1.00
C392   C     0.72883   0.53276   0.30916   0.00000  Uiso   1.00
C393   C     0.87323   0.72872   0.05876   0.00000  Uiso   1.00
C394   C     0.73403   0.97049   0.16057   0.00000  Uiso   1.00
C395   C     0.79323   0.72904   0.44097   0.00000  Uiso   1.00
C396   C     0.87191   0.72906   0.10971   0.00000  Uiso   1.00
C397   C     0.79454   0.72935   0.39003   0.00000  Uiso   1.00
C398   C     0.79494   0.77076   0.09948   0.00000  Uiso   1.00
C399   C     0.87190   0.77051   0.40079   0.00000  Uiso   1.00
C400   C     0.79419   0.77066   0.04849   0.00000  Uiso   1.00
Cu401  Cu    0.83333   0.74999   0.29821   0.00000  Uiso   1.00
Cu402  Cu    0.83333   0.75000   0.20178   0.00000  Uiso   1.00
H403   H     0.99262   0.74987   0.19347   0.00000  Uiso   1.00
H404   H     0.90240   0.78711   0.38538   0.00000  Uiso   1.00
H405   H     0.76315   0.78728   0.02570   0.00000  Uiso   1.00
H406   H     0.90387   0.78681   0.47479   0.00000  Uiso   1.00
H407   H     0.71320   0.52331   0.27104   0.00000  Uiso   1.00
H408   H     0.71829   0.56746   0.31674   0.00000  Uiso   1.00
H409   H     0.71012   0.51122   0.33386   0.00000  Uiso   1.00
H410   H     0.71880   0.98442   0.19305   0.00000  Uiso   1.00
H411   H     0.72077   0.93581   0.15389   0.00000  Uiso   1.00
H412   H     0.71757   0.99024   0.12849   0.00000  Uiso   1.00
H413   H     0.86465   0.60496   0.14412   0.00000  Uiso   1.00
H414   H     0.67404   0.74993   0.30653   0.00000  Uiso   1.00
H415   H     0.92020   0.60307   0.18328   0.00000  Uiso   1.00
H416   H     0.91490   0.89734   0.34370   0.00000  Uiso   1.00
H417   H     0.85731   0.89545   0.36471   0.00000  Uiso   1.00
H418   H     0.91400   0.67335   0.05015   0.00000  Uiso   1.00
H419   H     0.94895   0.72045   0.05481   0.00000  Uiso   1.00
H420   H     0.75184   0.67402   0.44887   0.00000  Uiso   1.00
H421   H     0.71742   0.72141   0.44482   0.00000  Uiso   1.00
H422   H     0.79237   0.61281   0.31195   0.00000  Uiso   1.00
H423   H     0.79680   0.88742   0.17560   0.00000  Uiso   1.00
H424   H     0.87227   0.52774   0.18813   0.00000  Uiso   1.00
H425   H     0.86766   0.97251   0.32351   0.00000  Uiso   1.00
H426   H     0.90194   0.71231   0.13354   0.00000  Uiso   1.00
H427   H     0.76433   0.71282   0.36599   0.00000  Uiso   1.00
H428   H     0.76457   0.78755   0.11510   0.00000  Uiso   1.00
N429   N     0.83333   0.75001   0.12934   0.00000  Uiso   1.00
N430   N     0.83333   0.74999   0.37065   0.00000  Uiso   1.00
N431   N     0.88208   0.61430   0.17896   0.00000  Uiso   1.00
N432   N     0.87692   0.88605   0.33584   0.00000  Uiso   1.00
N433   N     0.91406   0.70636   0.03920   0.00000  Uiso   1.00
N434   N     0.75215   0.70703   0.46025   0.00000  Uiso   1.00
O435   O     0.83334   0.68572   0.29071   0.00000  Uiso   1.00
O436   O     0.78822   0.97348   0.16553   0.00000  Uiso   1.00
O437   O     0.83333   0.81427   0.20928   0.00000  Uiso   1.00
O438   O     0.83334   0.68573   0.20928   0.00000  Uiso   1.00
O439   O     0.83333   0.81427   0.29072   0.00000  Uiso   1.00
O440   O     0.75828   0.74999   0.28132   0.00000  Uiso   1.00
O441   O     0.90839   0.75000   0.21868   0.00000  Uiso   1.00
O442   O     0.75828   0.75000   0.19988   0.00000  Uiso   1.00
O443   O     0.90839   0.75000   0.30011   0.00000  Uiso   1.00
O444   O     0.78261   0.52632   0.31872   0.00000  Uiso   1.00
C445   C     0.16713   0.16491   0.74988   0.00000  Uiso   1.00
C446   C     0.20601   0.27040   0.95178   0.00000  Uiso   1.00
C447   C     0.16698   0.24968   0.52729   0.00000  Uiso   1.00
C448   C     0.16637   0.24969   0.97272   0.00000  Uiso   1.00
C449   C     0.06787   0.24996   0.73753   0.00000  Uiso   1.00
C450   C     0.26547   0.24997   0.76246   0.00000  Uiso   1.00
C451   C     0.01261   0.24990   0.73063   0.00000  Uiso   1.00
C452   C     0.32072   0.24992   0.76937   0.00000  Uiso   1.00
C453   C     0.13923   0.04827   0.78382   0.00000  Uiso   1.00
C454   C     0.14211   0.45182   0.70765   0.00000  Uiso   1.00
C455   C     0.14253   0.09437   0.78441   0.00000  Uiso   1.00
C456   C     0.16711   0.33513   0.75025   0.00000  Uiso   1.00
C457   C     0.14519   0.40575   0.70822   0.00000  Uiso   1.00
C458   C     0.16652   0.11660   0.74934   0.00000  Uiso   1.00
C459   C     0.16653   0.38350   0.75058   0.00000  Uiso   1.00
C460   C     0.18906   0.09240   0.71409   0.00000  Uiso   1.00
C461   C     0.18652   0.40781   0.79260   0.00000  Uiso   1.00
C462   C     0.18715   0.04636   0.71449   0.00000  Uiso   1.00
C463   C     0.18459   0.45386   0.79155   0.00000  Uiso   1.00
C464   C     0.16263   0.02427   0.74916   0.00000  Uiso   1.00
C465   C     0.16269   0.47590   0.74941   0.00000  Uiso   1.00
C466   C     0.06216   0.03276   0.80916   0.00000  Uiso   1.00
C467   C     0.20657   0.22872   0.55876   0.00000  Uiso   1.00
C468   C     0.06737   0.47049   0.66057   0.00000  Uiso   1.00
C469   C     0.12656   0.22904   0.94097   0.00000  Uiso   1.00
C470   C     0.20525   0.22906   0.60971   0.00000  Uiso   1.00
C471   C     0.12788   0.22935   0.89003   0.00000  Uiso   1.00
C472   C     0.12827   0.27076   0.59948   0.00000  Uiso   1.00
C473   C     0.20524   0.27051   0.90079   0.00000  Uiso   1.00
C474   C     0.12752   0.27066   0.54849   0.00000  Uiso   1.00
Cu475  Cu    0.16667   0.24999   0.79821   0.00000  Uiso   1.00
Cu476  Cu    0.16667   0.25000   0.70178   0.00000  Uiso   1.00
H477   H     0.32596   0.24987   0.69347   0.00000  Uiso   1.00
H478   H     0.23573   0.28711   0.88538   0.00000  Uiso   1.00
H479   H     0.09648   0.28728   0.52570   0.00000  Uiso   1.00
H480   H     0.23721   0.28681   0.97479   0.00000  Uiso   1.00
H481   H     0.04653   0.02331   0.77104   0.00000  Uiso   1.00
H482   H     0.05162   0.06746   0.81674   0.00000  Uiso   1.00
H483   H     0.04346   0.01122   0.83386   0.00000  Uiso   1.00
H484   H     0.05213   0.48442   0.69305   0.00000  Uiso   1.00
H485   H     0.05410   0.43581   0.65389   0.00000  Uiso   1.00
H486   H     0.05091   0.49024   0.62849   0.00000  Uiso   1.00
H487   H     0.19798   0.10496   0.64412   0.00000  Uiso   1.00
H488   H     0.00737   0.24993   0.80653   0.00000  Uiso   1.00
H489   H     0.25353   0.10307   0.68328   0.00000  Uiso   1.00
H490   H     0.24823   0.39734   0.84370   0.00000  Uiso   1.00
H491   H     0.19064   0.39545   0.86471   0.00000  Uiso   1.00
H492   H     0.24734   0.17335   0.55015   0.00000  Uiso   1.00
H493   H     0.28228   0.22045   0.55481   0.00000  Uiso   1.00
H494   H     0.08517   0.17402   0.94887   0.00000  Uiso   1.00
H495   H     0.05075   0.22141   0.94482   0.00000  Uiso   1.00
H496   H     0.12571   0.11281   0.81195   0.00000  Uiso   1.00
H497   H     0.13013   0.38742   0.67560   0.00000  Uiso   1.00
H498   H     0.20560   0.02774   0.68813   0.00000  Uiso   1.00
H499   H     0.20099   0.47251   0.82351   0.00000  Uiso   1.00
H500   H     0.23527   0.21231   0.63354   0.00000  Uiso   1.00
H501   H     0.09767   0.21282   0.86599   0.00000  Uiso   1.00
H502   H     0.09791   0.28755   0.61510   0.00000  Uiso   1.00
N503   N     0.16667   0.25001   0.62934   0.00000  Uiso   1.00
N504   N     0.16667   0.24999   0.87065   0.00000  Uiso   1.00
N505   N     0.21542   0.11430   0.67896   0.00000  Uiso   1.00
N506   N     0.21025   0.38605   0.83584   0.00000  Uiso   1.00
N507   N     0.24739   0.20636   0.53920   0.00000  Uiso   1.00
N508   N     0.08549   0.20703   0.96025   0.00000  Uiso   1.00
O509   O     0.16667   0.18572   0.79071   0.00000  Uiso   1.00
O510   O     0.12155   0.47348   0.66553   0.00000  Uiso   1.00
O511   O     0.16666   0.31427   0.70928   0.00000  Uiso   1.00
O512   O     0.16667   0.18573   0.70928   0.00000  Uiso   1.00
O513   O     0.16666   0.31427   0.79072   0.00000  Uiso   1.00
O514   O     0.09161   0.24999   0.78132   0.00000  Uiso   1.00
O515   O     0.24172   0.25000   0.71868   0.00000  Uiso   1.00
O516   O     0.09161   0.25000   0.69988   0.00000  Uiso   1.00
O517   O     0.24172   0.25000   0.80011   0.00000  Uiso   1.00
O518   O     0.11595   0.02632   0.81872   0.00000  Uiso   1.00
C519   C     0.50047   0.16491   0.74988   0.00000  Uiso   1.00
C520   C     0.53935   0.27040   0.95178   0.00000  Uiso   1.00
C521   C     0.50032   0.24968   0.52729   0.00000  Uiso   1.00
C522   C     0.49970   0.24969   0.97272   0.00000  Uiso   1.00
C523   C     0.40120   0.24996   0.73753   0.00000  Uiso   1.00
C524   C     0.59880   0.24997   0.76246   0.00000  Uiso   1.00
C525   C     0.34595   0.24990   0.73063   0.00000  Uiso   1.00
C526   C     0.65405   0.24992   0.76937   0.00000  Uiso   1.00
C527   C     0.47257   0.04827   0.78382   0.00000  Uiso   1.00
C528   C     0.47545   0.45182   0.70765   0.00000  Uiso   1.00
C529   C     0.47586   0.09437   0.78441   0.00000  Uiso   1.00
C530   C     0.50044   0.33513   0.75025   0.00000  Uiso   1.00
C531   C     0.47852   0.40575   0.70822   0.00000  Uiso   1.00
C532   C     0.49986   0.11660   0.74934   0.00000  Uiso   1.00
C533   C     0.49986   0.38350   0.75058   0.00000  Uiso   1.00
C534   C     0.52239   0.09240   0.71409   0.00000  Uiso   1.00
C535   C     0.51985   0.40781   0.79260   0.00000  Uiso   1.00
C536   C     0.52049   0.04636   0.71449   0.00000  Uiso   1.00
C537   C     0.51792   0.45386   0.79155   0.00000  Uiso   1.00
C538   C     0.49596   0.02427   0.74916   0.00000  Uiso   1.00
C539   C     0.49603   0.47590   0.74941   0.00000  Uiso   1.00
C540   C     0.39550   0.03276   0.80916   0.00000  Uiso   1.00
C541   C     0.53990   0.22872   0.55876   0.00000  Uiso   1.00
C542   C     0.40070   0.47049   0.66057   0.00000  Uiso   1.00
C543   C     0.45989   0.22904   0.94097   0.00000  Uiso   1.00
C544   C     0.53858   0.22906   0.60971   0.00000  Uiso   1.00
C545   C     0.46121   0.22935   0.89003   0.00000  Uiso   1.00
C546   C     0.46161   0.27076   0.59948   0.00000  Uiso   1.00
C547   C     0.53857   0.27051   0.90079   0.00000  Uiso   1.00
C548   C     0.46086   0.27066   0.54849   0.00000  Uiso   1.00
Cu549  Cu    0.50000   0.24999   0.79821   0.00000  Uiso   1.00
Cu550  Cu    0.50000   0.25000   0.70178   0.00000  Uiso   1.00
H551   H     0.65929   0.24987   0.69347   0.00000  Uiso   1.00
H552   H     0.56907   0.28711   0.88538   0.00000  Uiso   1.00
H553   H     0.42982   0.28728   0.52570   0.00000  Uiso   1.00
H554   H     0.57054   0.28681   0.97479   0.00000  Uiso   1.00
H555   H     0.37987   0.02331   0.77104   0.00000  Uiso   1.00
H556   H     0.38496   0.06746   0.81674   0.00000  Uiso   1.00
H557   H     0.37679   0.01122   0.83386   0.00000  Uiso   1.00
H558   H     0.38546   0.48442   0.69305   0.00000  Uiso   1.00
H559   H     0.38743   0.43581   0.65389   0.00000  Uiso   1.00
H560   H     0.38424   0.49024   0.62849   0.00000  Uiso   1.00
H561   H     0.53132   0.10496   0.64412   0.00000  Uiso   1.00
H562   H     0.34071   0.24993   0.80653   0.00000  Uiso   1.00
H563   H     0.58687   0.10307   0.68328   0.00000  Uiso   1.00
H564   H     0.58156   0.39734   0.84370   0.00000  Uiso   1.00
H565   H     0.52398   0.39545   0.86471   0.00000  Uiso   1.00
H566   H     0.58067   0.17335   0.55015   0.00000  Uiso   1.00
H567   H     0.61562   0.22045   0.55481   0.00000  Uiso   1.00
H568   H     0.41850   0.17402   0.94887   0.00000  Uiso   1.00
H569   H     0.38409   0.22141   0.94482   0.00000  Uiso   1.00
H570   H     0.45904   0.11281   0.81195   0.00000  Uiso   1.00
H571   H     0.46347   0.38742   0.67560   0.00000  Uiso   1.00
H572   H     0.53893   0.02774   0.68813   0.00000  Uiso   1.00
H573   H     0.53432   0.47251   0.82351   0.00000  Uiso   1.00
H574   H     0.56860   0.21231   0.63354   0.00000  Uiso   1.00
H575   H     0.43100   0.21282   0.86599   0.00000  Uiso   1.00
H576   H     0.43124   0.28755   0.61510   0.00000  Uiso   1.00
N577   N     0.50000   0.25001   0.62934   0.00000  Uiso   1.00
N578   N     0.50000   0.24999   0.87065   0.00000  Uiso   1.00
N579   N     0.54875   0.11430   0.67896   0.00000  Uiso   1.00
N580   N     0.54359   0.38605   0.83584   0.00000  Uiso   1.00
N581   N     0.58072   0.20636   0.53920   0.00000  Uiso   1.00
N582   N     0.41882   0.20703   0.96025   0.00000  Uiso   1.00
O583   O     0.50000   0.18572   0.79071   0.00000  Uiso   1.00
O584   O     0.45489   0.47348   0.66553   0.00000  Uiso   1.00
O585   O     0.50000   0.31427   0.70928   0.00000  Uiso   1.00
O586   O     0.50000   0.18573   0.70928   0.00000  Uiso   1.00
O587   O     0.50000   0.31427   0.79072   0.00000  Uiso   1.00
O588   O     0.42495   0.24999   0.78132   0.00000  Uiso   1.00
O589   O     0.57505   0.25000   0.71868   0.00000  Uiso   1.00
O590   O     0.42495   0.25000   0.69988   0.00000  Uiso   1.00
O591   O     0.57505   0.25000   0.80011   0.00000  Uiso   1.00
O592   O     0.44928   0.02632   0.81872   0.00000  Uiso   1.00
C593   C     0.83380   0.16491   0.74988   0.00000  Uiso   1.00
C594   C     0.87268   0.27040   0.95178   0.00000  Uiso   1.00
C595   C     0.83365   0.24968   0.52729   0.00000  Uiso   1.00
C596   C     0.83304   0.24969   0.97272   0.00000  Uiso   1.00
C597   C     0.73453   0.24996   0.73753   0.00000  Uiso   1.00
C598   C     0.93213   0.24997   0.76246   0.00000  Uiso   1.00
C599   C     0.67928   0.24990   0.73063   0.00000  Uiso   1.00
C600   C     0.98738   0.24992   0.76937   0.00000  Uiso   1.00
C601   C     0.80590   0.04827   0.78382   0.00000  Uiso   1.00
C602   C     0.80878   0.45182   0.70765   0.00000  Uiso   1.00
C603   C     0.80920   0.09437   0.78441   0.00000  Uiso   1.00
C604   C     0.83378   0.33513   0.75025   0.00000  Uiso   1.00
C605   C     0.81185   0.40575   0.70822   0.00000  Uiso   1.00
C606   C     0.83319   0.11660   0.74934   0.00000  Uiso   1.00
C607   C     0.83320   0.38350   0.75058   0.00000  Uiso   1.00
C608   C     0.85572   0.09240   0.71409   0.00000  Uiso   1.00
C609   C     0.85318   0.40781   0.79260   0.00000  Uiso   1.00
C610   C     0.85382   0.04636   0.71449   0.00000  Uiso   1.00
C611   C     0.85126   0.45386   0.79155   0.00000  Uiso   1.00
C612   C     0.82929   0.02427   0.74916   0.00000  Uiso   1.00
C613   C     0.82936   0.47590   0.74941   0.00000  Uiso   1.00
C614   C     0.72883   0.03276   0.80916   0.00000  Uiso   1.00
C615   C     0.87323   0.22872   0.55876   0.00000  Uiso   1.00
C616   C     0.73403   0.47049   0.66057   0.00000  Uiso   1.00
C617   C     0.79323   0.22904   0.94097   0.00000  Uiso   1.00
C618   C     0.87191   0.22906   0.60971   0.00000  Uiso   1.00
C619   C     0.79454   0.22935   0.89003   0.00000  Uiso   1.00
C620   C     0.79494   0.27076   0.59948   0.00000  Uiso   1.00
C621   C     0.87190   0.27051   0.90079   0.00000  Uiso   1.00
C622   C     0.79419   0.27066   0.54849   0.00000  Uiso   1.00
Cu623  Cu    0.83333   0.24999   0.79821   0.00000  Uiso   1.00
Cu624  Cu    0.83333   0.25000   0.70178   0.00000  Uiso   1.00
H625   H     0.99262   0.24987   0.69347   0.00000  Uiso   1.00
H626   H     0.90240   0.28711   0.88538   0.00000  Uiso   1.00
H627   H     0.76315   0.28728   0.52570   0.00000  Uiso   1.00
H628   H     0.90387   0.28681   0.97479   0.00000  Uiso   1.00
H629   H     0.71320   0.02331   0.77104   0.00000  Uiso   1.00
H630   H     0.71829   0.06746   0.81674   0.00000  Uiso   1.00
H631   H     0.71012   0.01122   0.83386   0.00000  Uiso   1.00
H632   H     0.71880   0.48442   0.69305   0.00000  Uiso   1.00
H633   H     0.72077   0.43581   0.65389   0.00000  Uiso   1.00
H634   H     0.71757   0.49024   0.62849   0.00000  Uiso   1.00
H635   H     0.86465   0.10496   0.64412   0.00000  Uiso   1.00
H636   H     0.67404   0.24993   0.80653   0.00000  Uiso   1.00
H637   H     0.92020   0.10307   0.68328   0.00000  Uiso   1.00
H638   H     0.91490   0.39734   0.84370   0.00000  Uiso   1.00
H639   H     0.85731   0.39545   0.86471   0.00000  Uiso   1.00
H640   H     0.91400   0.17335   0.55015   0.00000  Uiso   1.00
H641   H     0.94895   0.22045   0.55481   0.00000  Uiso   1.00
H642   H     0.75184   0.17402   0.94887   0.00000  Uiso   1.00
H643   H     0.71742   0.22141   0.94482   0.00000  Uiso   1.00
H644   H     0.79237   0.11281   0.81195   0.00000  Uiso   1.00
H645   H     0.79680   0.38742   0.67560   0.00000  Uiso   1.00
H646   H     0.87227   0.02774   0.68813   0.00000  Uiso   1.00
H647   H     0.86766   0.47251   0.82351   0.00000  Uiso   1.00
H648   H     0.90194   0.21231   0.63354   0.00000  Uiso   1.00
H649   H     0.76433   0.21282   0.86599   0.00000  Uiso   1.00
H650   H     0.76457   0.28755   0.61510   0.00000  Uiso   1.00
N651   N     0.83333   0.25001   0.62934   0.00000  Uiso   1.00
N652   N     0.83333   0.24999   0.87065   0.00000  Uiso   1.00
N653   N     0.88208   0.11430   0.67896   0.00000  Uiso   1.00
N654   N     0.87692   0.38605   0.83584   0.00000  Uiso   1.00
N655   N     0.91406   0.20636   0.53920   0.00000  Uiso   1.00
N656   N     0.75215   0.20703   0.96025   0.00000  Uiso   1.00
O657   O     0.83334   0.18572   0.79071   0.00000  Uiso   1.00
O658   O     0.78822   0.47348   0.66553   0.00000  Uiso   1.00
O659   O     0.83333   0.31427   0.70928   0.00000  Uiso   1.00
O660   O     0.83334   0.18573   0.70928   0.00000  Uiso   1.00
O661   O     0.83333   0.31427   0.79072   0.00000  Uiso   1.00
O662   O     0.75828   0.24999   0.78132   0.00000  Uiso   1.00
O663   O     0.90839   0.25000   0.71868   0.00000  Uiso   1.00
O664   O     0.75828   0.25000   0.69988   0.00000  Uiso   1.00
O665   O     0.90839   0.25000   0.80011   0.00000  Uiso   1.00
O666   O     0.78261   0.02632   0.81872   0.00000  Uiso   1.00
C667   C     0.16713   0.66491   0.74988   0.00000  Uiso   1.00
C668   C     0.20601   0.77040   0.95178   0.00000  Uiso   1.00
C669   C     0.16698   0.74968   0.52729   0.00000  Uiso   1.00
C670   C     0.16637   0.74969   0.97272   0.00000  Uiso   1.00
C671   C     0.06787   0.74996   0.73753   0.00000  Uiso   1.00
C672   C     0.26547   0.74997   0.76246   0.00000  Uiso   1.00
C673   C     0.01261   0.74990   0.73063   0.00000  Uiso   1.00
C674   C     0.32072   0.74992   0.76937   0.00000  Uiso   1.00
C675   C     0.13923   0.54827   0.78382   0.00000  Uiso   1.00
C676   C     0.14211   0.95182   0.70765   0.00000  Uiso   1.00
C677   C     0.14253   0.59437   0.78441   0.00000  Uiso   1.00
C678   C     0.16711   0.83513   0.75025   0.00000  Uiso   1.00
C679   C     0.14519   0.90575   0.70822   0.00000  Uiso   1.00
C680   C     0.16652   0.61660   0.74934   0.00000  Uiso   1.00
C681   C     0.16653   0.88350   0.75058   0.00000  Uiso   1.00
C682   C     0.18906   0.59240   0.71409   0.00000  Uiso   1.00
C683   C     0.18652   0.90781   0.79260   0.00000  Uiso   1.00
C684   C     0.18715   0.54636   0.71449   0.00000  Uiso   1.00
C685   C     0.18459   0.95386   0.79155   0.00000  Uiso   1.00
C686   C     0.16263   0.52427   0.74916   0.00000  Uiso   1.00
C687   C     0.16269   0.97590   0.74941   0.00000  Uiso   1.00
C688   C     0.06216   0.53276   0.80916   0.00000  Uiso   1.00
C689   C     0.20657   0.72872   0.55876   0.00000  Uiso   1.00
C690   C     0.06737   0.97049   0.66057   0.00000  Uiso   1.00
C691   C     0.12656   0.72904   0.94097   0.00000  Uiso   1.00
C692   C     0.20525   0.72906   0.60971   0.00000  Uiso   1.00
C693   C     0.12788   0.72935   0.89003   0.00000  Uiso   1.00
C694   C     0.12827   0.77076   0.59948   0.00000  Uiso   1.00
C695   C     0.20524   0.77051   0.90079   0.00000  Uiso   1.00
C696   C     0.12752   0.77066   0.54849   0.00000  Uiso   1.00
Cu697  Cu    0.16667   0.74999   0.79821   0.00000  Uiso   1.00
Cu698  Cu    0.16667   0.75000   0.70178   0.00000  Uiso   1.00
H699   H     0.32596   0.74987   0.69347   0.00000  Uiso   1.00
H700   H     0.23573   0.78711   0.88538   0.00000  Uiso   1.00
H701   H     0.09648   0.78728   0.52570   0.00000  Uiso   1.00
H702   H     0.23721   0.78681   0.97479   0.00000  Uiso   1.00
H703   H     0.04653   0.52331   0.77104   0.00000  Uiso   1.00
H704   H     0.05162   0.56746   0.81674   0.00000  Uiso   1.00
H705   H     0.04346   0.51122   0.83386   0.00000  Uiso   1.00
H706   H     0.05213   0.98442   0.69305   0.00000  Uiso   1.00
H707   H     0.05410   0.93581   0.65389   0.00000  Uiso   1.00
H708   H     0.05091   0.99024   0.62849   0.00000  Uiso   1.00
H709   H     0.19798   0.60496   0.64412   0.00000  Uiso   1.00
H710   H     0.00737   0.74993   0.80653   0.00000  Uiso   1.00
H711   H     0.25353   0.60307   0.68328   0.00000  Uiso   1.00
H712   H     0.24823   0.89734   0.84370   0.00000  Uiso   1.00
H713   H     0.19064   0.89545   0.86471   0.00000  Uiso   1.00
H714   H     0.24734   0.67335   0.55015   0.00000  Uiso   1.00
H715   H     0.28228   0.72045   0.55481   0.00000  Uiso   1.00
H716   H     0.08517   0.67402   0.94887   0.00000  Uiso   1.00
H717   H     0.05075   0.72141   0.94482   0.00000  Uiso   1.00
H718   H     0.12571   0.61281   0.81195   0.00000  Uiso   1.00
H719   H     0.13013   0.88742   0.67560   0.00000  Uiso   1.00
H720   H     0.20560   0.52774   0.68813   0.00000  Uiso   1.00
H721   H     0.20099   0.97251   0.82351   0.00000  Uiso   1.00
H722   H     0.23527   0.71231   0.63354   0.00000  Uiso   1.00
H723   H     0.09767   0.71282   0.86599   0.00000  Uiso   1.00
H724   H     0.09791   0.78755   0.61510   0.00000  Uiso   1.00
N725   N     0.16667   0.75001   0.62934   0.00000  Uiso   1.00
N726   N     0.16667   0.74999   0.87065   0.00000  Uiso   1.00
N727   N     0.21542   0.61430   0.67896   0.00000  Uiso   1.00
N728   N     0.21025   0.88605   0.83584   0.00000  Uiso   1.00
N729   N     0.24739   0.70636   0.53920   0.00000  Uiso   1.00
N730   N     0.08549   0.70703   0.96025   0.00000  Uiso   1.00
O731   O     0.16667   0.68572   0.79071   0.00000  Uiso   1.00
O732   O     0.12155   0.97348   0.66553   0.00000  Uiso   1.00
O733   O     0.16666   0.81427   0.70928   0.00000  Uiso   1.00
O734   O     0.16667   0.68573   0.70928   0.00000  Uiso   1.00
O735   O     0.16666   0.81427   0.79072   0.00000  Uiso   1.00
O736   O     0.09161   0.74999   0.78132   0.00000  Uiso   1.00
O737   O     0.24172   0.75000   0.71868   0.00000  Uiso   1.00
O738   O     0.09161   0.75000   0.69988   0.00000  Uiso   1.00
O739   O     0.24172   0.75000   0.80011   0.00000  Uiso   1.00
O740   O     0.11595   0.52632   0.81872   0.00000  Uiso   1.00
C741   C     0.50047   0.66491   0.74988   0.00000  Uiso   1.00
C742   C     0.53935   0.77040   0.95178   0.00000  Uiso   1.00
C743   C     0.50032   0.74968   0.52729   0.00000  Uiso   1.00
C744   C     0.49970   0.74969   0.97272   0.00000  Uiso   1.00
C745   C     0.40120   0.74996   0.73753   0.00000  Uiso   1.00
C746   C     0.59880   0.74997   0.76246   0.00000  Uiso   1.00
C747   C     0.34595   0.74990   0.73063   0.00000  Uiso   1.00
C748   C     0.65405   0.74992   0.76937   0.00000  Uiso   1.00
C749   C     0.47257   0.54827   0.78382   0.00000  Uiso   1.00
C750   C     0.47545   0.95182   0.70765   0.00000  Uiso   1.00
C751   C     0.47586   0.59437   0.78441   0.00000  Uiso   1.00
C752   C     0.50044   0.83513   0.75025   0.00000  Uiso   1.00
C753   C     0.47852   0.90575   0.70822   0.00000  Uiso   1.00
C754   C     0.49986   0.61660   0.74934   0.00000  Uiso   1.00
C755   C     0.49986   0.88350   0.75058   0.00000  Uiso   1.00
C756   C     0.52239   0.59240   0.71409   0.00000  Uiso   1.00
C757   C     0.51985   0.90781   0.79260   0.00000  Uiso   1.00
C758   C     0.52049   0.54636   0.71449   0.00000  Uiso   1.00
C759   C     0.51792   0.95386   0.79155   0.00000  Uiso   1.00
C760   C     0.49596   0.52427   0.74916   0.00000  Uiso   1.00
C761   C     0.49603   0.97590   0.74941   0.00000  Uiso   1.00
C762   C     0.39550   0.53276   0.80916   0.00000  Uiso   1.00
C763   C     0.53990   0.72872   0.55876   0.00000  Uiso   1.00
C764   C     0.40070   0.97049   0.66057   0.00000  Uiso   1.00
C765   C     0.45989   0.72904   0.94097   0.00000  Uiso   1.00
C766   C     0.53858   0.72906   0.60971   0.00000  Uiso   1.00
C767   C     0.46121   0.72935   0.89003   0.00000  Uiso   1.00
C768   C     0.46161   0.77076   0.59948   0.00000  Uiso   1.00
C769   C     0.53857   0.77051   0.90079   0.00000  Uiso   1.00
C770   C     0.46086   0.77066   0.54849   0.00000  Uiso   1.00
Cu771  Cu    0.50000   0.74999   0.79821   0.00000  Uiso   1.00
Cu772  Cu    0.50000   0.75000   0.70178   0.00000  Uiso   1.00
H773   H     0.65929   0.74987   0.69347   0.00000  Uiso   1.00
H774   H     0.56907   0.78711   0.88538   0.00000  Uiso   1.00
H775   H     0.42982   0.78728   0.52570   0.00000  Uiso   1.00
H776   H     0.57054   0.78681   0.97479   0.00000  Uiso   1.00
H777   H     0.37987   0.52331   0.77104   0.00000  Uiso   1.00
H778   H     0.38496   0.56746   0.81674   0.00000  Uiso   1.00
H779   H     0.37679   0.51122   0.83386   0.00000  Uiso   1.00
H780   H     0.38546   0.98442   0.69305   0.00000  Uiso   1.00
H781   H     0.38743   0.93581   0.65389   0.00000  Uiso   1.00
H782   H     0.38424   0.99024   0.62849   0.00000  Uiso   1.00
H783   H     0.53132   0.60496   0.64412   0.00000  Uiso   1.00
H784   H     0.34071   0.74993   0.80653   0.00000  Uiso   1.00
H785   H     0.58687   0.60307   0.68328   0.00000  Uiso   1.00
H786   H     0.58156   0.89734   0.84370   0.00000  Uiso   1.00
H787   H     0.52398   0.89545   0.86471   0.00000  Uiso   1.00
H788   H     0.58067   0.67335   0.55015   0.00000  Uiso   1.00
H789   H     0.61562   0.72045   0.55481   0.00000  Uiso   1.00
H790   H     0.41850   0.67402   0.94887   0.00000  Uiso   1.00
H791   H     0.38409   0.72141   0.94482   0.00000  Uiso   1.00
H792   H     0.45904   0.61281   0.81195   0.00000  Uiso   1.00
H793   H     0.46347   0.88742   0.67560   0.00000  Uiso   1.00
H794   H     0.53893   0.52774   0.68813   0.00000  Uiso   1.00
H795   H     0.53432   0.97251   0.82351   0.00000  Uiso   1.00
H796   H     0.56860   0.71231   0.63354   0.00000  Uiso   1.00
H797   H     0.43100   0.71282   0.86599   0.00000  Uiso   1.00
H798   H     0.43124   0.78755   0.61510   0.00000  Uiso   1.00
N799   N     0.50000   0.75001   0.62934   0.00000  Uiso   1.00
N800   N     0.50000   0.74999   0.87065   0.00000  Uiso   1.00
N801   N     0.54875   0.61430   0.67896   0.00000  Uiso   1.00
N802   N     0.54359   0.88605   0.83584   0.00000  Uiso   1.00
N803   N     0.58072   0.70636   0.53920   0.00000  Uiso   1.00
N804   N     0.41882   0.70703   0.96025   0.00000  Uiso   1.00
O805   O     0.50000   0.68572   0.79071   0.00000  Uiso   1.00
O806   O     0.45489   0.97348   0.66553   0.00000  Uiso   1.00
O807   O     0.50000   0.81427   0.70928   0.00000  Uiso   1.00
O808   O     0.50000   0.68573   0.70928   0.00000  Uiso   1.00
O809   O     0.50000   0.81427   0.79072   0.00000  Uiso   1.00
O810   O     0.42495   0.74999   0.78132   0.00000  Uiso   1.00
O811   O     0.57505   0.75000   0.71868   0.00000  Uiso   1.00
O812   O     0.42495   0.75000   0.69988   0.00000  Uiso   1.00
O813   O     0.57505   0.75000   0.80011   0.00000  Uiso   1.00
O814   O     0.44928   0.52632   0.81872   0.00000  Uiso   1.00
C815   C     0.83380   0.66491   0.74988   0.00000  Uiso   1.00
C816   C     0.87268   0.77040   0.95178   0.00000  Uiso   1.00
C817   C     0.83365   0.74968   0.52729   0.00000  Uiso   1.00
C818   C     0.83304   0.74969   0.97272   0.00000  Uiso   1.00
C819   C     0.73453   0.74996   0.73753   0.00000  Uiso   1.00
C820   C     0.93213   0.74997   0.76246   0.00000  Uiso   1.00
C821   C     0.67928   0.74990   0.73063   0.00000  Uiso   1.00
C822   C     0.98738   0.74992   0.76937   0.00000  Uiso   1.00
C823   C     0.80590   0.54827   0.78382   0.00000  Uiso   1.00
C824   C     0.80878   0.95182   0.70765   0.00000  Uiso   1.00
C825   C     0.80920   0.59437   0.78441   0.00000  Uiso   1.00
C826   C     0.83378   0.83513   0.75025   0.00000  Uiso   1.00
C827   C     0.81185   0.90575   0.70822   0.00000  Uiso   1.00
C828   C     0.83319   0.61660   0.74934   0.00000  Uiso   1.00
C829   C     0.83320   0.88350   0.75058   0.00000  Uiso   1.00
C830   C     0.85572   0.59240   0.71409   0.00000  Uiso   1.00
C831   C     0.85318   0.90781   0.79260   0.00000  Uiso   1.00
C832   C     0.85382   0.54636   0.71449   0.00000  Uiso   1.00
C833   C     0.85126   0.95386   0.79155   0.00000  Uiso   1.00
C834   C     0.82929   0.52427   0.74916   0.00000  Uiso   1.00
C835   C     0.82936   0.97590   0.74941   0.00000  Uiso   1.00
C836   C     0.72883   0.53276   0.80916   0.00000  Uiso   1.00
C837   C     0.87323   0.72872   0.55876   0.00000  Uiso   1.00
C838   C     0.73403   0.97049   0.66057   0.00000  Uiso   1.00
C839   C     0.79323   0.72904   0.94097   0.00000  Uiso   1.00
C840   C     0.87191   0.72906   0.60971   0.00000  Uiso   1.00
C841   C     0.79454   0.72935   0.89003   0.00000  Uiso   1.00
C842   C     0.79494   0.77076   0.59948   0.00000  Uiso   1.00
C843   C     0.87190   0.77051   0.90079   0.00000  Uiso   1.00
C844   C     0.79419   0.77066   0.54849   0.00000  Uiso   1.00
Cu845  Cu    0.83333   0.74999   0.79821   0.00000  Uiso   1.00
Cu846  Cu    0.83333   0.75000   0.70178   0.00000  Uiso   1.00
H847   H     0.99262   0.74987   0.69347   0.00000  Uiso   1.00
H848   H     0.90240   0.78711   0.88538   0.00000  Uiso   1.00
H849   H     0.76315   0.78728   0.52570   0.00000  Uiso   1.00
H850   H     0.90387   0.78681   0.97479   0.00000  Uiso   1.00
H851   H     0.71320   0.52331   0.77104   0.00000  Uiso   1.00
H852   H     0.71829   0.56746   0.81674   0.00000  Uiso   1.00
H853   H     0.71012   0.51122   0.83386   0.00000  Uiso   1.00
H854   H     0.71880   0.98442   0.69305   0.00000  Uiso   1.00
H855   H     0.72077   0.93581   0.65389   0.00000  Uiso   1.00
H856   H     0.71757   0.99024   0.62849   0.00000  Uiso   1.00
H857   H     0.86465   0.60496   0.64412   0.00000  Uiso   1.00
H858   H     0.67404   0.74993   0.80653   0.00000  Uiso   1.00
H859   H     0.92020   0.60307   0.68328   0.00000  Uiso   1.00
H860   H     0.91490   0.89734   0.84370   0.00000  Uiso   1.00
H861   H     0.85731   0.89545   0.86471   0.00000  Uiso   1.00
H862   H     0.91400   0.67335   0.55015   0.00000  Uiso   1.00
H863   H     0.94895   0.72045   0.55481   0.00000  Uiso   1.00
H864   H     0.75184   0.67402   0.94887   0.00000  Uiso   1.00
H865   H     0.71742   0.72141   0.94482   0.00000  Uiso   1.00
H866   H     0.79237   0.61281   0.81195   0.00000  Uiso   1.00
H867   H     0.79680   0.88742   0.67560   0.00000  Uiso   1.00
H868   H     0.87227   0.52774   0.68813   0.00000  Uiso   1.00
H869   H     0.86766   0.97251   0.82351   0.00000  Uiso   1.00
H870   H     0.90194   0.71231   0.63354   0.00000  Uiso   1.00
H871   H     0.76433   0.71282   0.86599   0.00000  Uiso   1.00
H872   H     0.76457   0.78755   0.61510   0.00000  Uiso   1.00
N873   N     0.83333   0.75001   0.62934   0.00000  Uiso   1.00
N874   N     0.83333   0.74999   0.87065   0.00000  Uiso   1.00
N875   N     0.88208   0.61430   0.67896   0.00000  Uiso   1.00
N876   N     0.87692   0.88605   0.83584   0.00000  Uiso   1.00
N877   N     0.91406   0.70636   0.53920   0.00000  Uiso   1.00
N878   N     0.75215   0.70703   0.96025   0.00000  Uiso   1.00
O879   O     0.83334   0.68572   0.79071   0.00000  Uiso   1.00
O880   O     0.78822   0.97348   0.66553   0.00000  Uiso   1.00
O881   O     0.83333   0.81427   0.70928   0.00000  Uiso   1.00
O882   O     0.83334   0.68573   0.70928   0.00000  Uiso   1.00
O883   O     0.83333   0.81427   0.79072   0.00000  Uiso   1.00
O884   O     0.75828   0.74999   0.78132   0.00000  Uiso   1.00
O885   O     0.90839   0.75000   0.71868   0.00000  Uiso   1.00
O886   O     0.75828   0.75000   0.69988   0.00000  Uiso   1.00
O887   O     0.90839   0.75000   0.80011   0.00000  Uiso   1.00
O888   O     0.78261   0.52632   0.81872   0.00000  Uiso   1.00
loop_
_geom_bond_atom_site_label_1
_geom_bond_atom_site_label_2
_geom_bond_distance
_geom_bond_site_symmetry_2
_ccdc_geom_bond_type
C1     C14     1.462   .     S
C1     O68     1.290   .     A
C1     O65     1.292   .     A
C2     C4      1.406   .     A
C2     C29     1.408   .     A
C2     H36     1.083   .     S
C3     C30     1.406   .     A
C3     C23     1.411   .     A
C3     C448    1.508   1_554 S
C4     C25     1.411   .     A
C4     C447    1.508   .     S
C5     O70     1.283   .     A
C5     C7      1.433   .     S
C5     O72     1.285   .     A
C6     C8      1.433   .     S
C6     O71     1.283   .     A
C6     O73     1.285   .     A
C7     C156    1.335   1_455 S
C7     H181    1.087   1_455 S
C8     C81     1.335   .     S
C8     H118    1.087   .     S
C9     C20     1.406   .     A
C9     C11     1.398   .     A
C9     O74     1.384   .     S
C10    O66     1.383   .     S
C10    C21     1.406   .     A
C10    C13     1.396   .     A
C11    C14     1.402   .     A
C11    H52     1.084   .     S
C12    O69     1.290   .     A
C12    C15     1.464   .     S
C12    O67     1.293   .     A
C13    H53     1.084   .     S
C13    C15     1.403   .     A
C14    C16     1.410   .     A
C15    C17     1.411   .     A
C16    N61     1.433   .     S
C16    C18     1.395   .     A
C17    N62     1.433   .     S
C17    C19     1.395   .     A
C18    H54     1.084   .     S
C18    C20     1.399   .     A
C19    H55     1.084   .     S
C19    C21     1.399   .     A
C20    C243    1.464   1_545 S
C21    C242    1.464   .     S
C22    O74     1.410   .     S
C22    H39     1.109   .     S
C22    H37     1.113   .     S
C22    H38     1.112   .     S
C23    C26     1.415   .     A
C23    N63     1.431   .     S
C24    H42     1.109   .     S
C24    O66     1.410   .     S
C24    H41     1.112   .     S
C24    H40     1.113   .     S
C25    C27     1.415   .     A
C25    N64     1.432   .     S
C26    N59     1.366   .     A
C26    H56     1.082   .     S
C27    N60     1.366   .     A
C27    H57     1.082   .     S
C28    H58     1.081   .     S
C28    C30     1.408   .     A
C28    N59     1.365   .     A
C29    N60     1.365   .     A
C29    H34     1.081   .     S
C30    H35     1.083   .     S
Cu31   N60     2.004   .     S
Cu31   Cu32    2.668   .     S
Cu31   O73     1.959   .     S
Cu31   O69     1.958   .     S
Cu31   O65     1.955   .     S
Cu31   O70     1.957   .     S
Cu32   O68     1.958   .     S
Cu32   O72     1.959   .     S
Cu32   O67     1.955   .     S
Cu32   O71     1.957   .     S
Cu32   N59     2.004   .     S
H33    C81     1.087   .     S
H43    N61     1.046   .     S
H44    C156    1.087   1_455 S
H45    N61     1.046   .     S
H46    N62     1.046   .     S
H47    N62     1.046   .     S
H48    N63     1.046   .     S
H49    N63     1.046   .     S
H50    N64     1.046   .     S
H51    N64     1.046   .     S
C75    C88     1.462   .     S
C75    O142    1.290   .     A
C75    O139    1.292   .     A
C76    C78     1.406   .     A
C76    C103    1.408   .     A
C76    H110    1.083   .     S
C77    C104    1.406   .     A
C77    C97     1.411   .     A
C77    C522    1.508   1_554 S
C78    C99     1.411   .     A
C78    C521    1.508   .     S
C79    O144    1.283   .     A
C79    C81     1.433   .     S
C79    O146    1.285   .     A
C80    C82     1.433   .     S
C80    O145    1.283   .     A
C80    O147    1.285   .     A
C82    C155    1.335   .     S
C82    H192    1.087   .     S
C83    C94     1.406   .     A
C83    C85     1.398   .     A
C83    O148    1.384   .     S
C84    O140    1.383   .     S
C84    C95     1.406   .     A
C84    C87     1.396   .     A
C85    C88     1.402   .     A
C85    H126    1.084   .     S
C86    O143    1.290   .     A
C86    C89     1.464   .     S
C86    O141    1.293   .     A
C87    H127    1.084   .     S
C87    C89     1.403   .     A
C88    C90     1.410   .     A
C89    C91     1.411   .     A
C90    N135    1.433   .     S
C90    C92     1.395   .     A
C91    N136    1.433   .     S
C91    C93     1.395   .     A
C92    H128    1.084   .     S
C92    C94     1.399   .     A
C93    H129    1.084   .     S
C93    C95     1.399   .     A
C94    C317    1.464   1_545 S
C95    C316    1.464   .     S
C96    O148    1.410   .     S
C96    H113    1.109   .     S
C96    H111    1.113   .     S
C96    H112    1.112   .     S
C97    C100    1.415   .     A
C97    N137    1.431   .     S
C98    H116    1.109   .     S
C98    O140    1.410   .     S
C98    H115    1.112   .     S
C98    H114    1.113   .     S
C99    C101    1.415   .     A
C99    N138    1.432   .     S
C100   N133    1.366   .     A
C100   H130    1.082   .     S
C101   N134    1.366   .     A
C101   H131    1.082   .     S
C102   H132    1.081   .     S
C102   C104    1.408   .     A
C102   N133    1.365   .     A
C103   N134    1.365   .     A
C103   H108    1.081   .     S
C104   H109    1.083   .     S
Cu105  N134    2.004   .     S
Cu105  Cu106   2.668   .     S
Cu105  O147    1.959   .     S
Cu105  O143    1.958   .     S
Cu105  O139    1.955   .     S
Cu105  O144    1.957   .     S
Cu106  O142    1.958   .     S
Cu106  O146    1.959   .     S
Cu106  O141    1.955   .     S
Cu106  O145    1.957   .     S
Cu106  N133    2.004   .     S
H107   C155    1.087   .     S
H117   N135    1.046   .     S
H119   N135    1.046   .     S
H120   N136    1.046   .     S
H121   N136    1.046   .     S
H122   N137    1.046   .     S
H123   N137    1.046   .     S
H124   N138    1.046   .     S
H125   N138    1.046   .     S
C149   C162    1.462   .     S
C149   O216    1.290   .     A
C149   O213    1.292   .     A
C150   C152    1.406   .     A
C150   C177    1.408   .     A
C150   H184    1.083   .     S
C151   C178    1.406   .     A
C151   C171    1.411   .     A
C151   C596    1.508   1_554 S
C152   C173    1.411   .     A
C152   C595    1.508   .     S
C153   O218    1.283   .     A
C153   C155    1.433   .     S
C153   O220    1.285   .     A
C154   C156    1.433   .     S
C154   O219    1.283   .     A
C154   O221    1.285   .     A
C156   C7      1.335   1_655 S
C156   H44     1.087   1_655 S
C157   C168    1.406   .     A
C157   C159    1.398   .     A
C157   O222    1.384   .     S
C158   O214    1.383   .     S
C158   C169    1.406   .     A
C158   C161    1.396   .     A
C159   C162    1.402   .     A
C159   H200    1.084   .     S
C160   O217    1.290   .     A
C160   C163    1.464   .     S
C160   O215    1.293   .     A
C161   H201    1.084   .     S
C161   C163    1.403   .     A
C162   C164    1.410   .     A
C163   C165    1.411   .     A
C164   N209    1.433   .     S
C164   C166    1.395   .     A
C165   N210    1.433   .     S
C165   C167    1.395   .     A
C166   H202    1.084   .     S
C166   C168    1.399   .     A
C167   H203    1.084   .     S
C167   C169    1.399   .     A
C168   C391    1.464   1_545 S
C169   C390    1.464   .     S
C170   O222    1.410   .     S
C170   H187    1.109   .     S
C170   H185    1.113   .     S
C170   H186    1.112   .     S
C171   C174    1.415   .     A
C171   N211    1.431   .     S
C172   H190    1.109   .     S
C172   O214    1.410   .     S
C172   H189    1.112   .     S
C172   H188    1.113   .     S
C173   C175    1.415   .     A
C173   N212    1.432   .     S
C174   N207    1.366   .     A
C174   H204    1.082   .     S
C175   N208    1.366   .     A
C175   H205    1.082   .     S
C176   H206    1.081   .     S
C176   C178    1.408   .     A
C176   N207    1.365   .     A
C177   N208    1.365   .     A
C177   H182    1.081   .     S
C178   H183    1.083   .     S
Cu179  N208    2.004   .     S
Cu179  Cu180   2.668   .     S
Cu179  O221    1.959   .     S
Cu179  O217    1.958   .     S
Cu179  O213    1.955   .     S
Cu179  O218    1.957   .     S
Cu180  O216    1.958   .     S
Cu180  O220    1.959   .     S
Cu180  O215    1.955   .     S
Cu180  O219    1.957   .     S
Cu180  N207    2.004   .     S
H181   C7      1.087   1_655 S
H191   N209    1.046   .     S
H193   N209    1.046   .     S
H194   N210    1.046   .     S
H195   N210    1.046   .     S
H196   N211    1.046   .     S
H197   N211    1.046   .     S
H198   N212    1.046   .     S
H199   N212    1.046   .     S
C223   C236    1.462   .     S
C223   O290    1.290   .     A
C223   O287    1.292   .     A
C224   C226    1.406   .     A
C224   C251    1.408   .     A
C224   H258    1.083   .     S
C225   C252    1.406   .     A
C225   C245    1.411   .     A
C225   C670    1.508   1_554 S
C226   C247    1.411   .     A
C226   C669    1.508   .     S
C227   O292    1.283   .     A
C227   C229    1.433   .     S
C227   O294    1.285   .     A
C228   C230    1.433   .     S
C228   O293    1.283   .     A
C228   O295    1.285   .     A
C229   C378    1.335   1_455 S
C229   H403    1.087   1_455 S
C230   C303    1.335   .     S
C230   H340    1.087   .     S
C231   C242    1.406   .     A
C231   C233    1.398   .     A
C231   O296    1.384   .     S
C232   O288    1.383   .     S
C232   C243    1.406   .     A
C232   C235    1.396   .     A
C233   C236    1.402   .     A
C233   H274    1.084   .     S
C234   O291    1.290   .     A
C234   C237    1.464   .     S
C234   O289    1.293   .     A
C235   H275    1.084   .     S
C235   C237    1.403   .     A
C236   C238    1.410   .     A
C237   C239    1.411   .     A
C238   N283    1.433   .     S
C238   C240    1.395   .     A
C239   N284    1.433   .     S
C239   C241    1.395   .     A
C240   H276    1.084   .     S
C240   C242    1.399   .     A
C241   H277    1.084   .     S
C241   C243    1.399   .     A
C243   C20     1.464   1_565 S
C244   O296    1.410   .     S
C244   H261    1.109   .     S
C244   H259    1.113   .     S
C244   H260    1.112   .     S
C245   C248    1.415   .     A
C245   N285    1.431   .     S
C246   H264    1.109   .     S
C246   O288    1.410   .     S
C246   H263    1.112   .     S
C246   H262    1.113   .     S
C247   C249    1.415   .     A
C247   N286    1.432   .     S
C248   N281    1.366   .     A
C248   H278    1.082   .     S
C249   N282    1.366   .     A
C249   H279    1.082   .     S
C250   H280    1.081   .     S
C250   C252    1.408   .     A
C250   N281    1.365   .     A
C251   N282    1.365   .     A
C251   H256    1.081   .     S
C252   H257    1.083   .     S
Cu253  N282    2.004   .     S
Cu253  Cu254   2.668   .     S
Cu253  O295    1.959   .     S
Cu253  O291    1.958   .     S
Cu253  O287    1.955   .     S
Cu253  O292    1.957   .     S
Cu254  O290    1.958   .     S
Cu254  O294    1.959   .     S
Cu254  O289    1.955   .     S
Cu254  O293    1.957   .     S
Cu254  N281    2.004   .     S
H255   C303    1.087   .     S
H265   N283    1.046   .     S
H266   C378    1.087   1_455 S
H267   N283    1.046   .     S
H268   N284    1.046   .     S
H269   N284    1.046   .     S
H270   N285    1.046   .     S
H271   N285    1.046   .     S
H272   N286    1.046   .     S
H273   N286    1.046   .     S
C297   C310    1.462   .     S
C297   O364    1.290   .     A
C297   O361    1.292   .     A
C298   C300    1.406   .     A
C298   C325    1.408   .     A
C298   H332    1.083   .     S
C299   C326    1.406   .     A
C299   C319    1.411   .     A
C299   C744    1.508   1_554 S
C300   C321    1.411   .     A
C300   C743    1.508   .     S
C301   O366    1.283   .     A
C301   C303    1.433   .     S
C301   O368    1.285   .     A
C302   C304    1.433   .     S
C302   O367    1.283   .     A
C302   O369    1.285   .     A
C304   C377    1.335   .     S
C304   H414    1.087   .     S
C305   C316    1.406   .     A
C305   C307    1.398   .     A
C305   O370    1.384   .     S
C306   O362    1.383   .     S
C306   C317    1.406   .     A
C306   C309    1.396   .     A
C307   C310    1.402   .     A
C307   H348    1.084   .     S
C308   O365    1.290   .     A
C308   C311    1.464   .     S
C308   O363    1.293   .     A
C309   H349    1.084   .     S
C309   C311    1.403   .     A
C310   C312    1.410   .     A
C311   C313    1.411   .     A
C312   N357    1.433   .     S
C312   C314    1.395   .     A
C313   N358    1.433   .     S
C313   C315    1.395   .     A
C314   H350    1.084   .     S
C314   C316    1.399   .     A
C315   H351    1.084   .     S
C315   C317    1.399   .     A
C317   C94     1.464   1_565 S
C318   O370    1.410   .     S
C318   H335    1.109   .     S
C318   H333    1.113   .     S
C318   H334    1.112   .     S
C319   C322    1.415   .     A
C319   N359    1.431   .     S
C320   H338    1.109   .     S
C320   O362    1.410   .     S
C320   H337    1.112   .     S
C320   H336    1.113   .     S
C321   C323    1.415   .     A
C321   N360    1.432   .     S
C322   N355    1.366   .     A
C322   H352    1.082   .     S
C323   N356    1.366   .     A
C323   H353    1.082   .     S
C324   H354    1.081   .     S
C324   C326    1.408   .     A
C324   N355    1.365   .     A
C325   N356    1.365   .     A
C325   H330    1.081   .     S
C326   H331    1.083   .     S
Cu327  N356    2.004   .     S
Cu327  Cu328   2.668   .     S
Cu327  O369    1.959   .     S
Cu327  O365    1.958   .     S
Cu327  O361    1.955   .     S
Cu327  O366    1.957   .     S
Cu328  O364    1.958   .     S
Cu328  O368    1.959   .     S
Cu328  O363    1.955   .     S
Cu328  O367    1.957   .     S
Cu328  N355    2.004   .     S
H329   C377    1.087   .     S
H339   N357    1.046   .     S
H341   N357    1.046   .     S
H342   N358    1.046   .     S
H343   N358    1.046   .     S
H344   N359    1.046   .     S
H345   N359    1.046   .     S
H346   N360    1.046   .     S
H347   N360    1.046   .     S
C371   C384    1.462   .     S
C371   O438    1.290   .     A
C371   O435    1.292   .     A
C372   C374    1.406   .     A
C372   C399    1.408   .     A
C372   H406    1.083   .     S
C373   C400    1.406   .     A
C373   C393    1.411   .     A
C373   C818    1.508   1_554 S
C374   C395    1.411   .     A
C374   C817    1.508   .     S
C375   O440    1.283   .     A
C375   C377    1.433   .     S
C375   O442    1.285   .     A
C376   C378    1.433   .     S
C376   O441    1.283   .     A
C376   O443    1.285   .     A
C378   C229    1.335   1_655 S
C378   H266    1.087   1_655 S
C379   C390    1.406   .     A
C379   C381    1.398   .     A
C379   O444    1.384   .     S
C380   O436    1.383   .     S
C380   C391    1.406   .     A
C380   C383    1.396   .     A
C381   C384    1.402   .     A
C381   H422    1.084   .     S
C382   O439    1.290   .     A
C382   C385    1.464   .     S
C382   O437    1.293   .     A
C383   H423    1.084   .     S
C383   C385    1.403   .     A
C384   C386    1.410   .     A
C385   C387    1.411   .     A
C386   N431    1.433   .     S
C386   C388    1.395   .     A
C387   N432    1.433   .     S
C387   C389    1.395   .     A
C388   H424    1.084   .     S
C388   C390    1.399   .     A
C389   H425    1.084   .     S
C389   C391    1.399   .     A
C391   C168    1.464   1_565 S
C392   O444    1.410   .     S
C392   H409    1.109   .     S
C392   H407    1.113   .     S
C392   H408    1.112   .     S
C393   C396    1.415   .     A
C393   N433    1.431   .     S
C394   H412    1.109   .     S
C394   O436    1.410   .     S
C394   H411    1.112   .     S
C394   H410    1.113   .     S
C395   C397    1.415   .     A
C395   N434    1.432   .     S
C396   N429    1.366   .     A
C396   H426    1.082   .     S
C397   N430    1.366   .     A
C397   H427    1.082   .     S
C398   H428    1.081   .     S
C398   C400    1.408   .     A
C398   N429    1.365   .     A
C399   N430    1.365   .     A
C399   H404    1.081   .     S
C400   H405    1.083   .     S
Cu401  N430    2.004   .     S
Cu401  Cu402   2.668   .     S
Cu401  O443    1.959   .     S
Cu401  O439    1.958   .     S
Cu401  O435    1.955   .     S
Cu401  O440    1.957   .     S
Cu402  O438    1.958   .     S
Cu402  O442    1.959   .     S
Cu402  O437    1.955   .     S
Cu402  O441    1.957   .     S
Cu402  N429    2.004   .     S
H403   C229    1.087   1_655 S
H413   N431    1.046   .     S
H415   N431    1.046   .     S
H416   N432    1.046   .     S
H417   N432    1.046   .     S
H418   N433    1.046   .     S
H419   N433    1.046   .     S
H420   N434    1.046   .     S
H421   N434    1.046   .     S
C445   C458    1.462   .     S
C445   O512    1.290   .     A
C445   O509    1.292   .     A
C446   C448    1.406   .     A
C446   C473    1.408   .     A
C446   H480    1.083   .     S
C447   C474    1.406   .     A
C447   C467    1.411   .     A
C448   C469    1.411   .     A
C448   C3      1.508   1_556 S
C449   O514    1.283   .     A
C449   C451    1.433   .     S
C449   O516    1.285   .     A
C450   C452    1.433   .     S
C450   O515    1.283   .     A
C450   O517    1.285   .     A
C451   C600    1.335   1_455 S
C451   H625    1.087   1_455 S
C452   C525    1.335   .     S
C452   H562    1.087   .     S
C453   C464    1.406   .     A
C453   C455    1.398   .     A
C453   O518    1.384   .     S
C454   O510    1.383   .     S
C454   C465    1.406   .     A
C454   C457    1.396   .     A
C455   C458    1.402   .     A
C455   H496    1.084   .     S
C456   O513    1.290   .     A
C456   C459    1.464   .     S
C456   O511    1.293   .     A
C457   H497    1.084   .     S
C457   C459    1.403   .     A
C458   C460    1.410   .     A
C459   C461    1.411   .     A
C460   N505    1.433   .     S
C460   C462    1.395   .     A
C461   N506    1.433   .     S
C461   C463    1.395   .     A
C462   H498    1.084   .     S
C462   C464    1.399   .     A
C463   H499    1.084   .     S
C463   C465    1.399   .     A
C464   C687    1.464   1_545 S
C465   C686    1.464   .     S
C466   O518    1.410   .     S
C466   H483    1.109   .     S
C466   H481    1.113   .     S
C466   H482    1.112   .     S
C467   C470    1.415   .     A
C467   N507    1.431   .     S
C468   H486    1.109   .     S
C468   O510    1.410   .     S
C468   H485    1.112   .     S
C468   H484    1.113   .     S
C469   C471    1.415   .     A
C469   N508    1.432   .     S
C470   N503    1.366   .     A
C470   H500    1.082   .     S
C471   N504    1.366   .     A
C471   H501    1.082   .     S
C472   H502    1.081   .     S
C472   C474    1.408   .     A
C472   N503    1.365   .     A
C473   N504    1.365   .     A
C473   H478    1.081   .     S
C474   H479    1.083   .     S
Cu475  N504    2.004   .     S
Cu475  Cu476   2.668   .     S
Cu475  O517    1.959   .     S
Cu475  O513    1.958   .     S
Cu475  O509    1.955   .     S
Cu475  O514    1.957   .     S
Cu476  O512    1.958   .     S
Cu476  O516    1.959   .     S
Cu476  O511    1.955   .     S
Cu476  O515    1.957   .     S
Cu476  N503    2.004   .     S
H477   C525    1.087   .     S
H487   N505    1.046   .     S
H488   C600    1.087   1_455 S
H489   N505    1.046   .     S
H490   N506    1.046   .     S
H491   N506    1.046   .     S
H492   N507    1.046   .     S
H493   N507    1.046   .     S
H494   N508    1.046   .     S
H495   N508    1.046   .     S
C519   C532    1.462   .     S
C519   O586    1.290   .     A
C519   O583    1.292   .     A
C520   C522    1.406   .     A
C520   C547    1.408   .     A
C520   H554    1.083   .     S
C521   C548    1.406   .     A
C521   C541    1.411   .     A
C522   C543    1.411   .     A
C522   C77     1.508   1_556 S
C523   O588    1.283   .     A
C523   C525    1.433   .     S
C523   O590    1.285   .     A
C524   C526    1.433   .     S
C524   O589    1.283   .     A
C524   O591    1.285   .     A
C526   C599    1.335   .     S
C526   H636    1.087   .     S
C527   C538    1.406   .     A
C527   C529    1.398   .     A
C527   O592    1.384   .     S
C528   O584    1.383   .     S
C528   C539    1.406   .     A
C528   C531    1.396   .     A
C529   C532    1.402   .     A
C529   H570    1.084   .     S
C530   O587    1.290   .     A
C530   C533    1.464   .     S
C530   O585    1.293   .     A
C531   H571    1.084   .     S
C531   C533    1.403   .     A
C532   C534    1.410   .     A
C533   C535    1.411   .     A
C534   N579    1.433   .     S
C534   C536    1.395   .     A
C535   N580    1.433   .     S
C535   C537    1.395   .     A
C536   H572    1.084   .     S
C536   C538    1.399   .     A
C537   H573    1.084   .     S
C537   C539    1.399   .     A
C538   C761    1.464   1_545 S
C539   C760    1.464   .     S
C540   O592    1.410   .     S
C540   H557    1.109   .     S
C540   H555    1.113   .     S
C540   H556    1.112   .     S
C541   C544    1.415   .     A
C541   N581    1.431   .     S
C542   H560    1.109   .     S
C542   O584    1.410   .     S
C542   H559    1.112   .     S
C542   H558    1.113   .     S
C543   C545    1.415   .     A
C543   N582    1.432   .     S
C544   N577    1.366   .     A
C544   H574    1.082   .     S
C545   N578    1.366   .     A
C545   H575    1.082   .     S
C546   H576    1.081   .     S
C546   C548    1.408   .     A
C546   N577    1.365   .     A
C547   N578    1.365   .     A
C547   H552    1.081   .     S
C548   H553    1.083   .     S
Cu549  N578    2.004   .     S
Cu549  Cu550   2.668   .     S
Cu549  O591    1.959   .     S
Cu549  O587    1.958   .     S
Cu549  O583    1.955   .     S
Cu549  O588    1.957   .     S
Cu550  O586    1.958   .     S
Cu550  O590    1.959   .     S
Cu550  O585    1.955   .     S
Cu550  O589    1.957   .     S
Cu550  N577    2.004   .     S
H551   C599    1.087   .     S
H561   N579    1.046   .     S
H563   N579    1.046   .     S
H564   N580    1.046   .     S
H565   N580    1.046   .     S
H566   N581    1.046   .     S
H567   N581    1.046   .     S
H568   N582    1.046   .     S
H569   N582    1.046   .     S
C593   C606    1.462   .     S
C593   O660    1.290   .     A
C593   O657    1.292   .     A
C594   C596    1.406   .     A
C594   C621    1.408   .     A
C594   H628    1.083   .     S
C595   C622    1.406   .     A
C595   C615    1.411   .     A
C596   C617    1.411   .     A
C596   C151    1.508   1_556 S
C597   O662    1.283   .     A
C597   C599    1.433   .     S
C597   O664    1.285   .     A
C598   C600    1.433   .     S
C598   O663    1.283   .     A
C598   O665    1.285   .     A
C600   C451    1.335   1_655 S
C600   H488    1.087   1_655 S
C601   C612    1.406   .     A
C601   C603    1.398   .     A
C601   O666    1.384   .     S
C602   O658    1.383   .     S
C602   C613    1.406   .     A
C602   C605    1.396   .     A
C603   C606    1.402   .     A
C603   H644    1.084   .     S
C604   O661    1.290   .     A
C604   C607    1.464   .     S
C604   O659    1.293   .     A
C605   H645    1.084   .     S
C605   C607    1.403   .     A
C606   C608    1.410   .     A
C607   C609    1.411   .     A
C608   N653    1.433   .     S
C608   C610    1.395   .     A
C609   N654    1.433   .     S
C609   C611    1.395   .     A
C610   H646    1.084   .     S
C610   C612    1.399   .     A
C611   H647    1.084   .     S
C611   C613    1.399   .     A
C612   C835    1.464   1_545 S
C613   C834    1.464   .     S
C614   O666    1.410   .     S
C614   H631    1.109   .     S
C614   H629    1.113   .     S
C614   H630    1.112   .     S
C615   C618    1.415   .     A
C615   N655    1.431   .     S
C616   H634    1.109   .     S
C616   O658    1.410   .     S
C616   H633    1.112   .     S
C616   H632    1.113   .     S
C617   C619    1.415   .     A
C617   N656    1.432   .     S
C618   N651    1.366   .     A
C618   H648    1.082   .     S
C619   N652    1.366   .     A
C619   H649    1.082   .     S
C620   H650    1.081   .     S
C620   C622    1.408   .     A
C620   N651    1.365   .     A
C621   N652    1.365   .     A
C621   H626    1.081   .     S
C622   H627    1.083   .     S
Cu623  N652    2.004   .     S
Cu623  Cu624   2.668   .     S
Cu623  O665    1.959   .     S
Cu623  O661    1.958   .     S
Cu623  O657    1.955   .     S
Cu623  O662    1.957   .     S
Cu624  O660    1.958   .     S
Cu624  O664    1.959   .     S
Cu624  O659    1.955   .     S
Cu624  O663    1.957   .     S
Cu624  N651    2.004   .     S
H625   C451    1.087   1_655 S
H635   N653    1.046   .     S
H637   N653    1.046   .     S
H638   N654    1.046   .     S
H639   N654    1.046   .     S
H640   N655    1.046   .     S
H641   N655    1.046   .     S
H642   N656    1.046   .     S
H643   N656    1.046   .     S
C667   C680    1.462   .     S
C667   O734    1.290   .     A
C667   O731    1.292   .     A
C668   C670    1.406   .     A
C668   C695    1.408   .     A
C668   H702    1.083   .     S
C669   C696    1.406   .     A
C669   C689    1.411   .     A
C670   C691    1.411   .     A
C670   C225    1.508   1_556 S
C671   O736    1.283   .     A
C671   C673    1.433   .     S
C671   O738    1.285   .     A
C672   C674    1.433   .     S
C672   O737    1.283   .     A
C672   O739    1.285   .     A
C673   C822    1.335   1_455 S
C673   H847    1.087   1_455 S
C674   C747    1.335   .     S
C674   H784    1.087   .     S
C675   C686    1.406   .     A
C675   C677    1.398   .     A
C675   O740    1.384   .     S
C676   O732    1.383   .     S
C676   C687    1.406   .     A
C676   C679    1.396   .     A
C677   C680    1.402   .     A
C677   H718    1.084   .     S
C678   O735    1.290   .     A
C678   C681    1.464   .     S
C678   O733    1.293   .     A
C679   H719    1.084   .     S
C679   C681    1.403   .     A
C680   C682    1.410   .     A
C681   C683    1.411   .     A
C682   N727    1.433   .     S
C682   C684    1.395   .     A
C683   N728    1.433   .     S
C683   C685    1.395   .     A
C684   H720    1.084   .     S
C684   C686    1.399   .     A
C685   H721    1.084   .     S
C685   C687    1.399   .     A
C687   C464    1.464   1_565 S
C688   O740    1.410   .     S
C688   H705    1.109   .     S
C688   H703    1.113   .     S
C688   H704    1.112   .     S
C689   C692    1.415   .     A
C689   N729    1.431   .     S
C690   H708    1.109   .     S
C690   O732    1.410   .     S
C690   H707    1.112   .     S
C690   H706    1.113   .     S
C691   C693    1.415   .     A
C691   N730    1.432   .     S
C692   N725    1.366   .     A
C692   H722    1.082   .     S
C693   N726    1.366   .     A
C693   H723    1.082   .     S
C694   H724    1.081   .     S
C694   C696    1.408   .     A
C694   N725    1.365   .     A
C695   N726    1.365   .     A
C695   H700    1.081   .     S
C696   H701    1.083   .     S
Cu697  N726    2.004   .     S
Cu697  Cu698   2.668   .     S
Cu697  O739    1.959   .     S
Cu697  O735    1.958   .     S
Cu697  O731    1.955   .     S
Cu697  O736    1.957   .     S
Cu698  O734    1.958   .     S
Cu698  O738    1.959   .     S
Cu698  O733    1.955   .     S
Cu698  O737    1.957   .     S
Cu698  N725    2.004   .     S
H699   C747    1.087   .     S
H709   N727    1.046   .     S
H710   C822    1.087   1_455 S
H711   N727    1.046   .     S
H712   N728    1.046   .     S
H713   N728    1.046   .     S
H714   N729    1.046   .     S
H715   N729    1.046   .     S
H716   N730    1.046   .     S
H717   N730    1.046   .     S
C741   C754    1.462   .     S
C741   O808    1.290   .     A
C741   O805    1.292   .     A
C742   C744    1.406   .     A
C742   C769    1.408   .     A
C742   H776    1.083   .     S
C743   C770    1.406   .     A
C743   C763    1.411   .     A
C744   C765    1.411   .     A
C744   C299    1.508   1_556 S
C745   O810    1.283   .     A
C745   C747    1.433   .     S
C745   O812    1.285   .     A
C746   C748    1.433   .     S
C746   O811    1.283   .     A
C746   O813    1.285   .     A
C748   C821    1.335   .     S
C748   H858    1.087   .     S
C749   C760    1.406   .     A
C749   C751    1.398   .     A
C749   O814    1.384   .     S
C750   O806    1.383   .     S
C750   C761    1.406   .     A
C750   C753    1.396   .     A
C751   C754    1.402   .     A
C751   H792    1.084   .     S
C752   O809    1.290   .     A
C752   C755    1.464   .     S
C752   O807    1.293   .     A
C753   H793    1.084   .     S
C753   C755    1.403   .     A
C754   C756    1.410   .     A
C755   C757    1.411   .     A
C756   N801    1.433   .     S
C756   C758    1.395   .     A
C757   N802    1.433   .     S
C757   C759    1.395   .     A
C758   H794    1.084   .     S
C758   C760    1.399   .     A
C759   H795    1.084   .     S
C759   C761    1.399   .     A
C761   C538    1.464   1_565 S
C762   O814    1.410   .     S
C762   H779    1.109   .     S
C762   H777    1.113   .     S
C762   H778    1.112   .     S
C763   C766    1.415   .     A
C763   N803    1.431   .     S
C764   H782    1.109   .     S
C764   O806    1.410   .     S
C764   H781    1.112   .     S
C764   H780    1.113   .     S
C765   C767    1.415   .     A
C765   N804    1.432   .     S
C766   N799    1.366   .     A
C766   H796    1.082   .     S
C767   N800    1.366   .     A
C767   H797    1.082   .     S
C768   H798    1.081   .     S
C768   C770    1.408   .     A
C768   N799    1.365   .     A
C769   N800    1.365   .     A
C769   H774    1.081   .     S
C770   H775    1.083   .     S
Cu771  N800    2.004   .     S
Cu771  Cu772   2.668   .     S
Cu771  O813    1.959   .     S
Cu771  O809    1.958   .     S
Cu771  O805    1.955   .     S
Cu771  O810    1.957   .     S
Cu772  O808    1.958   .     S
Cu772  O812    1.959   .     S
Cu772  O807    1.955   .     S
Cu772  O811    1.957   .     S
Cu772  N799    2.004   .     S
H773   C821    1.087   .     S
H783   N801    1.046   .     S
H785   N801    1.046   .     S
H786   N802    1.046   .     S
H787   N802    1.046   .     S
H788   N803    1.046   .     S
H789   N803    1.046   .     S
H790   N804    1.046   .     S
H791   N804    1.046   .     S
C815   C828    1.462   .     S
C815   O882    1.290   .     A
C815   O879    1.292   .     A
C816   C818    1.406   .     A
C816   C843    1.408   .     A
C816   H850    1.083   .     S
C817   C844    1.406   .     A
C817   C837    1.411   .     A
C818   C839    1.411   .     A
C818   C373    1.508   1_556 S
C819   O884    1.283   .     A
C819   C821    1.433   .     S
C819   O886    1.285   .     A
C820   C822    1.433   .     S
C820   O885    1.283   .     A
C820   O887    1.285   .     A
C822   C673    1.335   1_655 S
C822   H710    1.087   1_655 S
C823   C834    1.406   .     A
C823   C825    1.398   .     A
C823   O888    1.384   .     S
C824   O880    1.383   .     S
C824   C835    1.406   .     A
C824   C827    1.396   .     A
C825   C828    1.402   .     A
C825   H866    1.084   .     S
C826   O883    1.290   .     A
C826   C829    1.464   .     S
C826   O881    1.293   .     A
C827   H867    1.084   .     S
C827   C829    1.403   .     A
C828   C830    1.410   .     A
C829   C831    1.411   .     A
C830   N875    1.433   .     S
C830   C832    1.395   .     A
C831   N876    1.433   .     S
C831   C833    1.395   .     A
C832   H868    1.084   .     S
C832   C834    1.399   .     A
C833   H869    1.084   .     S
C833   C835    1.399   .     A
C835   C612    1.464   1_565 S
C836   O888    1.410   .     S
C836   H853    1.109   .     S
C836   H851    1.113   .     S
C836   H852    1.112   .     S
C837   C840    1.415   .     A
C837   N877    1.431   .     S
C838   H856    1.109   .     S
C838   O880    1.410   .     S
C838   H855    1.112   .     S
C838   H854    1.113   .     S
C839   C841    1.415   .     A
C839   N878    1.432   .     S
C840   N873    1.366   .     A
C840   H870    1.082   .     S
C841   N874    1.366   .     A
C841   H871    1.082   .     S
C842   H872    1.081   .     S
C842   C844    1.408   .     A
C842   N873    1.365   .     A
C843   N874    1.365   .     A
C843   H848    1.081   .     S
C844   H849    1.083   .     S
Cu845  N874    2.004   .     S
Cu845  Cu846   2.668   .     S
Cu845  O887    1.959   .     S
Cu845  O883    1.958   .     S
Cu845  O879    1.955   .     S
Cu845  O884    1.957   .     S
Cu846  O882    1.958   .     S
Cu846  O886    1.959   .     S
Cu846  O881    1.955   .     S
Cu846  O885    1.957   .     S
Cu846  N873    2.004   .     S
H847   C673    1.087   1_655 S
H857   N875    1.046   .     S
H859   N875    1.046   .     S
H860   N876    1.046   .     S
H861   N876    1.046   .     S
H862   N877    1.046   .     S
H863   N877    1.046   .     S
H864   N878    1.046   .     S
H865   N878    1.046   .     S
