data_str_m2_o10_o17_pcu_sym.156
_audit_creation_date              2020-01-03
_audit_creation_method            'Materials Studio'
_symmetry_space_group_name_H-M    'P1'
_symmetry_Int_Tables_number       1
_symmetry_cell_setting            triclinic
loop_
_symmetry_equiv_pos_as_xyz
  x,y,z
_cell_length_a                    29.9999
_cell_length_b                    26.2501
_cell_length_c                    22.8352
_cell_angle_alpha                 103.7529
_cell_angle_beta                  95.3938
_cell_angle_gamma                 95.0610
loop_
_atom_site_label
_atom_site_type_symbol
_atom_site_fract_x
_atom_site_fract_y
_atom_site_fract_z
_atom_site_U_iso_or_equiv
_atom_site_adp_type
_atom_site_occupancy
C1     C     0.24762   0.06666   0.15106   0.00000  Uiso   1.00
C2     C     0.25255   0.26667   0.18232   0.00000  Uiso   1.00
C3     C     0.01335   0.07352   0.11678   0.00000  Uiso   1.00
C4     C     0.48661   0.26033   0.21561   0.00000  Uiso   1.00
C5     C     0.24186   0.01008   0.14381   0.00000  Uiso   1.00
C6     C     0.25852   0.32325   0.18975   0.00000  Uiso   1.00
C7     C     0.16489   0.16652   0.16673   0.00000  Uiso   1.00
C8     C     0.33513   0.16696   0.16662   0.00000  Uiso   1.00
C9     C     0.41153   0.21465   0.18760   0.00000  Uiso   1.00
C10    C     0.08843   0.11914   0.14463   0.00000  Uiso   1.00
C11    C     0.38325   0.16682   0.16637   0.00000  Uiso   1.00
C12    C     0.11678   0.16679   0.16695   0.00000  Uiso   1.00
C13    C     0.40073   0.11857   0.14474   0.00000  Uiso   1.00
C14    C     0.09938   0.21497   0.18934   0.00000  Uiso   1.00
C15    C     0.44741   0.11843   0.14018   0.00000  Uiso   1.00
C16    C     0.05262   0.21523   0.19323   0.00000  Uiso   1.00
C17    C     0.47635   0.16642   0.16565   0.00000  Uiso   1.00
C18    C     0.02366   0.16732   0.16727   0.00000  Uiso   1.00
C19    C     0.45811   0.21380   0.18942   0.00000  Uiso   1.00
C20    C     0.04187   0.12001   0.14305   0.00000  Uiso   1.00
C21    C     0.46676   0.07202   0.11304   0.00000  Uiso   1.00
C22    C     0.03324   0.26168   0.22017   0.00000  Uiso   1.00
Cu23   Cu    0.25500   0.17246   0.22813   0.00000  Uiso   1.00
Cu24   Cu    0.24499   0.16087   0.10521   0.00000  Uiso   1.00
H25    H     0.02759   0.03768   0.09757   0.00000  Uiso   1.00
H26    H     0.47234   0.29623   0.23455   0.00000  Uiso   1.00
N27    N     0.23744   0.15214   0.01284   0.00000  Uiso   1.00
N28    N     0.26255   0.18119   0.32049   0.00000  Uiso   1.00
O29    O     0.25325   0.09538   0.20659   0.00000  Uiso   1.00
O30    O     0.24674   0.23796   0.12674   0.00000  Uiso   1.00
O31    O     0.24480   0.08559   0.10279   0.00000  Uiso   1.00
O32    O     0.25520   0.24774   0.23055   0.00000  Uiso   1.00
O33    O     0.18935   0.17155   0.21857   0.00000  Uiso   1.00
O34    O     0.31064   0.16179   0.11476   0.00000  Uiso   1.00
O35    O     0.18090   0.16176   0.11477   0.00000  Uiso   1.00
O36    O     0.31910   0.17157   0.21857   0.00000  Uiso   1.00
O37    O     0.39508   0.26273   0.20811   0.00000  Uiso   1.00
H38    H     0.36222   0.25994   0.19664   0.00000  Uiso   1.00
O39    O     0.10481   0.07122   0.12285   0.00000  Uiso   1.00
H40    H     0.13755   0.07361   0.13508   0.00000  Uiso   1.00
O41    O     0.37299   0.07134   0.13021   0.00000  Uiso   1.00
H42    H     0.34615   0.07459   0.15228   0.00000  Uiso   1.00
O43    O     0.12732   0.26208   0.20526   0.00000  Uiso   1.00
H44    H     0.15436   0.25915   0.18356   0.00000  Uiso   1.00
S45    S     0.43578   0.01184   0.06916   0.00000  Uiso   1.00
O46    O     0.41333   0.31686   0.11044   0.00000  Uiso   1.00
O47    O     0.40077   0.02361   0.02413   0.00000  Uiso   1.00
O48    O     0.47003   0.30536   0.03100   0.00000  Uiso   1.00
H49    H     0.45069   0.27189   0.01166   0.00000  Uiso   1.00
S50    S     0.06432   0.32154   0.26499   0.00000  Uiso   1.00
O51    O     0.08751   0.01679   0.22454   0.00000  Uiso   1.00
O52    O     0.03398   0.02416   0.29910   0.00000  Uiso   1.00
O53    O     0.10300   0.30774   0.31550   0.00000  Uiso   1.00
H54    H     0.08532   0.29073   0.00830   0.00000  Uiso   1.00
O55    O     0.21672   0.31096   0.09220   0.00000  Uiso   1.00
H56    H     0.20419   0.33266   0.06619   0.00000  Uiso   1.00
O57    O     0.28369   0.02220   0.24150   0.00000  Uiso   1.00
H58    H     0.29617   0.00032   0.26749   0.00000  Uiso   1.00
S59    S     0.18402   0.12121   0.31403   0.00000  Uiso   1.00
O60    O     0.15177   0.16197   0.31446   0.00000  Uiso   1.00
O61    O     0.18248   0.08690   0.25111   0.00000  Uiso   1.00
O62    O     0.16534   0.08117   0.02275   0.00000  Uiso   1.00
H63    H     0.17438   0.04627   0.00372   0.00000  Uiso   1.00
S64    S     0.31580   0.21260   0.01922   0.00000  Uiso   1.00
O65    O     0.31716   0.24728   0.08182   0.00000  Uiso   1.00
O66    O     0.34818   0.17195   0.01894   0.00000  Uiso   1.00
O67    O     0.33361   0.25277   0.31011   0.00000  Uiso   1.00
H68    H     0.36687   0.25443   0.31544   0.00000  Uiso   1.00
C69    C     0.74762   0.06666   0.15106   0.00000  Uiso   1.00
C70    C     0.75255   0.26667   0.18232   0.00000  Uiso   1.00
C71    C     0.51335   0.07352   0.11678   0.00000  Uiso   1.00
C72    C     0.98661   0.26033   0.21561   0.00000  Uiso   1.00
C73    C     0.74186   0.01008   0.14381   0.00000  Uiso   1.00
C74    C     0.75852   0.32325   0.18975   0.00000  Uiso   1.00
C75    C     0.66489   0.16652   0.16673   0.00000  Uiso   1.00
C76    C     0.83513   0.16696   0.16662   0.00000  Uiso   1.00
C77    C     0.91153   0.21465   0.18760   0.00000  Uiso   1.00
C78    C     0.58843   0.11914   0.14463   0.00000  Uiso   1.00
C79    C     0.88325   0.16682   0.16637   0.00000  Uiso   1.00
C80    C     0.61678   0.16679   0.16695   0.00000  Uiso   1.00
C81    C     0.90073   0.11857   0.14474   0.00000  Uiso   1.00
C82    C     0.59938   0.21497   0.18934   0.00000  Uiso   1.00
C83    C     0.94741   0.11843   0.14018   0.00000  Uiso   1.00
C84    C     0.55262   0.21523   0.19323   0.00000  Uiso   1.00
C85    C     0.97635   0.16642   0.16565   0.00000  Uiso   1.00
C86    C     0.52366   0.16732   0.16727   0.00000  Uiso   1.00
C87    C     0.95811   0.21380   0.18942   0.00000  Uiso   1.00
C88    C     0.54187   0.12001   0.14305   0.00000  Uiso   1.00
C89    C     0.96676   0.07202   0.11304   0.00000  Uiso   1.00
C90    C     0.53324   0.26168   0.22017   0.00000  Uiso   1.00
Cu91   Cu    0.75500   0.17246   0.22813   0.00000  Uiso   1.00
Cu92   Cu    0.74499   0.16087   0.10521   0.00000  Uiso   1.00
H93    H     0.52759   0.03768   0.09757   0.00000  Uiso   1.00
H94    H     0.97234   0.29623   0.23455   0.00000  Uiso   1.00
N95    N     0.73744   0.15214   0.01284   0.00000  Uiso   1.00
N96    N     0.76255   0.18119   0.32049   0.00000  Uiso   1.00
O97    O     0.75325   0.09538   0.20659   0.00000  Uiso   1.00
O98    O     0.74674   0.23796   0.12674   0.00000  Uiso   1.00
O99    O     0.74480   0.08559   0.10279   0.00000  Uiso   1.00
O100   O     0.75520   0.24774   0.23055   0.00000  Uiso   1.00
O101   O     0.68935   0.17155   0.21857   0.00000  Uiso   1.00
O102   O     0.81064   0.16179   0.11476   0.00000  Uiso   1.00
O103   O     0.68090   0.16176   0.11477   0.00000  Uiso   1.00
O104   O     0.81910   0.17157   0.21857   0.00000  Uiso   1.00
O105   O     0.89508   0.26273   0.20811   0.00000  Uiso   1.00
H106   H     0.86222   0.25994   0.19664   0.00000  Uiso   1.00
O107   O     0.60481   0.07122   0.12285   0.00000  Uiso   1.00
H108   H     0.63755   0.07361   0.13508   0.00000  Uiso   1.00
O109   O     0.87299   0.07134   0.13021   0.00000  Uiso   1.00
H110   H     0.84615   0.07459   0.15228   0.00000  Uiso   1.00
O111   O     0.62732   0.26208   0.20526   0.00000  Uiso   1.00
H112   H     0.65436   0.25915   0.18356   0.00000  Uiso   1.00
S113   S     0.93578   0.01184   0.06916   0.00000  Uiso   1.00
O114   O     0.91333   0.31686   0.11044   0.00000  Uiso   1.00
O115   O     0.90077   0.02361   0.02413   0.00000  Uiso   1.00
O116   O     0.97003   0.30536   0.03100   0.00000  Uiso   1.00
H117   H     0.95069   0.27189   0.01166   0.00000  Uiso   1.00
S118   S     0.56432   0.32154   0.26499   0.00000  Uiso   1.00
O119   O     0.58751   0.01679   0.22454   0.00000  Uiso   1.00
O120   O     0.53398   0.02416   0.29910   0.00000  Uiso   1.00
O121   O     0.60300   0.30774   0.31550   0.00000  Uiso   1.00
H122   H     0.58532   0.29073   0.00830   0.00000  Uiso   1.00
O123   O     0.71672   0.31096   0.09220   0.00000  Uiso   1.00
H124   H     0.70419   0.33266   0.06619   0.00000  Uiso   1.00
O125   O     0.78369   0.02220   0.24150   0.00000  Uiso   1.00
H126   H     0.79617   0.00032   0.26749   0.00000  Uiso   1.00
S127   S     0.68402   0.12121   0.31403   0.00000  Uiso   1.00
O128   O     0.65177   0.16197   0.31446   0.00000  Uiso   1.00
O129   O     0.68248   0.08690   0.25111   0.00000  Uiso   1.00
O130   O     0.66534   0.08117   0.02275   0.00000  Uiso   1.00
H131   H     0.67438   0.04627   0.00372   0.00000  Uiso   1.00
S132   S     0.81580   0.21260   0.01922   0.00000  Uiso   1.00
O133   O     0.81716   0.24728   0.08182   0.00000  Uiso   1.00
O134   O     0.84818   0.17195   0.01894   0.00000  Uiso   1.00
O135   O     0.83361   0.25277   0.31011   0.00000  Uiso   1.00
H136   H     0.86687   0.25443   0.31544   0.00000  Uiso   1.00
C137   C     0.24762   0.40000   0.15106   0.00000  Uiso   1.00
C138   C     0.25255   0.60000   0.18232   0.00000  Uiso   1.00
C139   C     0.01335   0.40685   0.11678   0.00000  Uiso   1.00
C140   C     0.48661   0.59366   0.21561   0.00000  Uiso   1.00
C141   C     0.24186   0.34341   0.14381   0.00000  Uiso   1.00
C142   C     0.25852   0.65658   0.18975   0.00000  Uiso   1.00
C143   C     0.16489   0.49985   0.16673   0.00000  Uiso   1.00
C144   C     0.33513   0.50029   0.16662   0.00000  Uiso   1.00
C145   C     0.41153   0.54798   0.18760   0.00000  Uiso   1.00
C146   C     0.08843   0.45248   0.14463   0.00000  Uiso   1.00
C147   C     0.38325   0.50016   0.16637   0.00000  Uiso   1.00
C148   C     0.11678   0.50012   0.16695   0.00000  Uiso   1.00
C149   C     0.40073   0.45191   0.14474   0.00000  Uiso   1.00
C150   C     0.09938   0.54830   0.18934   0.00000  Uiso   1.00
C151   C     0.44741   0.45176   0.14018   0.00000  Uiso   1.00
C152   C     0.05262   0.54856   0.19323   0.00000  Uiso   1.00
C153   C     0.47635   0.49976   0.16565   0.00000  Uiso   1.00
C154   C     0.02366   0.50066   0.16727   0.00000  Uiso   1.00
C155   C     0.45811   0.54714   0.18942   0.00000  Uiso   1.00
C156   C     0.04187   0.45334   0.14305   0.00000  Uiso   1.00
C157   C     0.46676   0.40535   0.11304   0.00000  Uiso   1.00
C158   C     0.03324   0.59501   0.22017   0.00000  Uiso   1.00
Cu159  Cu    0.25500   0.50579   0.22813   0.00000  Uiso   1.00
Cu160  Cu    0.24499   0.49421   0.10521   0.00000  Uiso   1.00
H161   H     0.02759   0.37101   0.09757   0.00000  Uiso   1.00
H162   H     0.47234   0.62957   0.23455   0.00000  Uiso   1.00
N163   N     0.23744   0.48547   0.01284   0.00000  Uiso   1.00
N164   N     0.26255   0.51453   0.32049   0.00000  Uiso   1.00
O165   O     0.25325   0.42871   0.20659   0.00000  Uiso   1.00
O166   O     0.24674   0.57129   0.12674   0.00000  Uiso   1.00
O167   O     0.24480   0.41892   0.10279   0.00000  Uiso   1.00
O168   O     0.25520   0.58108   0.23055   0.00000  Uiso   1.00
O169   O     0.18935   0.50488   0.21857   0.00000  Uiso   1.00
O170   O     0.31064   0.49512   0.11476   0.00000  Uiso   1.00
O171   O     0.18090   0.49510   0.11477   0.00000  Uiso   1.00
O172   O     0.31910   0.50490   0.21857   0.00000  Uiso   1.00
O173   O     0.39508   0.59606   0.20811   0.00000  Uiso   1.00
H174   H     0.36222   0.59327   0.19664   0.00000  Uiso   1.00
O175   O     0.10481   0.40456   0.12285   0.00000  Uiso   1.00
H176   H     0.13755   0.40694   0.13508   0.00000  Uiso   1.00
O177   O     0.37299   0.40468   0.13021   0.00000  Uiso   1.00
H178   H     0.34615   0.40792   0.15228   0.00000  Uiso   1.00
O179   O     0.12732   0.59541   0.20526   0.00000  Uiso   1.00
H180   H     0.15436   0.59249   0.18356   0.00000  Uiso   1.00
S181   S     0.43578   0.34517   0.06916   0.00000  Uiso   1.00
O182   O     0.41333   0.65019   0.11044   0.00000  Uiso   1.00
O183   O     0.40077   0.35694   0.02413   0.00000  Uiso   1.00
O184   O     0.47003   0.63869   0.03100   0.00000  Uiso   1.00
H185   H     0.45069   0.60522   0.01166   0.00000  Uiso   1.00
S186   S     0.06432   0.65488   0.26499   0.00000  Uiso   1.00
O187   O     0.08751   0.35012   0.22454   0.00000  Uiso   1.00
O188   O     0.03398   0.35749   0.29910   0.00000  Uiso   1.00
O189   O     0.10300   0.64108   0.31550   0.00000  Uiso   1.00
H190   H     0.08532   0.62407   0.00830   0.00000  Uiso   1.00
O191   O     0.21672   0.64429   0.09220   0.00000  Uiso   1.00
H192   H     0.20419   0.66600   0.06619   0.00000  Uiso   1.00
O193   O     0.28369   0.35553   0.24150   0.00000  Uiso   1.00
H194   H     0.29617   0.33365   0.26749   0.00000  Uiso   1.00
S195   S     0.18402   0.45454   0.31403   0.00000  Uiso   1.00
O196   O     0.15177   0.49530   0.31446   0.00000  Uiso   1.00
O197   O     0.18248   0.42023   0.25111   0.00000  Uiso   1.00
O198   O     0.16534   0.41450   0.02275   0.00000  Uiso   1.00
H199   H     0.17438   0.37961   0.00372   0.00000  Uiso   1.00
S200   S     0.31580   0.54593   0.01922   0.00000  Uiso   1.00
O201   O     0.31716   0.58062   0.08182   0.00000  Uiso   1.00
O202   O     0.34818   0.50528   0.01894   0.00000  Uiso   1.00
O203   O     0.33361   0.58610   0.31011   0.00000  Uiso   1.00
H204   H     0.36687   0.58776   0.31544   0.00000  Uiso   1.00
C205   C     0.74762   0.40000   0.15106   0.00000  Uiso   1.00
C206   C     0.75255   0.60000   0.18232   0.00000  Uiso   1.00
C207   C     0.51335   0.40685   0.11678   0.00000  Uiso   1.00
C208   C     0.98661   0.59366   0.21561   0.00000  Uiso   1.00
C209   C     0.74186   0.34341   0.14381   0.00000  Uiso   1.00
C210   C     0.75852   0.65658   0.18975   0.00000  Uiso   1.00
C211   C     0.66489   0.49985   0.16673   0.00000  Uiso   1.00
C212   C     0.83513   0.50029   0.16662   0.00000  Uiso   1.00
C213   C     0.91153   0.54798   0.18760   0.00000  Uiso   1.00
C214   C     0.58843   0.45248   0.14463   0.00000  Uiso   1.00
C215   C     0.88325   0.50016   0.16637   0.00000  Uiso   1.00
C216   C     0.61678   0.50012   0.16695   0.00000  Uiso   1.00
C217   C     0.90073   0.45191   0.14474   0.00000  Uiso   1.00
C218   C     0.59938   0.54830   0.18934   0.00000  Uiso   1.00
C219   C     0.94741   0.45176   0.14018   0.00000  Uiso   1.00
C220   C     0.55262   0.54856   0.19323   0.00000  Uiso   1.00
C221   C     0.97635   0.49976   0.16565   0.00000  Uiso   1.00
C222   C     0.52366   0.50066   0.16727   0.00000  Uiso   1.00
C223   C     0.95811   0.54714   0.18942   0.00000  Uiso   1.00
C224   C     0.54187   0.45334   0.14305   0.00000  Uiso   1.00
C225   C     0.96676   0.40535   0.11304   0.00000  Uiso   1.00
C226   C     0.53324   0.59501   0.22017   0.00000  Uiso   1.00
Cu227  Cu    0.75500   0.50579   0.22813   0.00000  Uiso   1.00
Cu228  Cu    0.74499   0.49421   0.10521   0.00000  Uiso   1.00
H229   H     0.52759   0.37101   0.09757   0.00000  Uiso   1.00
H230   H     0.97234   0.62957   0.23455   0.00000  Uiso   1.00
N231   N     0.73744   0.48547   0.01284   0.00000  Uiso   1.00
N232   N     0.76255   0.51453   0.32049   0.00000  Uiso   1.00
O233   O     0.75325   0.42871   0.20659   0.00000  Uiso   1.00
O234   O     0.74674   0.57129   0.12674   0.00000  Uiso   1.00
O235   O     0.74480   0.41892   0.10279   0.00000  Uiso   1.00
O236   O     0.75520   0.58108   0.23055   0.00000  Uiso   1.00
O237   O     0.68935   0.50488   0.21857   0.00000  Uiso   1.00
O238   O     0.81064   0.49512   0.11476   0.00000  Uiso   1.00
O239   O     0.68090   0.49510   0.11477   0.00000  Uiso   1.00
O240   O     0.81910   0.50490   0.21857   0.00000  Uiso   1.00
O241   O     0.89508   0.59606   0.20811   0.00000  Uiso   1.00
H242   H     0.86222   0.59327   0.19664   0.00000  Uiso   1.00
O243   O     0.60481   0.40456   0.12285   0.00000  Uiso   1.00
H244   H     0.63755   0.40694   0.13508   0.00000  Uiso   1.00
O245   O     0.87299   0.40468   0.13021   0.00000  Uiso   1.00
H246   H     0.84615   0.40792   0.15228   0.00000  Uiso   1.00
O247   O     0.62732   0.59541   0.20526   0.00000  Uiso   1.00
H248   H     0.65436   0.59249   0.18356   0.00000  Uiso   1.00
S249   S     0.93578   0.34517   0.06916   0.00000  Uiso   1.00
O250   O     0.91333   0.65019   0.11044   0.00000  Uiso   1.00
O251   O     0.90077   0.35694   0.02413   0.00000  Uiso   1.00
O252   O     0.97003   0.63869   0.03100   0.00000  Uiso   1.00
H253   H     0.95069   0.60522   0.01166   0.00000  Uiso   1.00
S254   S     0.56432   0.65488   0.26499   0.00000  Uiso   1.00
O255   O     0.58751   0.35012   0.22454   0.00000  Uiso   1.00
O256   O     0.53398   0.35749   0.29910   0.00000  Uiso   1.00
O257   O     0.60300   0.64108   0.31550   0.00000  Uiso   1.00
H258   H     0.58532   0.62407   0.00830   0.00000  Uiso   1.00
O259   O     0.71672   0.64429   0.09220   0.00000  Uiso   1.00
H260   H     0.70419   0.66600   0.06619   0.00000  Uiso   1.00
O261   O     0.78369   0.35553   0.24150   0.00000  Uiso   1.00
H262   H     0.79617   0.33365   0.26749   0.00000  Uiso   1.00
S263   S     0.68402   0.45454   0.31403   0.00000  Uiso   1.00
O264   O     0.65177   0.49530   0.31446   0.00000  Uiso   1.00
O265   O     0.68248   0.42023   0.25111   0.00000  Uiso   1.00
O266   O     0.66534   0.41450   0.02275   0.00000  Uiso   1.00
H267   H     0.67438   0.37961   0.00372   0.00000  Uiso   1.00
S268   S     0.81580   0.54593   0.01922   0.00000  Uiso   1.00
O269   O     0.81716   0.58062   0.08182   0.00000  Uiso   1.00
O270   O     0.84818   0.50528   0.01894   0.00000  Uiso   1.00
O271   O     0.83361   0.58610   0.31011   0.00000  Uiso   1.00
H272   H     0.86687   0.58776   0.31544   0.00000  Uiso   1.00
C273   C     0.24762   0.73333   0.15106   0.00000  Uiso   1.00
C274   C     0.25255   0.93333   0.18232   0.00000  Uiso   1.00
C275   C     0.01335   0.74019   0.11678   0.00000  Uiso   1.00
C276   C     0.48661   0.92700   0.21561   0.00000  Uiso   1.00
C277   C     0.24186   0.67674   0.14381   0.00000  Uiso   1.00
C278   C     0.25852   0.98992   0.18975   0.00000  Uiso   1.00
C279   C     0.16489   0.83319   0.16673   0.00000  Uiso   1.00
C280   C     0.33513   0.83362   0.16662   0.00000  Uiso   1.00
C281   C     0.41153   0.88131   0.18760   0.00000  Uiso   1.00
C282   C     0.08843   0.78581   0.14463   0.00000  Uiso   1.00
C283   C     0.38325   0.83349   0.16637   0.00000  Uiso   1.00
C284   C     0.11678   0.83345   0.16695   0.00000  Uiso   1.00
C285   C     0.40073   0.78524   0.14474   0.00000  Uiso   1.00
C286   C     0.09938   0.88164   0.18934   0.00000  Uiso   1.00
C287   C     0.44741   0.78509   0.14018   0.00000  Uiso   1.00
C288   C     0.05262   0.88189   0.19323   0.00000  Uiso   1.00
C289   C     0.47635   0.83309   0.16565   0.00000  Uiso   1.00
C290   C     0.02366   0.83399   0.16727   0.00000  Uiso   1.00
C291   C     0.45811   0.88047   0.18942   0.00000  Uiso   1.00
C292   C     0.04187   0.78668   0.14305   0.00000  Uiso   1.00
C293   C     0.46676   0.73869   0.11304   0.00000  Uiso   1.00
C294   C     0.03324   0.92835   0.22017   0.00000  Uiso   1.00
Cu295  Cu    0.25500   0.83913   0.22813   0.00000  Uiso   1.00
Cu296  Cu    0.24499   0.82754   0.10521   0.00000  Uiso   1.00
H297   H     0.02759   0.70434   0.09757   0.00000  Uiso   1.00
H298   H     0.47234   0.96290   0.23455   0.00000  Uiso   1.00
N299   N     0.23744   0.81881   0.01284   0.00000  Uiso   1.00
N300   N     0.26255   0.84786   0.32049   0.00000  Uiso   1.00
O301   O     0.25325   0.76204   0.20659   0.00000  Uiso   1.00
O302   O     0.24674   0.90462   0.12674   0.00000  Uiso   1.00
O303   O     0.24480   0.75226   0.10279   0.00000  Uiso   1.00
O304   O     0.25520   0.91441   0.23055   0.00000  Uiso   1.00
O305   O     0.18935   0.83821   0.21857   0.00000  Uiso   1.00
O306   O     0.31064   0.82845   0.11476   0.00000  Uiso   1.00
O307   O     0.18090   0.82843   0.11477   0.00000  Uiso   1.00
O308   O     0.31910   0.83824   0.21857   0.00000  Uiso   1.00
O309   O     0.39508   0.92940   0.20811   0.00000  Uiso   1.00
H310   H     0.36222   0.92661   0.19664   0.00000  Uiso   1.00
O311   O     0.10481   0.73789   0.12285   0.00000  Uiso   1.00
H312   H     0.13755   0.74027   0.13508   0.00000  Uiso   1.00
O313   O     0.37299   0.73801   0.13021   0.00000  Uiso   1.00
H314   H     0.34615   0.74125   0.15228   0.00000  Uiso   1.00
O315   O     0.12732   0.92875   0.20526   0.00000  Uiso   1.00
H316   H     0.15436   0.92582   0.18356   0.00000  Uiso   1.00
S317   S     0.43578   0.67851   0.06916   0.00000  Uiso   1.00
O318   O     0.41333   0.98353   0.11044   0.00000  Uiso   1.00
O319   O     0.40077   0.69027   0.02413   0.00000  Uiso   1.00
O320   O     0.47003   0.97203   0.03100   0.00000  Uiso   1.00
H321   H     0.45069   0.93856   0.01166   0.00000  Uiso   1.00
S322   S     0.06432   0.98821   0.26499   0.00000  Uiso   1.00
O323   O     0.08751   0.68346   0.22454   0.00000  Uiso   1.00
O324   O     0.03398   0.69082   0.29910   0.00000  Uiso   1.00
O325   O     0.10300   0.97441   0.31550   0.00000  Uiso   1.00
H326   H     0.08532   0.95740   0.00830   0.00000  Uiso   1.00
O327   O     0.21672   0.97762   0.09220   0.00000  Uiso   1.00
H328   H     0.20419   0.99933   0.06619   0.00000  Uiso   1.00
O329   O     0.28369   0.68887   0.24150   0.00000  Uiso   1.00
H330   H     0.29617   0.66699   0.26749   0.00000  Uiso   1.00
S331   S     0.18402   0.78788   0.31403   0.00000  Uiso   1.00
O332   O     0.15177   0.82864   0.31446   0.00000  Uiso   1.00
O333   O     0.18248   0.75357   0.25111   0.00000  Uiso   1.00
O334   O     0.16534   0.74784   0.02275   0.00000  Uiso   1.00
H335   H     0.17438   0.71294   0.00372   0.00000  Uiso   1.00
S336   S     0.31580   0.87927   0.01922   0.00000  Uiso   1.00
O337   O     0.31716   0.91395   0.08182   0.00000  Uiso   1.00
O338   O     0.34818   0.83861   0.01894   0.00000  Uiso   1.00
O339   O     0.33361   0.91944   0.31011   0.00000  Uiso   1.00
H340   H     0.36687   0.92109   0.31544   0.00000  Uiso   1.00
C341   C     0.74762   0.73333   0.15106   0.00000  Uiso   1.00
C342   C     0.75255   0.93333   0.18232   0.00000  Uiso   1.00
C343   C     0.51335   0.74019   0.11678   0.00000  Uiso   1.00
C344   C     0.98661   0.92700   0.21561   0.00000  Uiso   1.00
C345   C     0.74186   0.67674   0.14381   0.00000  Uiso   1.00
C346   C     0.75852   0.98992   0.18975   0.00000  Uiso   1.00
C347   C     0.66489   0.83319   0.16673   0.00000  Uiso   1.00
C348   C     0.83513   0.83362   0.16662   0.00000  Uiso   1.00
C349   C     0.91153   0.88131   0.18760   0.00000  Uiso   1.00
C350   C     0.58843   0.78581   0.14463   0.00000  Uiso   1.00
C351   C     0.88325   0.83349   0.16637   0.00000  Uiso   1.00
C352   C     0.61678   0.83345   0.16695   0.00000  Uiso   1.00
C353   C     0.90073   0.78524   0.14474   0.00000  Uiso   1.00
C354   C     0.59938   0.88164   0.18934   0.00000  Uiso   1.00
C355   C     0.94741   0.78509   0.14018   0.00000  Uiso   1.00
C356   C     0.55262   0.88189   0.19323   0.00000  Uiso   1.00
C357   C     0.97635   0.83309   0.16565   0.00000  Uiso   1.00
C358   C     0.52366   0.83399   0.16727   0.00000  Uiso   1.00
C359   C     0.95811   0.88047   0.18942   0.00000  Uiso   1.00
C360   C     0.54187   0.78668   0.14305   0.00000  Uiso   1.00
C361   C     0.96676   0.73869   0.11304   0.00000  Uiso   1.00
C362   C     0.53324   0.92835   0.22017   0.00000  Uiso   1.00
Cu363  Cu    0.75500   0.83913   0.22813   0.00000  Uiso   1.00
Cu364  Cu    0.74499   0.82754   0.10521   0.00000  Uiso   1.00
H365   H     0.52759   0.70434   0.09757   0.00000  Uiso   1.00
H366   H     0.97234   0.96290   0.23455   0.00000  Uiso   1.00
N367   N     0.73744   0.81881   0.01284   0.00000  Uiso   1.00
N368   N     0.76255   0.84786   0.32049   0.00000  Uiso   1.00
O369   O     0.75325   0.76204   0.20659   0.00000  Uiso   1.00
O370   O     0.74674   0.90462   0.12674   0.00000  Uiso   1.00
O371   O     0.74480   0.75226   0.10279   0.00000  Uiso   1.00
O372   O     0.75520   0.91441   0.23055   0.00000  Uiso   1.00
O373   O     0.68935   0.83821   0.21857   0.00000  Uiso   1.00
O374   O     0.81064   0.82845   0.11476   0.00000  Uiso   1.00
O375   O     0.68090   0.82843   0.11477   0.00000  Uiso   1.00
O376   O     0.81910   0.83824   0.21857   0.00000  Uiso   1.00
O377   O     0.89508   0.92940   0.20811   0.00000  Uiso   1.00
H378   H     0.86222   0.92661   0.19664   0.00000  Uiso   1.00
O379   O     0.60481   0.73789   0.12285   0.00000  Uiso   1.00
H380   H     0.63755   0.74027   0.13508   0.00000  Uiso   1.00
O381   O     0.87299   0.73801   0.13021   0.00000  Uiso   1.00
H382   H     0.84615   0.74125   0.15228   0.00000  Uiso   1.00
O383   O     0.62732   0.92875   0.20526   0.00000  Uiso   1.00
H384   H     0.65436   0.92582   0.18356   0.00000  Uiso   1.00
S385   S     0.93578   0.67851   0.06916   0.00000  Uiso   1.00
O386   O     0.91333   0.98353   0.11044   0.00000  Uiso   1.00
O387   O     0.90077   0.69027   0.02413   0.00000  Uiso   1.00
O388   O     0.97003   0.97203   0.03100   0.00000  Uiso   1.00
H389   H     0.95069   0.93856   0.01166   0.00000  Uiso   1.00
S390   S     0.56432   0.98821   0.26499   0.00000  Uiso   1.00
O391   O     0.58751   0.68346   0.22454   0.00000  Uiso   1.00
O392   O     0.53398   0.69082   0.29910   0.00000  Uiso   1.00
O393   O     0.60300   0.97441   0.31550   0.00000  Uiso   1.00
H394   H     0.58532   0.95740   0.00830   0.00000  Uiso   1.00
O395   O     0.71672   0.97762   0.09220   0.00000  Uiso   1.00
H396   H     0.70419   0.99933   0.06619   0.00000  Uiso   1.00
O397   O     0.78369   0.68887   0.24150   0.00000  Uiso   1.00
H398   H     0.79617   0.66699   0.26749   0.00000  Uiso   1.00
S399   S     0.68402   0.78788   0.31403   0.00000  Uiso   1.00
O400   O     0.65177   0.82864   0.31446   0.00000  Uiso   1.00
O401   O     0.68248   0.75357   0.25111   0.00000  Uiso   1.00
O402   O     0.66534   0.74784   0.02275   0.00000  Uiso   1.00
H403   H     0.67438   0.71294   0.00372   0.00000  Uiso   1.00
S404   S     0.81580   0.87927   0.01922   0.00000  Uiso   1.00
O405   O     0.81716   0.91395   0.08182   0.00000  Uiso   1.00
O406   O     0.84818   0.83861   0.01894   0.00000  Uiso   1.00
O407   O     0.83361   0.91944   0.31011   0.00000  Uiso   1.00
H408   H     0.86687   0.92109   0.31544   0.00000  Uiso   1.00
C409   C     0.24762   0.06666   0.48439   0.00000  Uiso   1.00
C410   C     0.25255   0.26667   0.51565   0.00000  Uiso   1.00
C411   C     0.01335   0.07352   0.45012   0.00000  Uiso   1.00
C412   C     0.48661   0.26033   0.54894   0.00000  Uiso   1.00
C413   C     0.24186   0.01008   0.47714   0.00000  Uiso   1.00
C414   C     0.25852   0.32325   0.52308   0.00000  Uiso   1.00
C415   C     0.16489   0.16652   0.50006   0.00000  Uiso   1.00
C416   C     0.33513   0.16696   0.49996   0.00000  Uiso   1.00
C417   C     0.41153   0.21465   0.52094   0.00000  Uiso   1.00
C418   C     0.08843   0.11914   0.47796   0.00000  Uiso   1.00
C419   C     0.38325   0.16682   0.49970   0.00000  Uiso   1.00
C420   C     0.11678   0.16679   0.50028   0.00000  Uiso   1.00
C421   C     0.40073   0.11857   0.47807   0.00000  Uiso   1.00
C422   C     0.09938   0.21497   0.52268   0.00000  Uiso   1.00
C423   C     0.44741   0.11843   0.47351   0.00000  Uiso   1.00
C424   C     0.05262   0.21523   0.52656   0.00000  Uiso   1.00
C425   C     0.47635   0.16642   0.49898   0.00000  Uiso   1.00
C426   C     0.02366   0.16732   0.50060   0.00000  Uiso   1.00
C427   C     0.45811   0.21380   0.52275   0.00000  Uiso   1.00
C428   C     0.04187   0.12001   0.47639   0.00000  Uiso   1.00
C429   C     0.46676   0.07202   0.44637   0.00000  Uiso   1.00
C430   C     0.03324   0.26168   0.55350   0.00000  Uiso   1.00
Cu431  Cu    0.25500   0.17246   0.56146   0.00000  Uiso   1.00
Cu432  Cu    0.24499   0.16087   0.43854   0.00000  Uiso   1.00
H433   H     0.02759   0.03768   0.43091   0.00000  Uiso   1.00
H434   H     0.47234   0.29623   0.56788   0.00000  Uiso   1.00
N435   N     0.23744   0.15214   0.34617   0.00000  Uiso   1.00
N436   N     0.26255   0.18119   0.65383   0.00000  Uiso   1.00
O437   O     0.25325   0.09538   0.53992   0.00000  Uiso   1.00
O438   O     0.24674   0.23796   0.46008   0.00000  Uiso   1.00
O439   O     0.24480   0.08559   0.43612   0.00000  Uiso   1.00
O440   O     0.25520   0.24774   0.56388   0.00000  Uiso   1.00
O441   O     0.18935   0.17155   0.55191   0.00000  Uiso   1.00
O442   O     0.31064   0.16179   0.44809   0.00000  Uiso   1.00
O443   O     0.18090   0.16176   0.44810   0.00000  Uiso   1.00
O444   O     0.31910   0.17157   0.55190   0.00000  Uiso   1.00
O445   O     0.39508   0.26273   0.54144   0.00000  Uiso   1.00
H446   H     0.36222   0.25994   0.52998   0.00000  Uiso   1.00
O447   O     0.10481   0.07122   0.45618   0.00000  Uiso   1.00
H448   H     0.13755   0.07361   0.46841   0.00000  Uiso   1.00
O449   O     0.37299   0.07134   0.46354   0.00000  Uiso   1.00
H450   H     0.34615   0.07459   0.48561   0.00000  Uiso   1.00
O451   O     0.12732   0.26208   0.53859   0.00000  Uiso   1.00
H452   H     0.15436   0.25915   0.51690   0.00000  Uiso   1.00
S453   S     0.43578   0.01184   0.40249   0.00000  Uiso   1.00
O454   O     0.41333   0.31686   0.44378   0.00000  Uiso   1.00
O455   O     0.40077   0.02361   0.35747   0.00000  Uiso   1.00
O456   O     0.47003   0.30536   0.36433   0.00000  Uiso   1.00
H457   H     0.45069   0.27189   0.34499   0.00000  Uiso   1.00
S458   S     0.06432   0.32154   0.59832   0.00000  Uiso   1.00
O459   O     0.08751   0.01679   0.55787   0.00000  Uiso   1.00
O460   O     0.03398   0.02416   0.63243   0.00000  Uiso   1.00
O461   O     0.10300   0.30774   0.64883   0.00000  Uiso   1.00
H462   H     0.08532   0.29073   0.34163   0.00000  Uiso   1.00
O463   O     0.21672   0.31096   0.42553   0.00000  Uiso   1.00
H464   H     0.20419   0.33266   0.39952   0.00000  Uiso   1.00
O465   O     0.28369   0.02220   0.57483   0.00000  Uiso   1.00
H466   H     0.29617   0.00032   0.60083   0.00000  Uiso   1.00
S467   S     0.18402   0.12121   0.64736   0.00000  Uiso   1.00
O468   O     0.15177   0.16197   0.64780   0.00000  Uiso   1.00
O469   O     0.18248   0.08690   0.58444   0.00000  Uiso   1.00
O470   O     0.16534   0.08117   0.35609   0.00000  Uiso   1.00
H471   H     0.17438   0.04627   0.33706   0.00000  Uiso   1.00
S472   S     0.31580   0.21260   0.35255   0.00000  Uiso   1.00
O473   O     0.31716   0.24728   0.41515   0.00000  Uiso   1.00
O474   O     0.34818   0.17195   0.35227   0.00000  Uiso   1.00
O475   O     0.33361   0.25277   0.64344   0.00000  Uiso   1.00
H476   H     0.36687   0.25443   0.64877   0.00000  Uiso   1.00
C477   C     0.74762   0.06666   0.48439   0.00000  Uiso   1.00
C478   C     0.75255   0.26667   0.51565   0.00000  Uiso   1.00
C479   C     0.51335   0.07352   0.45012   0.00000  Uiso   1.00
C480   C     0.98661   0.26033   0.54894   0.00000  Uiso   1.00
C481   C     0.74186   0.01008   0.47714   0.00000  Uiso   1.00
C482   C     0.75852   0.32325   0.52308   0.00000  Uiso   1.00
C483   C     0.66489   0.16652   0.50006   0.00000  Uiso   1.00
C484   C     0.83513   0.16696   0.49996   0.00000  Uiso   1.00
C485   C     0.91153   0.21465   0.52094   0.00000  Uiso   1.00
C486   C     0.58843   0.11914   0.47796   0.00000  Uiso   1.00
C487   C     0.88325   0.16682   0.49970   0.00000  Uiso   1.00
C488   C     0.61678   0.16679   0.50028   0.00000  Uiso   1.00
C489   C     0.90073   0.11857   0.47807   0.00000  Uiso   1.00
C490   C     0.59938   0.21497   0.52268   0.00000  Uiso   1.00
C491   C     0.94741   0.11843   0.47351   0.00000  Uiso   1.00
C492   C     0.55262   0.21523   0.52656   0.00000  Uiso   1.00
C493   C     0.97635   0.16642   0.49898   0.00000  Uiso   1.00
C494   C     0.52366   0.16732   0.50060   0.00000  Uiso   1.00
C495   C     0.95811   0.21380   0.52275   0.00000  Uiso   1.00
C496   C     0.54187   0.12001   0.47639   0.00000  Uiso   1.00
C497   C     0.96676   0.07202   0.44637   0.00000  Uiso   1.00
C498   C     0.53324   0.26168   0.55350   0.00000  Uiso   1.00
Cu499  Cu    0.75500   0.17246   0.56146   0.00000  Uiso   1.00
Cu500  Cu    0.74499   0.16087   0.43854   0.00000  Uiso   1.00
H501   H     0.52759   0.03768   0.43091   0.00000  Uiso   1.00
H502   H     0.97234   0.29623   0.56788   0.00000  Uiso   1.00
N503   N     0.73744   0.15214   0.34617   0.00000  Uiso   1.00
N504   N     0.76255   0.18119   0.65383   0.00000  Uiso   1.00
O505   O     0.75325   0.09538   0.53992   0.00000  Uiso   1.00
O506   O     0.74674   0.23796   0.46008   0.00000  Uiso   1.00
O507   O     0.74480   0.08559   0.43612   0.00000  Uiso   1.00
O508   O     0.75520   0.24774   0.56388   0.00000  Uiso   1.00
O509   O     0.68935   0.17155   0.55191   0.00000  Uiso   1.00
O510   O     0.81064   0.16179   0.44809   0.00000  Uiso   1.00
O511   O     0.68090   0.16176   0.44810   0.00000  Uiso   1.00
O512   O     0.81910   0.17157   0.55190   0.00000  Uiso   1.00
O513   O     0.89508   0.26273   0.54144   0.00000  Uiso   1.00
H514   H     0.86222   0.25994   0.52998   0.00000  Uiso   1.00
O515   O     0.60481   0.07122   0.45618   0.00000  Uiso   1.00
H516   H     0.63755   0.07361   0.46841   0.00000  Uiso   1.00
O517   O     0.87299   0.07134   0.46354   0.00000  Uiso   1.00
H518   H     0.84615   0.07459   0.48561   0.00000  Uiso   1.00
O519   O     0.62732   0.26208   0.53859   0.00000  Uiso   1.00
H520   H     0.65436   0.25915   0.51690   0.00000  Uiso   1.00
S521   S     0.93578   0.01184   0.40249   0.00000  Uiso   1.00
O522   O     0.91333   0.31686   0.44378   0.00000  Uiso   1.00
O523   O     0.90077   0.02361   0.35747   0.00000  Uiso   1.00
O524   O     0.97003   0.30536   0.36433   0.00000  Uiso   1.00
H525   H     0.95069   0.27189   0.34499   0.00000  Uiso   1.00
S526   S     0.56432   0.32154   0.59832   0.00000  Uiso   1.00
O527   O     0.58751   0.01679   0.55787   0.00000  Uiso   1.00
O528   O     0.53398   0.02416   0.63243   0.00000  Uiso   1.00
O529   O     0.60300   0.30774   0.64883   0.00000  Uiso   1.00
H530   H     0.58532   0.29073   0.34163   0.00000  Uiso   1.00
O531   O     0.71672   0.31096   0.42553   0.00000  Uiso   1.00
H532   H     0.70419   0.33266   0.39952   0.00000  Uiso   1.00
O533   O     0.78369   0.02220   0.57483   0.00000  Uiso   1.00
H534   H     0.79617   0.00032   0.60083   0.00000  Uiso   1.00
S535   S     0.68402   0.12121   0.64736   0.00000  Uiso   1.00
O536   O     0.65177   0.16197   0.64780   0.00000  Uiso   1.00
O537   O     0.68248   0.08690   0.58444   0.00000  Uiso   1.00
O538   O     0.66534   0.08117   0.35609   0.00000  Uiso   1.00
H539   H     0.67438   0.04627   0.33706   0.00000  Uiso   1.00
S540   S     0.81580   0.21260   0.35255   0.00000  Uiso   1.00
O541   O     0.81716   0.24728   0.41515   0.00000  Uiso   1.00
O542   O     0.84818   0.17195   0.35227   0.00000  Uiso   1.00
O543   O     0.83361   0.25277   0.64344   0.00000  Uiso   1.00
H544   H     0.86687   0.25443   0.64877   0.00000  Uiso   1.00
C545   C     0.24762   0.40000   0.48439   0.00000  Uiso   1.00
C546   C     0.25255   0.60000   0.51565   0.00000  Uiso   1.00
C547   C     0.01335   0.40685   0.45012   0.00000  Uiso   1.00
C548   C     0.48661   0.59366   0.54894   0.00000  Uiso   1.00
C549   C     0.24186   0.34341   0.47714   0.00000  Uiso   1.00
C550   C     0.25852   0.65658   0.52308   0.00000  Uiso   1.00
C551   C     0.16489   0.49985   0.50006   0.00000  Uiso   1.00
C552   C     0.33513   0.50029   0.49996   0.00000  Uiso   1.00
C553   C     0.41153   0.54798   0.52094   0.00000  Uiso   1.00
C554   C     0.08843   0.45248   0.47796   0.00000  Uiso   1.00
C555   C     0.38325   0.50016   0.49970   0.00000  Uiso   1.00
C556   C     0.11678   0.50012   0.50028   0.00000  Uiso   1.00
C557   C     0.40073   0.45191   0.47807   0.00000  Uiso   1.00
C558   C     0.09938   0.54830   0.52268   0.00000  Uiso   1.00
C559   C     0.44741   0.45176   0.47351   0.00000  Uiso   1.00
C560   C     0.05262   0.54856   0.52656   0.00000  Uiso   1.00
C561   C     0.47635   0.49976   0.49898   0.00000  Uiso   1.00
C562   C     0.02366   0.50066   0.50060   0.00000  Uiso   1.00
C563   C     0.45811   0.54714   0.52275   0.00000  Uiso   1.00
C564   C     0.04187   0.45334   0.47639   0.00000  Uiso   1.00
C565   C     0.46676   0.40535   0.44637   0.00000  Uiso   1.00
C566   C     0.03324   0.59501   0.55350   0.00000  Uiso   1.00
Cu567  Cu    0.25500   0.50579   0.56146   0.00000  Uiso   1.00
Cu568  Cu    0.24499   0.49421   0.43854   0.00000  Uiso   1.00
H569   H     0.02759   0.37101   0.43091   0.00000  Uiso   1.00
H570   H     0.47234   0.62957   0.56788   0.00000  Uiso   1.00
N571   N     0.23744   0.48547   0.34617   0.00000  Uiso   1.00
N572   N     0.26255   0.51453   0.65383   0.00000  Uiso   1.00
O573   O     0.25325   0.42871   0.53992   0.00000  Uiso   1.00
O574   O     0.24674   0.57129   0.46008   0.00000  Uiso   1.00
O575   O     0.24480   0.41892   0.43612   0.00000  Uiso   1.00
O576   O     0.25520   0.58108   0.56388   0.00000  Uiso   1.00
O577   O     0.18935   0.50488   0.55191   0.00000  Uiso   1.00
O578   O     0.31064   0.49512   0.44809   0.00000  Uiso   1.00
O579   O     0.18090   0.49510   0.44810   0.00000  Uiso   1.00
O580   O     0.31910   0.50490   0.55190   0.00000  Uiso   1.00
O581   O     0.39508   0.59606   0.54144   0.00000  Uiso   1.00
H582   H     0.36222   0.59327   0.52998   0.00000  Uiso   1.00
O583   O     0.10481   0.40456   0.45618   0.00000  Uiso   1.00
H584   H     0.13755   0.40694   0.46841   0.00000  Uiso   1.00
O585   O     0.37299   0.40468   0.46354   0.00000  Uiso   1.00
H586   H     0.34615   0.40792   0.48561   0.00000  Uiso   1.00
O587   O     0.12732   0.59541   0.53859   0.00000  Uiso   1.00
H588   H     0.15436   0.59249   0.51690   0.00000  Uiso   1.00
S589   S     0.43578   0.34517   0.40249   0.00000  Uiso   1.00
O590   O     0.41333   0.65019   0.44378   0.00000  Uiso   1.00
O591   O     0.40077   0.35694   0.35747   0.00000  Uiso   1.00
O592   O     0.47003   0.63869   0.36433   0.00000  Uiso   1.00
H593   H     0.45069   0.60522   0.34499   0.00000  Uiso   1.00
S594   S     0.06432   0.65488   0.59832   0.00000  Uiso   1.00
O595   O     0.08751   0.35012   0.55787   0.00000  Uiso   1.00
O596   O     0.03398   0.35749   0.63243   0.00000  Uiso   1.00
O597   O     0.10300   0.64108   0.64883   0.00000  Uiso   1.00
H598   H     0.08532   0.62407   0.34163   0.00000  Uiso   1.00
O599   O     0.21672   0.64429   0.42553   0.00000  Uiso   1.00
H600   H     0.20419   0.66600   0.39952   0.00000  Uiso   1.00
O601   O     0.28369   0.35553   0.57483   0.00000  Uiso   1.00
H602   H     0.29617   0.33365   0.60083   0.00000  Uiso   1.00
S603   S     0.18402   0.45454   0.64736   0.00000  Uiso   1.00
O604   O     0.15177   0.49530   0.64780   0.00000  Uiso   1.00
O605   O     0.18248   0.42023   0.58444   0.00000  Uiso   1.00
O606   O     0.16534   0.41450   0.35609   0.00000  Uiso   1.00
H607   H     0.17438   0.37961   0.33706   0.00000  Uiso   1.00
S608   S     0.31580   0.54593   0.35255   0.00000  Uiso   1.00
O609   O     0.31716   0.58062   0.41515   0.00000  Uiso   1.00
O610   O     0.34818   0.50528   0.35227   0.00000  Uiso   1.00
O611   O     0.33361   0.58610   0.64344   0.00000  Uiso   1.00
H612   H     0.36687   0.58776   0.64877   0.00000  Uiso   1.00
C613   C     0.74762   0.40000   0.48439   0.00000  Uiso   1.00
C614   C     0.75255   0.60000   0.51565   0.00000  Uiso   1.00
C615   C     0.51335   0.40685   0.45012   0.00000  Uiso   1.00
C616   C     0.98661   0.59366   0.54894   0.00000  Uiso   1.00
C617   C     0.74186   0.34341   0.47714   0.00000  Uiso   1.00
C618   C     0.75852   0.65658   0.52308   0.00000  Uiso   1.00
C619   C     0.66489   0.49985   0.50006   0.00000  Uiso   1.00
C620   C     0.83513   0.50029   0.49996   0.00000  Uiso   1.00
C621   C     0.91153   0.54798   0.52094   0.00000  Uiso   1.00
C622   C     0.58843   0.45248   0.47796   0.00000  Uiso   1.00
C623   C     0.88325   0.50016   0.49970   0.00000  Uiso   1.00
C624   C     0.61678   0.50012   0.50028   0.00000  Uiso   1.00
C625   C     0.90073   0.45191   0.47807   0.00000  Uiso   1.00
C626   C     0.59938   0.54830   0.52268   0.00000  Uiso   1.00
C627   C     0.94741   0.45176   0.47351   0.00000  Uiso   1.00
C628   C     0.55262   0.54856   0.52656   0.00000  Uiso   1.00
C629   C     0.97635   0.49976   0.49898   0.00000  Uiso   1.00
C630   C     0.52366   0.50066   0.50060   0.00000  Uiso   1.00
C631   C     0.95811   0.54714   0.52275   0.00000  Uiso   1.00
C632   C     0.54187   0.45334   0.47639   0.00000  Uiso   1.00
C633   C     0.96676   0.40535   0.44637   0.00000  Uiso   1.00
C634   C     0.53324   0.59501   0.55350   0.00000  Uiso   1.00
Cu635  Cu    0.75500   0.50579   0.56146   0.00000  Uiso   1.00
Cu636  Cu    0.74499   0.49421   0.43854   0.00000  Uiso   1.00
H637   H     0.52759   0.37101   0.43091   0.00000  Uiso   1.00
H638   H     0.97234   0.62957   0.56788   0.00000  Uiso   1.00
N639   N     0.73744   0.48547   0.34617   0.00000  Uiso   1.00
N640   N     0.76255   0.51453   0.65383   0.00000  Uiso   1.00
O641   O     0.75325   0.42871   0.53992   0.00000  Uiso   1.00
O642   O     0.74674   0.57129   0.46008   0.00000  Uiso   1.00
O643   O     0.74480   0.41892   0.43612   0.00000  Uiso   1.00
O644   O     0.75520   0.58108   0.56388   0.00000  Uiso   1.00
O645   O     0.68935   0.50488   0.55191   0.00000  Uiso   1.00
O646   O     0.81064   0.49512   0.44809   0.00000  Uiso   1.00
O647   O     0.68090   0.49510   0.44810   0.00000  Uiso   1.00
O648   O     0.81910   0.50490   0.55190   0.00000  Uiso   1.00
O649   O     0.89508   0.59606   0.54144   0.00000  Uiso   1.00
H650   H     0.86222   0.59327   0.52998   0.00000  Uiso   1.00
O651   O     0.60481   0.40456   0.45618   0.00000  Uiso   1.00
H652   H     0.63755   0.40694   0.46841   0.00000  Uiso   1.00
O653   O     0.87299   0.40468   0.46354   0.00000  Uiso   1.00
H654   H     0.84615   0.40792   0.48561   0.00000  Uiso   1.00
O655   O     0.62732   0.59541   0.53859   0.00000  Uiso   1.00
H656   H     0.65436   0.59249   0.51690   0.00000  Uiso   1.00
S657   S     0.93578   0.34517   0.40249   0.00000  Uiso   1.00
O658   O     0.91333   0.65019   0.44378   0.00000  Uiso   1.00
O659   O     0.90077   0.35694   0.35747   0.00000  Uiso   1.00
O660   O     0.97003   0.63869   0.36433   0.00000  Uiso   1.00
H661   H     0.95069   0.60522   0.34499   0.00000  Uiso   1.00
S662   S     0.56432   0.65488   0.59832   0.00000  Uiso   1.00
O663   O     0.58751   0.35012   0.55787   0.00000  Uiso   1.00
O664   O     0.53398   0.35749   0.63243   0.00000  Uiso   1.00
O665   O     0.60300   0.64108   0.64883   0.00000  Uiso   1.00
H666   H     0.58532   0.62407   0.34163   0.00000  Uiso   1.00
O667   O     0.71672   0.64429   0.42553   0.00000  Uiso   1.00
H668   H     0.70419   0.66600   0.39952   0.00000  Uiso   1.00
O669   O     0.78369   0.35553   0.57483   0.00000  Uiso   1.00
H670   H     0.79617   0.33365   0.60083   0.00000  Uiso   1.00
S671   S     0.68402   0.45454   0.64736   0.00000  Uiso   1.00
O672   O     0.65177   0.49530   0.64780   0.00000  Uiso   1.00
O673   O     0.68248   0.42023   0.58444   0.00000  Uiso   1.00
O674   O     0.66534   0.41450   0.35609   0.00000  Uiso   1.00
H675   H     0.67438   0.37961   0.33706   0.00000  Uiso   1.00
S676   S     0.81580   0.54593   0.35255   0.00000  Uiso   1.00
O677   O     0.81716   0.58062   0.41515   0.00000  Uiso   1.00
O678   O     0.84818   0.50528   0.35227   0.00000  Uiso   1.00
O679   O     0.83361   0.58610   0.64344   0.00000  Uiso   1.00
H680   H     0.86687   0.58776   0.64877   0.00000  Uiso   1.00
C681   C     0.24762   0.73333   0.48439   0.00000  Uiso   1.00
C682   C     0.25255   0.93333   0.51565   0.00000  Uiso   1.00
C683   C     0.01335   0.74019   0.45012   0.00000  Uiso   1.00
C684   C     0.48661   0.92700   0.54894   0.00000  Uiso   1.00
C685   C     0.24186   0.67674   0.47714   0.00000  Uiso   1.00
C686   C     0.25852   0.98992   0.52308   0.00000  Uiso   1.00
C687   C     0.16489   0.83319   0.50006   0.00000  Uiso   1.00
C688   C     0.33513   0.83362   0.49996   0.00000  Uiso   1.00
C689   C     0.41153   0.88131   0.52094   0.00000  Uiso   1.00
C690   C     0.08843   0.78581   0.47796   0.00000  Uiso   1.00
C691   C     0.38325   0.83349   0.49970   0.00000  Uiso   1.00
C692   C     0.11678   0.83345   0.50028   0.00000  Uiso   1.00
C693   C     0.40073   0.78524   0.47807   0.00000  Uiso   1.00
C694   C     0.09938   0.88164   0.52268   0.00000  Uiso   1.00
C695   C     0.44741   0.78509   0.47351   0.00000  Uiso   1.00
C696   C     0.05262   0.88189   0.52656   0.00000  Uiso   1.00
C697   C     0.47635   0.83309   0.49898   0.00000  Uiso   1.00
C698   C     0.02366   0.83399   0.50060   0.00000  Uiso   1.00
C699   C     0.45811   0.88047   0.52275   0.00000  Uiso   1.00
C700   C     0.04187   0.78668   0.47639   0.00000  Uiso   1.00
C701   C     0.46676   0.73869   0.44637   0.00000  Uiso   1.00
C702   C     0.03324   0.92835   0.55350   0.00000  Uiso   1.00
Cu703  Cu    0.25500   0.83913   0.56146   0.00000  Uiso   1.00
Cu704  Cu    0.24499   0.82754   0.43854   0.00000  Uiso   1.00
H705   H     0.02759   0.70434   0.43091   0.00000  Uiso   1.00
H706   H     0.47234   0.96290   0.56788   0.00000  Uiso   1.00
N707   N     0.23744   0.81881   0.34617   0.00000  Uiso   1.00
N708   N     0.26255   0.84786   0.65383   0.00000  Uiso   1.00
O709   O     0.25325   0.76204   0.53992   0.00000  Uiso   1.00
O710   O     0.24674   0.90462   0.46008   0.00000  Uiso   1.00
O711   O     0.24480   0.75226   0.43612   0.00000  Uiso   1.00
O712   O     0.25520   0.91441   0.56388   0.00000  Uiso   1.00
O713   O     0.18935   0.83821   0.55191   0.00000  Uiso   1.00
O714   O     0.31064   0.82845   0.44809   0.00000  Uiso   1.00
O715   O     0.18090   0.82843   0.44810   0.00000  Uiso   1.00
O716   O     0.31910   0.83824   0.55190   0.00000  Uiso   1.00
O717   O     0.39508   0.92940   0.54144   0.00000  Uiso   1.00
H718   H     0.36222   0.92661   0.52998   0.00000  Uiso   1.00
O719   O     0.10481   0.73789   0.45618   0.00000  Uiso   1.00
H720   H     0.13755   0.74027   0.46841   0.00000  Uiso   1.00
O721   O     0.37299   0.73801   0.46354   0.00000  Uiso   1.00
H722   H     0.34615   0.74125   0.48561   0.00000  Uiso   1.00
O723   O     0.12732   0.92875   0.53859   0.00000  Uiso   1.00
H724   H     0.15436   0.92582   0.51690   0.00000  Uiso   1.00
S725   S     0.43578   0.67851   0.40249   0.00000  Uiso   1.00
O726   O     0.41333   0.98353   0.44378   0.00000  Uiso   1.00
O727   O     0.40077   0.69027   0.35747   0.00000  Uiso   1.00
O728   O     0.47003   0.97203   0.36433   0.00000  Uiso   1.00
H729   H     0.45069   0.93856   0.34499   0.00000  Uiso   1.00
S730   S     0.06432   0.98821   0.59832   0.00000  Uiso   1.00
O731   O     0.08751   0.68346   0.55787   0.00000  Uiso   1.00
O732   O     0.03398   0.69082   0.63243   0.00000  Uiso   1.00
O733   O     0.10300   0.97441   0.64883   0.00000  Uiso   1.00
H734   H     0.08532   0.95740   0.34163   0.00000  Uiso   1.00
O735   O     0.21672   0.97762   0.42553   0.00000  Uiso   1.00
H736   H     0.20419   0.99933   0.39952   0.00000  Uiso   1.00
O737   O     0.28369   0.68887   0.57483   0.00000  Uiso   1.00
H738   H     0.29617   0.66699   0.60083   0.00000  Uiso   1.00
S739   S     0.18402   0.78788   0.64736   0.00000  Uiso   1.00
O740   O     0.15177   0.82864   0.64780   0.00000  Uiso   1.00
O741   O     0.18248   0.75357   0.58444   0.00000  Uiso   1.00
O742   O     0.16534   0.74784   0.35609   0.00000  Uiso   1.00
H743   H     0.17438   0.71294   0.33706   0.00000  Uiso   1.00
S744   S     0.31580   0.87927   0.35255   0.00000  Uiso   1.00
O745   O     0.31716   0.91395   0.41515   0.00000  Uiso   1.00
O746   O     0.34818   0.83861   0.35227   0.00000  Uiso   1.00
O747   O     0.33361   0.91944   0.64344   0.00000  Uiso   1.00
H748   H     0.36687   0.92109   0.64877   0.00000  Uiso   1.00
C749   C     0.74762   0.73333   0.48439   0.00000  Uiso   1.00
C750   C     0.75255   0.93333   0.51565   0.00000  Uiso   1.00
C751   C     0.51335   0.74019   0.45012   0.00000  Uiso   1.00
C752   C     0.98661   0.92700   0.54894   0.00000  Uiso   1.00
C753   C     0.74186   0.67674   0.47714   0.00000  Uiso   1.00
C754   C     0.75852   0.98992   0.52308   0.00000  Uiso   1.00
C755   C     0.66489   0.83319   0.50006   0.00000  Uiso   1.00
C756   C     0.83513   0.83362   0.49996   0.00000  Uiso   1.00
C757   C     0.91153   0.88131   0.52094   0.00000  Uiso   1.00
C758   C     0.58843   0.78581   0.47796   0.00000  Uiso   1.00
C759   C     0.88325   0.83349   0.49970   0.00000  Uiso   1.00
C760   C     0.61678   0.83345   0.50028   0.00000  Uiso   1.00
C761   C     0.90073   0.78524   0.47807   0.00000  Uiso   1.00
C762   C     0.59938   0.88164   0.52268   0.00000  Uiso   1.00
C763   C     0.94741   0.78509   0.47351   0.00000  Uiso   1.00
C764   C     0.55262   0.88189   0.52656   0.00000  Uiso   1.00
C765   C     0.97635   0.83309   0.49898   0.00000  Uiso   1.00
C766   C     0.52366   0.83399   0.50060   0.00000  Uiso   1.00
C767   C     0.95811   0.88047   0.52275   0.00000  Uiso   1.00
C768   C     0.54187   0.78668   0.47639   0.00000  Uiso   1.00
C769   C     0.96676   0.73869   0.44637   0.00000  Uiso   1.00
C770   C     0.53324   0.92835   0.55350   0.00000  Uiso   1.00
Cu771  Cu    0.75500   0.83913   0.56146   0.00000  Uiso   1.00
Cu772  Cu    0.74499   0.82754   0.43854   0.00000  Uiso   1.00
H773   H     0.52759   0.70434   0.43091   0.00000  Uiso   1.00
H774   H     0.97234   0.96290   0.56788   0.00000  Uiso   1.00
N775   N     0.73744   0.81881   0.34617   0.00000  Uiso   1.00
N776   N     0.76255   0.84786   0.65383   0.00000  Uiso   1.00
O777   O     0.75325   0.76204   0.53992   0.00000  Uiso   1.00
O778   O     0.74674   0.90462   0.46008   0.00000  Uiso   1.00
O779   O     0.74480   0.75226   0.43612   0.00000  Uiso   1.00
O780   O     0.75520   0.91441   0.56388   0.00000  Uiso   1.00
O781   O     0.68935   0.83821   0.55191   0.00000  Uiso   1.00
O782   O     0.81064   0.82845   0.44809   0.00000  Uiso   1.00
O783   O     0.68090   0.82843   0.44810   0.00000  Uiso   1.00
O784   O     0.81910   0.83824   0.55190   0.00000  Uiso   1.00
O785   O     0.89508   0.92940   0.54144   0.00000  Uiso   1.00
H786   H     0.86222   0.92661   0.52998   0.00000  Uiso   1.00
O787   O     0.60481   0.73789   0.45618   0.00000  Uiso   1.00
H788   H     0.63755   0.74027   0.46841   0.00000  Uiso   1.00
O789   O     0.87299   0.73801   0.46354   0.00000  Uiso   1.00
H790   H     0.84615   0.74125   0.48561   0.00000  Uiso   1.00
O791   O     0.62732   0.92875   0.53859   0.00000  Uiso   1.00
H792   H     0.65436   0.92582   0.51690   0.00000  Uiso   1.00
S793   S     0.93578   0.67851   0.40249   0.00000  Uiso   1.00
O794   O     0.91333   0.98353   0.44378   0.00000  Uiso   1.00
O795   O     0.90077   0.69027   0.35747   0.00000  Uiso   1.00
O796   O     0.97003   0.97203   0.36433   0.00000  Uiso   1.00
H797   H     0.95069   0.93856   0.34499   0.00000  Uiso   1.00
S798   S     0.56432   0.98821   0.59832   0.00000  Uiso   1.00
O799   O     0.58751   0.68346   0.55787   0.00000  Uiso   1.00
O800   O     0.53398   0.69082   0.63243   0.00000  Uiso   1.00
O801   O     0.60300   0.97441   0.64883   0.00000  Uiso   1.00
H802   H     0.58532   0.95740   0.34163   0.00000  Uiso   1.00
O803   O     0.71672   0.97762   0.42553   0.00000  Uiso   1.00
H804   H     0.70419   0.99933   0.39952   0.00000  Uiso   1.00
O805   O     0.78369   0.68887   0.57483   0.00000  Uiso   1.00
H806   H     0.79617   0.66699   0.60083   0.00000  Uiso   1.00
S807   S     0.68402   0.78788   0.64736   0.00000  Uiso   1.00
O808   O     0.65177   0.82864   0.64780   0.00000  Uiso   1.00
O809   O     0.68248   0.75357   0.58444   0.00000  Uiso   1.00
O810   O     0.66534   0.74784   0.35609   0.00000  Uiso   1.00
H811   H     0.67438   0.71294   0.33706   0.00000  Uiso   1.00
S812   S     0.81580   0.87927   0.35255   0.00000  Uiso   1.00
O813   O     0.81716   0.91395   0.41515   0.00000  Uiso   1.00
O814   O     0.84818   0.83861   0.35227   0.00000  Uiso   1.00
O815   O     0.83361   0.91944   0.64344   0.00000  Uiso   1.00
H816   H     0.86687   0.92109   0.64877   0.00000  Uiso   1.00
C817   C     0.24762   0.06666   0.81773   0.00000  Uiso   1.00
C818   C     0.25255   0.26667   0.84898   0.00000  Uiso   1.00
C819   C     0.01335   0.07352   0.78345   0.00000  Uiso   1.00
C820   C     0.48661   0.26033   0.88228   0.00000  Uiso   1.00
C821   C     0.24186   0.01008   0.81047   0.00000  Uiso   1.00
C822   C     0.25852   0.32325   0.85641   0.00000  Uiso   1.00
C823   C     0.16489   0.16652   0.83339   0.00000  Uiso   1.00
C824   C     0.33513   0.16696   0.83329   0.00000  Uiso   1.00
C825   C     0.41153   0.21465   0.85427   0.00000  Uiso   1.00
C826   C     0.08843   0.11914   0.81130   0.00000  Uiso   1.00
C827   C     0.38325   0.16682   0.83304   0.00000  Uiso   1.00
C828   C     0.11678   0.16679   0.83361   0.00000  Uiso   1.00
C829   C     0.40073   0.11857   0.81141   0.00000  Uiso   1.00
C830   C     0.09938   0.21497   0.85601   0.00000  Uiso   1.00
C831   C     0.44741   0.11843   0.80685   0.00000  Uiso   1.00
C832   C     0.05262   0.21523   0.85989   0.00000  Uiso   1.00
C833   C     0.47635   0.16642   0.83231   0.00000  Uiso   1.00
C834   C     0.02366   0.16732   0.83393   0.00000  Uiso   1.00
C835   C     0.45811   0.21380   0.85609   0.00000  Uiso   1.00
C836   C     0.04187   0.12001   0.80972   0.00000  Uiso   1.00
C837   C     0.46676   0.07202   0.77971   0.00000  Uiso   1.00
C838   C     0.03324   0.26168   0.88683   0.00000  Uiso   1.00
Cu839  Cu    0.25500   0.17246   0.89479   0.00000  Uiso   1.00
Cu840  Cu    0.24499   0.16087   0.77187   0.00000  Uiso   1.00
H841   H     0.02759   0.03768   0.76424   0.00000  Uiso   1.00
H842   H     0.47234   0.29623   0.90121   0.00000  Uiso   1.00
N843   N     0.23744   0.15214   0.67951   0.00000  Uiso   1.00
N844   N     0.26255   0.18119   0.98716   0.00000  Uiso   1.00
O845   O     0.25325   0.09538   0.87326   0.00000  Uiso   1.00
O846   O     0.24674   0.23796   0.79341   0.00000  Uiso   1.00
O847   O     0.24480   0.08559   0.76945   0.00000  Uiso   1.00
O848   O     0.25520   0.24774   0.89721   0.00000  Uiso   1.00
O849   O     0.18935   0.17155   0.88524   0.00000  Uiso   1.00
O850   O     0.31064   0.16179   0.78143   0.00000  Uiso   1.00
O851   O     0.18090   0.16176   0.78143   0.00000  Uiso   1.00
O852   O     0.31910   0.17157   0.88523   0.00000  Uiso   1.00
O853   O     0.39508   0.26273   0.87477   0.00000  Uiso   1.00
H854   H     0.36222   0.25994   0.86331   0.00000  Uiso   1.00
O855   O     0.10481   0.07122   0.78952   0.00000  Uiso   1.00
H856   H     0.13755   0.07361   0.80175   0.00000  Uiso   1.00
O857   O     0.37299   0.07134   0.79688   0.00000  Uiso   1.00
H858   H     0.34615   0.07459   0.81894   0.00000  Uiso   1.00
O859   O     0.12732   0.26208   0.87193   0.00000  Uiso   1.00
H860   H     0.15436   0.25915   0.85023   0.00000  Uiso   1.00
S861   S     0.43578   0.01184   0.73583   0.00000  Uiso   1.00
O862   O     0.41333   0.31686   0.77711   0.00000  Uiso   1.00
O863   O     0.40077   0.02361   0.69080   0.00000  Uiso   1.00
O864   O     0.47003   0.30536   0.69766   0.00000  Uiso   1.00
H865   H     0.45069   0.27189   0.67832   0.00000  Uiso   1.00
S866   S     0.06432   0.32154   0.93165   0.00000  Uiso   1.00
O867   O     0.08751   0.01679   0.89120   0.00000  Uiso   1.00
O868   O     0.03398   0.02416   0.96576   0.00000  Uiso   1.00
O869   O     0.10300   0.30774   0.98216   0.00000  Uiso   1.00
H870   H     0.08532   0.29073   0.67496   0.00000  Uiso   1.00
O871   O     0.21672   0.31096   0.75887   0.00000  Uiso   1.00
H872   H     0.20419   0.33266   0.73286   0.00000  Uiso   1.00
O873   O     0.28369   0.02220   0.90816   0.00000  Uiso   1.00
H874   H     0.29617   0.00032   0.93416   0.00000  Uiso   1.00
S875   S     0.18402   0.12121   0.98069   0.00000  Uiso   1.00
O876   O     0.15177   0.16197   0.98113   0.00000  Uiso   1.00
O877   O     0.18248   0.08690   0.91777   0.00000  Uiso   1.00
O878   O     0.16534   0.08117   0.68942   0.00000  Uiso   1.00
H879   H     0.17438   0.04627   0.67039   0.00000  Uiso   1.00
S880   S     0.31580   0.21260   0.68588   0.00000  Uiso   1.00
O881   O     0.31716   0.24728   0.74848   0.00000  Uiso   1.00
O882   O     0.34818   0.17195   0.68561   0.00000  Uiso   1.00
O883   O     0.33361   0.25277   0.97677   0.00000  Uiso   1.00
H884   H     0.36687   0.25443   0.98210   0.00000  Uiso   1.00
C885   C     0.74762   0.06666   0.81773   0.00000  Uiso   1.00
C886   C     0.75255   0.26667   0.84898   0.00000  Uiso   1.00
C887   C     0.51335   0.07352   0.78345   0.00000  Uiso   1.00
C888   C     0.98661   0.26033   0.88228   0.00000  Uiso   1.00
C889   C     0.74186   0.01008   0.81047   0.00000  Uiso   1.00
C890   C     0.75852   0.32325   0.85641   0.00000  Uiso   1.00
C891   C     0.66489   0.16652   0.83339   0.00000  Uiso   1.00
C892   C     0.83513   0.16696   0.83329   0.00000  Uiso   1.00
C893   C     0.91153   0.21465   0.85427   0.00000  Uiso   1.00
C894   C     0.58843   0.11914   0.81130   0.00000  Uiso   1.00
C895   C     0.88325   0.16682   0.83304   0.00000  Uiso   1.00
C896   C     0.61678   0.16679   0.83361   0.00000  Uiso   1.00
C897   C     0.90073   0.11857   0.81141   0.00000  Uiso   1.00
C898   C     0.59938   0.21497   0.85601   0.00000  Uiso   1.00
C899   C     0.94741   0.11843   0.80685   0.00000  Uiso   1.00
C900   C     0.55262   0.21523   0.85989   0.00000  Uiso   1.00
C901   C     0.97635   0.16642   0.83231   0.00000  Uiso   1.00
C902   C     0.52366   0.16732   0.83393   0.00000  Uiso   1.00
C903   C     0.95811   0.21380   0.85609   0.00000  Uiso   1.00
C904   C     0.54187   0.12001   0.80972   0.00000  Uiso   1.00
C905   C     0.96676   0.07202   0.77971   0.00000  Uiso   1.00
C906   C     0.53324   0.26168   0.88683   0.00000  Uiso   1.00
Cu907  Cu    0.75500   0.17246   0.89479   0.00000  Uiso   1.00
Cu908  Cu    0.74499   0.16087   0.77187   0.00000  Uiso   1.00
H909   H     0.52759   0.03768   0.76424   0.00000  Uiso   1.00
H910   H     0.97234   0.29623   0.90121   0.00000  Uiso   1.00
N911   N     0.73744   0.15214   0.67951   0.00000  Uiso   1.00
N912   N     0.76255   0.18119   0.98716   0.00000  Uiso   1.00
O913   O     0.75325   0.09538   0.87326   0.00000  Uiso   1.00
O914   O     0.74674   0.23796   0.79341   0.00000  Uiso   1.00
O915   O     0.74480   0.08559   0.76945   0.00000  Uiso   1.00
O916   O     0.75520   0.24774   0.89721   0.00000  Uiso   1.00
O917   O     0.68935   0.17155   0.88524   0.00000  Uiso   1.00
O918   O     0.81064   0.16179   0.78143   0.00000  Uiso   1.00
O919   O     0.68090   0.16176   0.78143   0.00000  Uiso   1.00
O920   O     0.81910   0.17157   0.88523   0.00000  Uiso   1.00
O921   O     0.89508   0.26273   0.87477   0.00000  Uiso   1.00
H922   H     0.86222   0.25994   0.86331   0.00000  Uiso   1.00
O923   O     0.60481   0.07122   0.78952   0.00000  Uiso   1.00
H924   H     0.63755   0.07361   0.80175   0.00000  Uiso   1.00
O925   O     0.87299   0.07134   0.79688   0.00000  Uiso   1.00
H926   H     0.84615   0.07459   0.81894   0.00000  Uiso   1.00
O927   O     0.62732   0.26208   0.87193   0.00000  Uiso   1.00
H928   H     0.65436   0.25915   0.85023   0.00000  Uiso   1.00
S929   S     0.93578   0.01184   0.73583   0.00000  Uiso   1.00
O930   O     0.91333   0.31686   0.77711   0.00000  Uiso   1.00
O931   O     0.90077   0.02361   0.69080   0.00000  Uiso   1.00
O932   O     0.97003   0.30536   0.69766   0.00000  Uiso   1.00
H933   H     0.95069   0.27189   0.67832   0.00000  Uiso   1.00
S934   S     0.56432   0.32154   0.93165   0.00000  Uiso   1.00
O935   O     0.58751   0.01679   0.89120   0.00000  Uiso   1.00
O936   O     0.53398   0.02416   0.96576   0.00000  Uiso   1.00
O937   O     0.60300   0.30774   0.98216   0.00000  Uiso   1.00
H938   H     0.58532   0.29073   0.67496   0.00000  Uiso   1.00
O939   O     0.71672   0.31096   0.75887   0.00000  Uiso   1.00
H940   H     0.70419   0.33266   0.73286   0.00000  Uiso   1.00
O941   O     0.78369   0.02220   0.90816   0.00000  Uiso   1.00
H942   H     0.79617   0.00032   0.93416   0.00000  Uiso   1.00
S943   S     0.68402   0.12121   0.98069   0.00000  Uiso   1.00
O944   O     0.65177   0.16197   0.98113   0.00000  Uiso   1.00
O945   O     0.68248   0.08690   0.91777   0.00000  Uiso   1.00
O946   O     0.66534   0.08117   0.68942   0.00000  Uiso   1.00
H947   H     0.67438   0.04627   0.67039   0.00000  Uiso   1.00
S948   S     0.81580   0.21260   0.68588   0.00000  Uiso   1.00
O949   O     0.81716   0.24728   0.74848   0.00000  Uiso   1.00
O950   O     0.84818   0.17195   0.68561   0.00000  Uiso   1.00
O951   O     0.83361   0.25277   0.97677   0.00000  Uiso   1.00
H952   H     0.86687   0.25443   0.98210   0.00000  Uiso   1.00
C953   C     0.24762   0.40000   0.81773   0.00000  Uiso   1.00
C954   C     0.25255   0.60000   0.84898   0.00000  Uiso   1.00
C955   C     0.01335   0.40685   0.78345   0.00000  Uiso   1.00
C956   C     0.48661   0.59366   0.88228   0.00000  Uiso   1.00
C957   C     0.24186   0.34341   0.81047   0.00000  Uiso   1.00
C958   C     0.25852   0.65658   0.85641   0.00000  Uiso   1.00
C959   C     0.16489   0.49985   0.83339   0.00000  Uiso   1.00
C960   C     0.33513   0.50029   0.83329   0.00000  Uiso   1.00
C961   C     0.41153   0.54798   0.85427   0.00000  Uiso   1.00
C962   C     0.08843   0.45248   0.81130   0.00000  Uiso   1.00
C963   C     0.38325   0.50016   0.83304   0.00000  Uiso   1.00
C964   C     0.11678   0.50012   0.83361   0.00000  Uiso   1.00
C965   C     0.40073   0.45191   0.81141   0.00000  Uiso   1.00
C966   C     0.09938   0.54830   0.85601   0.00000  Uiso   1.00
C967   C     0.44741   0.45176   0.80685   0.00000  Uiso   1.00
C968   C     0.05262   0.54856   0.85989   0.00000  Uiso   1.00
C969   C     0.47635   0.49976   0.83231   0.00000  Uiso   1.00
C970   C     0.02366   0.50066   0.83393   0.00000  Uiso   1.00
C971   C     0.45811   0.54714   0.85609   0.00000  Uiso   1.00
C972   C     0.04187   0.45334   0.80972   0.00000  Uiso   1.00
C973   C     0.46676   0.40535   0.77971   0.00000  Uiso   1.00
C974   C     0.03324   0.59501   0.88683   0.00000  Uiso   1.00
Cu975  Cu    0.25500   0.50579   0.89479   0.00000  Uiso   1.00
Cu976  Cu    0.24499   0.49421   0.77187   0.00000  Uiso   1.00
H977   H     0.02759   0.37101   0.76424   0.00000  Uiso   1.00
H978   H     0.47234   0.62957   0.90121   0.00000  Uiso   1.00
N979   N     0.23744   0.48547   0.67951   0.00000  Uiso   1.00
N980   N     0.26255   0.51453   0.98716   0.00000  Uiso   1.00
O981   O     0.25325   0.42871   0.87326   0.00000  Uiso   1.00
O982   O     0.24674   0.57129   0.79341   0.00000  Uiso   1.00
O983   O     0.24480   0.41892   0.76945   0.00000  Uiso   1.00
O984   O     0.25520   0.58108   0.89721   0.00000  Uiso   1.00
O985   O     0.18935   0.50488   0.88524   0.00000  Uiso   1.00
O986   O     0.31064   0.49512   0.78143   0.00000  Uiso   1.00
O987   O     0.18090   0.49510   0.78143   0.00000  Uiso   1.00
O988   O     0.31910   0.50490   0.88523   0.00000  Uiso   1.00
O989   O     0.39508   0.59606   0.87477   0.00000  Uiso   1.00
H990   H     0.36222   0.59327   0.86331   0.00000  Uiso   1.00
O991   O     0.10481   0.40456   0.78952   0.00000  Uiso   1.00
H992   H     0.13755   0.40694   0.80175   0.00000  Uiso   1.00
O993   O     0.37299   0.40468   0.79688   0.00000  Uiso   1.00
H994   H     0.34615   0.40792   0.81894   0.00000  Uiso   1.00
O995   O     0.12732   0.59541   0.87193   0.00000  Uiso   1.00
H996   H     0.15436   0.59249   0.85023   0.00000  Uiso   1.00
S997   S     0.43578   0.34517   0.73583   0.00000  Uiso   1.00
O998   O     0.41333   0.65019   0.77711   0.00000  Uiso   1.00
O999   O     0.40077   0.35694   0.69080   0.00000  Uiso   1.00
O1000  O     0.47003   0.63869   0.69766   0.00000  Uiso   1.00
H1001  H     0.45069   0.60522   0.67832   0.00000  Uiso   1.00
S1002  S     0.06432   0.65488   0.93165   0.00000  Uiso   1.00
O1003  O     0.08751   0.35012   0.89120   0.00000  Uiso   1.00
O1004  O     0.03398   0.35749   0.96576   0.00000  Uiso   1.00
O1005  O     0.10300   0.64108   0.98216   0.00000  Uiso   1.00
H1006  H     0.08532   0.62407   0.67496   0.00000  Uiso   1.00
O1007  O     0.21672   0.64429   0.75887   0.00000  Uiso   1.00
H1008  H     0.20419   0.66600   0.73286   0.00000  Uiso   1.00
O1009  O     0.28369   0.35553   0.90816   0.00000  Uiso   1.00
H1010  H     0.29617   0.33365   0.93416   0.00000  Uiso   1.00
S1011  S     0.18402   0.45454   0.98069   0.00000  Uiso   1.00
O1012  O     0.15177   0.49530   0.98113   0.00000  Uiso   1.00
O1013  O     0.18248   0.42023   0.91777   0.00000  Uiso   1.00
O1014  O     0.16534   0.41450   0.68942   0.00000  Uiso   1.00
H1015  H     0.17438   0.37961   0.67039   0.00000  Uiso   1.00
S1016  S     0.31580   0.54593   0.68588   0.00000  Uiso   1.00
O1017  O     0.31716   0.58062   0.74848   0.00000  Uiso   1.00
O1018  O     0.34818   0.50528   0.68561   0.00000  Uiso   1.00
O1019  O     0.33361   0.58610   0.97677   0.00000  Uiso   1.00
H1020  H     0.36687   0.58776   0.98210   0.00000  Uiso   1.00
C1021  C     0.74762   0.40000   0.81773   0.00000  Uiso   1.00
C1022  C     0.75255   0.60000   0.84898   0.00000  Uiso   1.00
C1023  C     0.51335   0.40685   0.78345   0.00000  Uiso   1.00
C1024  C     0.98661   0.59366   0.88228   0.00000  Uiso   1.00
C1025  C     0.74186   0.34341   0.81047   0.00000  Uiso   1.00
C1026  C     0.75852   0.65658   0.85641   0.00000  Uiso   1.00
C1027  C     0.66489   0.49985   0.83339   0.00000  Uiso   1.00
C1028  C     0.83513   0.50029   0.83329   0.00000  Uiso   1.00
C1029  C     0.91153   0.54798   0.85427   0.00000  Uiso   1.00
C1030  C     0.58843   0.45248   0.81130   0.00000  Uiso   1.00
C1031  C     0.88325   0.50016   0.83304   0.00000  Uiso   1.00
C1032  C     0.61678   0.50012   0.83361   0.00000  Uiso   1.00
C1033  C     0.90073   0.45191   0.81141   0.00000  Uiso   1.00
C1034  C     0.59938   0.54830   0.85601   0.00000  Uiso   1.00
C1035  C     0.94741   0.45176   0.80685   0.00000  Uiso   1.00
C1036  C     0.55262   0.54856   0.85989   0.00000  Uiso   1.00
C1037  C     0.97635   0.49976   0.83231   0.00000  Uiso   1.00
C1038  C     0.52366   0.50066   0.83393   0.00000  Uiso   1.00
C1039  C     0.95811   0.54714   0.85609   0.00000  Uiso   1.00
C1040  C     0.54187   0.45334   0.80972   0.00000  Uiso   1.00
C1041  C     0.96676   0.40535   0.77971   0.00000  Uiso   1.00
C1042  C     0.53324   0.59501   0.88683   0.00000  Uiso   1.00
Cu1043 Cu    0.75500   0.50579   0.89479   0.00000  Uiso   1.00
Cu1044 Cu    0.74499   0.49421   0.77187   0.00000  Uiso   1.00
H1045  H     0.52759   0.37101   0.76424   0.00000  Uiso   1.00
H1046  H     0.97234   0.62957   0.90121   0.00000  Uiso   1.00
N1047  N     0.73744   0.48547   0.67951   0.00000  Uiso   1.00
N1048  N     0.76255   0.51453   0.98716   0.00000  Uiso   1.00
O1049  O     0.75325   0.42871   0.87326   0.00000  Uiso   1.00
O1050  O     0.74674   0.57129   0.79341   0.00000  Uiso   1.00
O1051  O     0.74480   0.41892   0.76945   0.00000  Uiso   1.00
O1052  O     0.75520   0.58108   0.89721   0.00000  Uiso   1.00
O1053  O     0.68935   0.50488   0.88524   0.00000  Uiso   1.00
O1054  O     0.81064   0.49512   0.78143   0.00000  Uiso   1.00
O1055  O     0.68090   0.49510   0.78143   0.00000  Uiso   1.00
O1056  O     0.81910   0.50490   0.88523   0.00000  Uiso   1.00
O1057  O     0.89508   0.59606   0.87477   0.00000  Uiso   1.00
H1058  H     0.86222   0.59327   0.86331   0.00000  Uiso   1.00
O1059  O     0.60481   0.40456   0.78952   0.00000  Uiso   1.00
H1060  H     0.63755   0.40694   0.80175   0.00000  Uiso   1.00
O1061  O     0.87299   0.40468   0.79688   0.00000  Uiso   1.00
H1062  H     0.84615   0.40792   0.81894   0.00000  Uiso   1.00
O1063  O     0.62732   0.59541   0.87193   0.00000  Uiso   1.00
H1064  H     0.65436   0.59249   0.85023   0.00000  Uiso   1.00
S1065  S     0.93578   0.34517   0.73583   0.00000  Uiso   1.00
O1066  O     0.91333   0.65019   0.77711   0.00000  Uiso   1.00
O1067  O     0.90077   0.35694   0.69080   0.00000  Uiso   1.00
O1068  O     0.97003   0.63869   0.69766   0.00000  Uiso   1.00
H1069  H     0.95069   0.60522   0.67832   0.00000  Uiso   1.00
S1070  S     0.56432   0.65488   0.93165   0.00000  Uiso   1.00
O1071  O     0.58751   0.35012   0.89120   0.00000  Uiso   1.00
O1072  O     0.53398   0.35749   0.96576   0.00000  Uiso   1.00
O1073  O     0.60300   0.64108   0.98216   0.00000  Uiso   1.00
H1074  H     0.58532   0.62407   0.67496   0.00000  Uiso   1.00
O1075  O     0.71672   0.64429   0.75887   0.00000  Uiso   1.00
H1076  H     0.70419   0.66600   0.73286   0.00000  Uiso   1.00
O1077  O     0.78369   0.35553   0.90816   0.00000  Uiso   1.00
H1078  H     0.79617   0.33365   0.93416   0.00000  Uiso   1.00
S1079  S     0.68402   0.45454   0.98069   0.00000  Uiso   1.00
O1080  O     0.65177   0.49530   0.98113   0.00000  Uiso   1.00
O1081  O     0.68248   0.42023   0.91777   0.00000  Uiso   1.00
O1082  O     0.66534   0.41450   0.68942   0.00000  Uiso   1.00
H1083  H     0.67438   0.37961   0.67039   0.00000  Uiso   1.00
S1084  S     0.81580   0.54593   0.68588   0.00000  Uiso   1.00
O1085  O     0.81716   0.58062   0.74848   0.00000  Uiso   1.00
O1086  O     0.84818   0.50528   0.68561   0.00000  Uiso   1.00
O1087  O     0.83361   0.58610   0.97677   0.00000  Uiso   1.00
H1088  H     0.86687   0.58776   0.98210   0.00000  Uiso   1.00
C1089  C     0.24762   0.73333   0.81773   0.00000  Uiso   1.00
C1090  C     0.25255   0.93333   0.84898   0.00000  Uiso   1.00
C1091  C     0.01335   0.74019   0.78345   0.00000  Uiso   1.00
C1092  C     0.48661   0.92700   0.88228   0.00000  Uiso   1.00
C1093  C     0.24186   0.67674   0.81047   0.00000  Uiso   1.00
C1094  C     0.25852   0.98992   0.85641   0.00000  Uiso   1.00
C1095  C     0.16489   0.83319   0.83339   0.00000  Uiso   1.00
C1096  C     0.33513   0.83362   0.83329   0.00000  Uiso   1.00
C1097  C     0.41153   0.88131   0.85427   0.00000  Uiso   1.00
C1098  C     0.08843   0.78581   0.81130   0.00000  Uiso   1.00
C1099  C     0.38325   0.83349   0.83304   0.00000  Uiso   1.00
C1100  C     0.11678   0.83345   0.83361   0.00000  Uiso   1.00
C1101  C     0.40073   0.78524   0.81141   0.00000  Uiso   1.00
C1102  C     0.09938   0.88164   0.85601   0.00000  Uiso   1.00
C1103  C     0.44741   0.78509   0.80685   0.00000  Uiso   1.00
C1104  C     0.05262   0.88189   0.85989   0.00000  Uiso   1.00
C1105  C     0.47635   0.83309   0.83231   0.00000  Uiso   1.00
C1106  C     0.02366   0.83399   0.83393   0.00000  Uiso   1.00
C1107  C     0.45811   0.88047   0.85609   0.00000  Uiso   1.00
C1108  C     0.04187   0.78668   0.80972   0.00000  Uiso   1.00
C1109  C     0.46676   0.73869   0.77971   0.00000  Uiso   1.00
C1110  C     0.03324   0.92835   0.88683   0.00000  Uiso   1.00
Cu1111 Cu    0.25500   0.83913   0.89479   0.00000  Uiso   1.00
Cu1112 Cu    0.24499   0.82754   0.77187   0.00000  Uiso   1.00
H1113  H     0.02759   0.70434   0.76424   0.00000  Uiso   1.00
H1114  H     0.47234   0.96290   0.90121   0.00000  Uiso   1.00
N1115  N     0.23744   0.81881   0.67951   0.00000  Uiso   1.00
N1116  N     0.26255   0.84786   0.98716   0.00000  Uiso   1.00
O1117  O     0.25325   0.76204   0.87326   0.00000  Uiso   1.00
O1118  O     0.24674   0.90462   0.79341   0.00000  Uiso   1.00
O1119  O     0.24480   0.75226   0.76945   0.00000  Uiso   1.00
O1120  O     0.25520   0.91441   0.89721   0.00000  Uiso   1.00
O1121  O     0.18935   0.83821   0.88524   0.00000  Uiso   1.00
O1122  O     0.31064   0.82845   0.78143   0.00000  Uiso   1.00
O1123  O     0.18090   0.82843   0.78143   0.00000  Uiso   1.00
O1124  O     0.31910   0.83824   0.88523   0.00000  Uiso   1.00
O1125  O     0.39508   0.92940   0.87477   0.00000  Uiso   1.00
H1126  H     0.36222   0.92661   0.86331   0.00000  Uiso   1.00
O1127  O     0.10481   0.73789   0.78952   0.00000  Uiso   1.00
H1128  H     0.13755   0.74027   0.80175   0.00000  Uiso   1.00
O1129  O     0.37299   0.73801   0.79688   0.00000  Uiso   1.00
H1130  H     0.34615   0.74125   0.81894   0.00000  Uiso   1.00
O1131  O     0.12732   0.92875   0.87193   0.00000  Uiso   1.00
H1132  H     0.15436   0.92582   0.85023   0.00000  Uiso   1.00
S1133  S     0.43578   0.67851   0.73583   0.00000  Uiso   1.00
O1134  O     0.41333   0.98353   0.77711   0.00000  Uiso   1.00
O1135  O     0.40077   0.69027   0.69080   0.00000  Uiso   1.00
O1136  O     0.47003   0.97203   0.69766   0.00000  Uiso   1.00
H1137  H     0.45069   0.93856   0.67832   0.00000  Uiso   1.00
S1138  S     0.06432   0.98821   0.93165   0.00000  Uiso   1.00
O1139  O     0.08751   0.68346   0.89120   0.00000  Uiso   1.00
O1140  O     0.03398   0.69082   0.96576   0.00000  Uiso   1.00
O1141  O     0.10300   0.97441   0.98216   0.00000  Uiso   1.00
H1142  H     0.08532   0.95740   0.67496   0.00000  Uiso   1.00
O1143  O     0.21672   0.97762   0.75887   0.00000  Uiso   1.00
H1144  H     0.20419   0.99933   0.73286   0.00000  Uiso   1.00
O1145  O     0.28369   0.68887   0.90816   0.00000  Uiso   1.00
H1146  H     0.29617   0.66699   0.93416   0.00000  Uiso   1.00
S1147  S     0.18402   0.78788   0.98069   0.00000  Uiso   1.00
O1148  O     0.15177   0.82864   0.98113   0.00000  Uiso   1.00
O1149  O     0.18248   0.75357   0.91777   0.00000  Uiso   1.00
O1150  O     0.16534   0.74784   0.68942   0.00000  Uiso   1.00
H1151  H     0.17438   0.71294   0.67039   0.00000  Uiso   1.00
S1152  S     0.31580   0.87927   0.68588   0.00000  Uiso   1.00
O1153  O     0.31716   0.91395   0.74848   0.00000  Uiso   1.00
O1154  O     0.34818   0.83861   0.68561   0.00000  Uiso   1.00
O1155  O     0.33361   0.91944   0.97677   0.00000  Uiso   1.00
H1156  H     0.36687   0.92109   0.98210   0.00000  Uiso   1.00
C1157  C     0.74762   0.73333   0.81773   0.00000  Uiso   1.00
C1158  C     0.75255   0.93333   0.84898   0.00000  Uiso   1.00
C1159  C     0.51335   0.74019   0.78345   0.00000  Uiso   1.00
C1160  C     0.98661   0.92700   0.88228   0.00000  Uiso   1.00
C1161  C     0.74186   0.67674   0.81047   0.00000  Uiso   1.00
C1162  C     0.75852   0.98992   0.85641   0.00000  Uiso   1.00
C1163  C     0.66489   0.83319   0.83339   0.00000  Uiso   1.00
C1164  C     0.83513   0.83362   0.83329   0.00000  Uiso   1.00
C1165  C     0.91153   0.88131   0.85427   0.00000  Uiso   1.00
C1166  C     0.58843   0.78581   0.81130   0.00000  Uiso   1.00
C1167  C     0.88325   0.83349   0.83304   0.00000  Uiso   1.00
C1168  C     0.61678   0.83345   0.83361   0.00000  Uiso   1.00
C1169  C     0.90073   0.78524   0.81141   0.00000  Uiso   1.00
C1170  C     0.59938   0.88164   0.85601   0.00000  Uiso   1.00
C1171  C     0.94741   0.78509   0.80685   0.00000  Uiso   1.00
C1172  C     0.55262   0.88189   0.85989   0.00000  Uiso   1.00
C1173  C     0.97635   0.83309   0.83231   0.00000  Uiso   1.00
C1174  C     0.52366   0.83399   0.83393   0.00000  Uiso   1.00
C1175  C     0.95811   0.88047   0.85609   0.00000  Uiso   1.00
C1176  C     0.54187   0.78668   0.80972   0.00000  Uiso   1.00
C1177  C     0.96676   0.73869   0.77971   0.00000  Uiso   1.00
C1178  C     0.53324   0.92835   0.88683   0.00000  Uiso   1.00
Cu1179 Cu    0.75500   0.83913   0.89479   0.00000  Uiso   1.00
Cu1180 Cu    0.74499   0.82754   0.77187   0.00000  Uiso   1.00
H1181  H     0.52759   0.70434   0.76424   0.00000  Uiso   1.00
H1182  H     0.97234   0.96290   0.90121   0.00000  Uiso   1.00
N1183  N     0.73744   0.81881   0.67951   0.00000  Uiso   1.00
N1184  N     0.76255   0.84786   0.98716   0.00000  Uiso   1.00
O1185  O     0.75325   0.76204   0.87326   0.00000  Uiso   1.00
O1186  O     0.74674   0.90462   0.79341   0.00000  Uiso   1.00
O1187  O     0.74480   0.75226   0.76945   0.00000  Uiso   1.00
O1188  O     0.75520   0.91441   0.89721   0.00000  Uiso   1.00
O1189  O     0.68935   0.83821   0.88524   0.00000  Uiso   1.00
O1190  O     0.81064   0.82845   0.78143   0.00000  Uiso   1.00
O1191  O     0.68090   0.82843   0.78143   0.00000  Uiso   1.00
O1192  O     0.81910   0.83824   0.88523   0.00000  Uiso   1.00
O1193  O     0.89508   0.92940   0.87477   0.00000  Uiso   1.00
H1194  H     0.86222   0.92661   0.86331   0.00000  Uiso   1.00
O1195  O     0.60481   0.73789   0.78952   0.00000  Uiso   1.00
H1196  H     0.63755   0.74027   0.80175   0.00000  Uiso   1.00
O1197  O     0.87299   0.73801   0.79688   0.00000  Uiso   1.00
H1198  H     0.84615   0.74125   0.81894   0.00000  Uiso   1.00
O1199  O     0.62732   0.92875   0.87193   0.00000  Uiso   1.00
H1200  H     0.65436   0.92582   0.85023   0.00000  Uiso   1.00
S1201  S     0.93578   0.67851   0.73583   0.00000  Uiso   1.00
O1202  O     0.91333   0.98353   0.77711   0.00000  Uiso   1.00
O1203  O     0.90077   0.69027   0.69080   0.00000  Uiso   1.00
O1204  O     0.97003   0.97203   0.69766   0.00000  Uiso   1.00
H1205  H     0.95069   0.93856   0.67832   0.00000  Uiso   1.00
S1206  S     0.56432   0.98821   0.93165   0.00000  Uiso   1.00
O1207  O     0.58751   0.68346   0.89120   0.00000  Uiso   1.00
O1208  O     0.53398   0.69082   0.96576   0.00000  Uiso   1.00
O1209  O     0.60300   0.97441   0.98216   0.00000  Uiso   1.00
H1210  H     0.58532   0.95740   0.67496   0.00000  Uiso   1.00
O1211  O     0.71672   0.97762   0.75887   0.00000  Uiso   1.00
H1212  H     0.70419   0.99933   0.73286   0.00000  Uiso   1.00
O1213  O     0.78369   0.68887   0.90816   0.00000  Uiso   1.00
H1214  H     0.79617   0.66699   0.93416   0.00000  Uiso   1.00
S1215  S     0.68402   0.78788   0.98069   0.00000  Uiso   1.00
O1216  O     0.65177   0.82864   0.98113   0.00000  Uiso   1.00
O1217  O     0.68248   0.75357   0.91777   0.00000  Uiso   1.00
O1218  O     0.66534   0.74784   0.68942   0.00000  Uiso   1.00
H1219  H     0.67438   0.71294   0.67039   0.00000  Uiso   1.00
S1220  S     0.81580   0.87927   0.68588   0.00000  Uiso   1.00
O1221  O     0.81716   0.91395   0.74848   0.00000  Uiso   1.00
O1222  O     0.84818   0.83861   0.68561   0.00000  Uiso   1.00
O1223  O     0.83361   0.91944   0.97677   0.00000  Uiso   1.00
H1224  H     0.86687   0.92109   0.98210   0.00000  Uiso   1.00
loop_
_geom_bond_atom_site_label_1
_geom_bond_atom_site_label_2
_geom_bond_distance
_geom_bond_site_symmetry_2
_ccdc_geom_bond_type
C1     C5      1.448   .     S
C1     O31     1.311   .     A
C1     O29     1.299   .     A
C2     O30     1.300   .     A
C2     O32     1.310   .     A
C2     C6      1.447   .     S
C3     C20     1.397   .     A
C3     H25     1.082   .     S
C3     C89     1.389   1_455 S
C4     H26     1.082   .     S
C4     C19     1.397   .     A
C4     C90     1.390   .     S
C5     C278    1.357   1_545 S
C5     O327    1.388   1_545 S
C6     C141    1.357   .     S
C6     O193    1.389   .     S
C7     C12     1.444   .     S
C7     O33     1.305   .     A
C7     O35     1.304   .     A
C8     C11     1.445   .     S
C8     O36     1.305   .     A
C8     O34     1.305   .     A
C9     C11     1.406   .     A
C9     O37     1.388   .     S
C9     C19     1.397   .     A
C10    C12     1.405   .     A
C10    C20     1.396   .     A
C10    O39     1.389   .     S
C11    C13     1.411   .     A
C12    C14     1.412   .     A
C13    O41     1.382   .     S
C13    C15     1.414   .     A
C14    C16     1.414   .     A
C14    O43     1.382   .     S
C15    C21     1.428   .     A
C15    C17     1.429   .     A
C16    C18     1.429   .     A
C16    C22     1.428   .     A
C17    C19     1.413   .     A
C17    C86     1.414   .     S
C18    C20     1.413   .     A
C18    C85     1.414   1_455 S
C21    S45     1.782   .     S
C21    C71     1.389   .     S
C22    S50     1.784   .     S
C22    C72     1.390   1_455 S
Cu23   N28     2.055   .     S
Cu23   Cu24    2.735   .     S
Cu23   O32     1.963   .     S
Cu23   O29     1.960   .     S
Cu23   O36     1.957   .     S
Cu23   O33     1.958   .     S
Cu24   N27     2.055   .     S
Cu24   O31     1.963   .     S
Cu24   O35     1.957   .     S
Cu24   O30     1.960   .     S
Cu24   O34     1.958   .     S
N27    N844    1.299   1_554 S
N27    S875    1.742   1_554 S
N28    N435    1.299   .     S
N28    S472    1.740   .     S
O37    H38     0.988   .     S
O39    H40     0.988   .     S
O41    H42     0.989   .     S
O43    H44     0.989   .     S
S45    O47     1.504   .     D
S45    O318    1.503   1_545 S
S45    O320    1.683   1_545 S
O46    S181    1.503   .     S
O48    H49     0.990   .     S
O48    S181    1.683   .     S
S50    O53     1.682   .     S
S50    O187    1.503   .     S
S50    O188    1.504   .     S
O51    S322    1.503   1_545 S
O52    S322    1.504   1_545 S
O53    H462    0.991   .     S
H54    O869    0.991   1_554 S
O55    H56     0.988   .     S
O55    C141    1.388   .     S
O57    H58     0.990   .     S
O57    C278    1.389   1_545 S
S59    O60     1.503   .     D
S59    O61     1.498   .     D
S59    N435    1.742   .     S
S59    O470    1.679   .     S
O62    H63     0.989   .     S
O62    S875    1.679   1_554 S
S64    O65     1.496   .     D
S64    O66     1.505   .     D
S64    N844    1.740   1_554 S
S64    O883    1.679   1_554 S
O67    H68     0.990   .     S
O67    S472    1.679   .     S
C69    C73     1.448   .     S
C69    O99     1.311   .     A
C69    O97     1.299   .     A
C70    O98     1.300   .     A
C70    O100    1.310   .     A
C70    C74     1.447   .     S
C71    C88     1.397   .     A
C71    H93     1.082   .     S
C72    H94     1.082   .     S
C72    C87     1.397   .     A
C72    C22     1.390   1_655 S
C73    C346    1.357   1_545 S
C73    O395    1.388   1_545 S
C74    C209    1.357   .     S
C74    O261    1.389   .     S
C75    C80     1.444   .     S
C75    O101    1.305   .     A
C75    O103    1.304   .     A
C76    C79     1.445   .     S
C76    O104    1.305   .     A
C76    O102    1.305   .     A
C77    C79     1.406   .     A
C77    O105    1.388   .     S
C77    C87     1.397   .     A
C78    C80     1.405   .     A
C78    C88     1.396   .     A
C78    O107    1.389   .     S
C79    C81     1.411   .     A
C80    C82     1.412   .     A
C81    O109    1.382   .     S
C81    C83     1.414   .     A
C82    C84     1.414   .     A
C82    O111    1.382   .     S
C83    C89     1.428   .     A
C83    C85     1.429   .     A
C84    C86     1.429   .     A
C84    C90     1.428   .     A
C85    C87     1.413   .     A
C85    C18     1.414   1_655 S
C86    C88     1.413   .     A
C89    S113    1.782   .     S
C89    C3      1.389   1_655 S
C90    S118    1.784   .     S
Cu91   N96     2.055   .     S
Cu91   Cu92    2.735   .     S
Cu91   O100    1.963   .     S
Cu91   O97     1.960   .     S
Cu91   O104    1.957   .     S
Cu91   O101    1.958   .     S
Cu92   N95     2.055   .     S
Cu92   O99     1.963   .     S
Cu92   O103    1.957   .     S
Cu92   O98     1.960   .     S
Cu92   O102    1.958   .     S
N95    N912    1.299   1_554 S
N95    S943    1.742   1_554 S
N96    N503    1.299   .     S
N96    S540    1.740   .     S
O105   H106    0.988   .     S
O107   H108    0.988   .     S
O109   H110    0.989   .     S
O111   H112    0.989   .     S
S113   O115    1.504   .     D
S113   O386    1.503   1_545 S
S113   O388    1.683   1_545 S
O114   S249    1.503   .     S
O116   H117    0.990   .     S
O116   S249    1.683   .     S
S118   O121    1.682   .     S
S118   O255    1.503   .     S
S118   O256    1.504   .     S
O119   S390    1.503   1_545 S
O120   S390    1.504   1_545 S
O121   H530    0.991   .     S
H122   O937    0.991   1_554 S
O123   H124    0.988   .     S
O123   C209    1.388   .     S
O125   H126    0.990   .     S
O125   C346    1.389   1_545 S
S127   O128    1.503   .     D
S127   O129    1.498   .     D
S127   N503    1.742   .     S
S127   O538    1.679   .     S
O130   H131    0.989   .     S
O130   S943    1.679   1_554 S
S132   O133    1.496   .     D
S132   O134    1.505   .     D
S132   N912    1.740   1_554 S
S132   O951    1.679   1_554 S
O135   H136    0.990   .     S
O135   S540    1.679   .     S
C137   C141    1.448   .     S
C137   O167    1.311   .     A
C137   O165    1.299   .     A
C138   O166    1.300   .     A
C138   O168    1.310   .     A
C138   C142    1.447   .     S
C139   C156    1.397   .     A
C139   H161    1.082   .     S
C139   C225    1.389   1_455 S
C140   H162    1.082   .     S
C140   C155    1.397   .     A
C140   C226    1.390   .     S
C142   C277    1.357   .     S
C142   O329    1.389   .     S
C143   C148    1.444   .     S
C143   O169    1.305   .     A
C143   O171    1.304   .     A
C144   C147    1.445   .     S
C144   O172    1.305   .     A
C144   O170    1.305   .     A
C145   C147    1.406   .     A
C145   O173    1.388   .     S
C145   C155    1.397   .     A
C146   C148    1.405   .     A
C146   C156    1.396   .     A
C146   O175    1.389   .     S
C147   C149    1.411   .     A
C148   C150    1.412   .     A
C149   O177    1.382   .     S
C149   C151    1.414   .     A
C150   C152    1.414   .     A
C150   O179    1.382   .     S
C151   C157    1.428   .     A
C151   C153    1.429   .     A
C152   C154    1.429   .     A
C152   C158    1.428   .     A
C153   C155    1.413   .     A
C153   C222    1.414   .     S
C154   C156    1.413   .     A
C154   C221    1.414   1_455 S
C157   S181    1.782   .     S
C157   C207    1.389   .     S
C158   S186    1.784   .     S
C158   C208    1.390   1_455 S
Cu159  N164    2.055   .     S
Cu159  Cu160   2.735   .     S
Cu159  O168    1.963   .     S
Cu159  O165    1.960   .     S
Cu159  O172    1.957   .     S
Cu159  O169    1.958   .     S
Cu160  N163    2.055   .     S
Cu160  O167    1.963   .     S
Cu160  O171    1.957   .     S
Cu160  O166    1.960   .     S
Cu160  O170    1.958   .     S
N163   N980    1.299   1_554 S
N163   S1011   1.742   1_554 S
N164   N571    1.299   .     S
N164   S608    1.740   .     S
O173   H174    0.988   .     S
O175   H176    0.988   .     S
O177   H178    0.989   .     S
O179   H180    0.989   .     S
S181   O183    1.504   .     D
O182   S317    1.503   .     S
O184   H185    0.990   .     S
O184   S317    1.683   .     S
S186   O189    1.682   .     S
S186   O323    1.503   .     S
S186   O324    1.504   .     S
O189   H598    0.991   .     S
H190   O1005   0.991   1_554 S
O191   H192    0.988   .     S
O191   C277    1.388   .     S
O193   H194    0.990   .     S
S195   O196    1.503   .     D
S195   O197    1.498   .     D
S195   N571    1.742   .     S
S195   O606    1.679   .     S
O198   H199    0.989   .     S
O198   S1011   1.679   1_554 S
S200   O201    1.496   .     D
S200   O202    1.505   .     D
S200   N980    1.740   1_554 S
S200   O1019   1.679   1_554 S
O203   H204    0.990   .     S
O203   S608    1.679   .     S
C205   C209    1.448   .     S
C205   O235    1.311   .     A
C205   O233    1.299   .     A
C206   O234    1.300   .     A
C206   O236    1.310   .     A
C206   C210    1.447   .     S
C207   C224    1.397   .     A
C207   H229    1.082   .     S
C208   H230    1.082   .     S
C208   C223    1.397   .     A
C208   C158    1.390   1_655 S
C210   C345    1.357   .     S
C210   O397    1.389   .     S
C211   C216    1.444   .     S
C211   O237    1.305   .     A
C211   O239    1.304   .     A
C212   C215    1.445   .     S
C212   O240    1.305   .     A
C212   O238    1.305   .     A
C213   C215    1.406   .     A
C213   O241    1.388   .     S
C213   C223    1.397   .     A
C214   C216    1.405   .     A
C214   C224    1.396   .     A
C214   O243    1.389   .     S
C215   C217    1.411   .     A
C216   C218    1.412   .     A
C217   O245    1.382   .     S
C217   C219    1.414   .     A
C218   C220    1.414   .     A
C218   O247    1.382   .     S
C219   C225    1.428   .     A
C219   C221    1.429   .     A
C220   C222    1.429   .     A
C220   C226    1.428   .     A
C221   C223    1.413   .     A
C221   C154    1.414   1_655 S
C222   C224    1.413   .     A
C225   S249    1.782   .     S
C225   C139    1.389   1_655 S
C226   S254    1.784   .     S
Cu227  N232    2.055   .     S
Cu227  Cu228   2.735   .     S
Cu227  O236    1.963   .     S
Cu227  O233    1.960   .     S
Cu227  O240    1.957   .     S
Cu227  O237    1.958   .     S
Cu228  N231    2.055   .     S
Cu228  O235    1.963   .     S
Cu228  O239    1.957   .     S
Cu228  O234    1.960   .     S
Cu228  O238    1.958   .     S
N231   N1048   1.299   1_554 S
N231   S1079   1.742   1_554 S
N232   N639    1.299   .     S
N232   S676    1.740   .     S
O241   H242    0.988   .     S
O243   H244    0.988   .     S
O245   H246    0.989   .     S
O247   H248    0.989   .     S
S249   O251    1.504   .     D
O250   S385    1.503   .     S
O252   H253    0.990   .     S
O252   S385    1.683   .     S
S254   O257    1.682   .     S
S254   O391    1.503   .     S
S254   O392    1.504   .     S
O257   H666    0.991   .     S
H258   O1073   0.991   1_554 S
O259   H260    0.988   .     S
O259   C345    1.388   .     S
O261   H262    0.990   .     S
S263   O264    1.503   .     D
S263   O265    1.498   .     D
S263   N639    1.742   .     S
S263   O674    1.679   .     S
O266   H267    0.989   .     S
O266   S1079   1.679   1_554 S
S268   O269    1.496   .     D
S268   O270    1.505   .     D
S268   N1048   1.740   1_554 S
S268   O1087   1.679   1_554 S
O271   H272    0.990   .     S
O271   S676    1.679   .     S
C273   C277    1.448   .     S
C273   O303    1.311   .     A
C273   O301    1.299   .     A
C274   O302    1.300   .     A
C274   O304    1.310   .     A
C274   C278    1.447   .     S
C275   C292    1.397   .     A
C275   H297    1.082   .     S
C275   C361    1.389   1_455 S
C276   H298    1.082   .     S
C276   C291    1.397   .     A
C276   C362    1.390   .     S
C278   C5      1.357   1_565 S
C278   O57     1.389   1_565 S
C279   C284    1.444   .     S
C279   O305    1.305   .     A
C279   O307    1.304   .     A
C280   C283    1.445   .     S
C280   O308    1.305   .     A
C280   O306    1.305   .     A
C281   C283    1.406   .     A
C281   O309    1.388   .     S
C281   C291    1.397   .     A
C282   C284    1.405   .     A
C282   C292    1.396   .     A
C282   O311    1.389   .     S
C283   C285    1.411   .     A
C284   C286    1.412   .     A
C285   O313    1.382   .     S
C285   C287    1.414   .     A
C286   C288    1.414   .     A
C286   O315    1.382   .     S
C287   C293    1.428   .     A
C287   C289    1.429   .     A
C288   C290    1.429   .     A
C288   C294    1.428   .     A
C289   C291    1.413   .     A
C289   C358    1.414   .     S
C290   C292    1.413   .     A
C290   C357    1.414   1_455 S
C293   S317    1.782   .     S
C293   C343    1.389   .     S
C294   S322    1.784   .     S
C294   C344    1.390   1_455 S
Cu295  N300    2.055   .     S
Cu295  Cu296   2.735   .     S
Cu295  O304    1.963   .     S
Cu295  O301    1.960   .     S
Cu295  O308    1.957   .     S
Cu295  O305    1.958   .     S
Cu296  N299    2.055   .     S
Cu296  O303    1.963   .     S
Cu296  O307    1.957   .     S
Cu296  O302    1.960   .     S
Cu296  O306    1.958   .     S
N299   N1116   1.299   1_554 S
N299   S1147   1.742   1_554 S
N300   N707    1.299   .     S
N300   S744    1.740   .     S
O309   H310    0.988   .     S
O311   H312    0.988   .     S
O313   H314    0.989   .     S
O315   H316    0.989   .     S
S317   O319    1.504   .     D
O318   S45     1.503   1_565 S
O320   H321    0.990   .     S
O320   S45     1.683   1_565 S
S322   O325    1.682   .     S
S322   O51     1.503   1_565 S
S322   O52     1.504   1_565 S
O325   H734    0.991   .     S
H326   O1141   0.991   1_554 S
O327   H328    0.988   .     S
O327   C5      1.388   1_565 S
O329   H330    0.990   .     S
S331   O332    1.503   .     D
S331   O333    1.498   .     D
S331   N707    1.742   .     S
S331   O742    1.679   .     S
O334   H335    0.989   .     S
O334   S1147   1.679   1_554 S
S336   O337    1.496   .     D
S336   O338    1.505   .     D
S336   N1116   1.740   1_554 S
S336   O1155   1.679   1_554 S
O339   H340    0.990   .     S
O339   S744    1.679   .     S
C341   C345    1.448   .     S
C341   O371    1.311   .     A
C341   O369    1.299   .     A
C342   O370    1.300   .     A
C342   O372    1.310   .     A
C342   C346    1.447   .     S
C343   C360    1.397   .     A
C343   H365    1.082   .     S
C344   H366    1.082   .     S
C344   C359    1.397   .     A
C344   C294    1.390   1_655 S
C346   C73     1.357   1_565 S
C346   O125    1.389   1_565 S
C347   C352    1.444   .     S
C347   O373    1.305   .     A
C347   O375    1.304   .     A
C348   C351    1.445   .     S
C348   O376    1.305   .     A
C348   O374    1.305   .     A
C349   C351    1.406   .     A
C349   O377    1.388   .     S
C349   C359    1.397   .     A
C350   C352    1.405   .     A
C350   C360    1.396   .     A
C350   O379    1.389   .     S
C351   C353    1.411   .     A
C352   C354    1.412   .     A
C353   O381    1.382   .     S
C353   C355    1.414   .     A
C354   C356    1.414   .     A
C354   O383    1.382   .     S
C355   C361    1.428   .     A
C355   C357    1.429   .     A
C356   C358    1.429   .     A
C356   C362    1.428   .     A
C357   C359    1.413   .     A
C357   C290    1.414   1_655 S
C358   C360    1.413   .     A
C361   S385    1.782   .     S
C361   C275    1.389   1_655 S
C362   S390    1.784   .     S
Cu363  N368    2.055   .     S
Cu363  Cu364   2.735   .     S
Cu363  O372    1.963   .     S
Cu363  O369    1.960   .     S
Cu363  O376    1.957   .     S
Cu363  O373    1.958   .     S
Cu364  N367    2.055   .     S
Cu364  O371    1.963   .     S
Cu364  O375    1.957   .     S
Cu364  O370    1.960   .     S
Cu364  O374    1.958   .     S
N367   N1184   1.299   1_554 S
N367   S1215   1.742   1_554 S
N368   N775    1.299   .     S
N368   S812    1.740   .     S
O377   H378    0.988   .     S
O379   H380    0.988   .     S
O381   H382    0.989   .     S
O383   H384    0.989   .     S
S385   O387    1.504   .     D
O386   S113    1.503   1_565 S
O388   H389    0.990   .     S
O388   S113    1.683   1_565 S
S390   O393    1.682   .     S
S390   O119    1.503   1_565 S
S390   O120    1.504   1_565 S
O393   H802    0.991   .     S
H394   O1209   0.991   1_554 S
O395   H396    0.988   .     S
O395   C73     1.388   1_565 S
O397   H398    0.990   .     S
S399   O400    1.503   .     D
S399   O401    1.498   .     D
S399   N775    1.742   .     S
S399   O810    1.679   .     S
O402   H403    0.989   .     S
O402   S1215   1.679   1_554 S
S404   O405    1.496   .     D
S404   O406    1.505   .     D
S404   N1184   1.740   1_554 S
S404   O1223   1.679   1_554 S
O407   H408    0.990   .     S
O407   S812    1.679   .     S
C409   C413    1.448   .     S
C409   O439    1.311   .     A
C409   O437    1.299   .     A
C410   O438    1.300   .     A
C410   O440    1.310   .     A
C410   C414    1.447   .     S
C411   C428    1.397   .     A
C411   H433    1.082   .     S
C411   C497    1.389   1_455 S
C412   H434    1.082   .     S
C412   C427    1.397   .     A
C412   C498    1.390   .     S
C413   C686    1.357   1_545 S
C413   O735    1.388   1_545 S
C414   C549    1.357   .     S
C414   O601    1.389   .     S
C415   C420    1.444   .     S
C415   O441    1.305   .     A
C415   O443    1.304   .     A
C416   C419    1.445   .     S
C416   O444    1.305   .     A
C416   O442    1.305   .     A
C417   C419    1.406   .     A
C417   O445    1.388   .     S
C417   C427    1.397   .     A
C418   C420    1.405   .     A
C418   C428    1.396   .     A
C418   O447    1.389   .     S
C419   C421    1.411   .     A
C420   C422    1.412   .     A
C421   O449    1.382   .     S
C421   C423    1.414   .     A
C422   C424    1.414   .     A
C422   O451    1.382   .     S
C423   C429    1.428   .     A
C423   C425    1.429   .     A
C424   C426    1.429   .     A
C424   C430    1.428   .     A
C425   C427    1.413   .     A
C425   C494    1.414   .     S
C426   C428    1.413   .     A
C426   C493    1.414   1_455 S
C429   S453    1.782   .     S
C429   C479    1.389   .     S
C430   S458    1.784   .     S
C430   C480    1.390   1_455 S
Cu431  N436    2.055   .     S
Cu431  Cu432   2.735   .     S
Cu431  O440    1.963   .     S
Cu431  O437    1.960   .     S
Cu431  O444    1.957   .     S
Cu431  O441    1.958   .     S
Cu432  N435    2.055   .     S
Cu432  O439    1.963   .     S
Cu432  O443    1.957   .     S
Cu432  O438    1.960   .     S
Cu432  O442    1.958   .     S
N436   N843    1.299   .     S
N436   S880    1.740   .     S
O445   H446    0.988   .     S
O447   H448    0.988   .     S
O449   H450    0.989   .     S
O451   H452    0.989   .     S
S453   O455    1.504   .     D
S453   O726    1.503   1_545 S
S453   O728    1.683   1_545 S
O454   S589    1.503   .     S
O456   H457    0.990   .     S
O456   S589    1.683   .     S
S458   O461    1.682   .     S
S458   O595    1.503   .     S
S458   O596    1.504   .     S
O459   S730    1.503   1_545 S
O460   S730    1.504   1_545 S
O461   H870    0.991   .     S
O463   H464    0.988   .     S
O463   C549    1.388   .     S
O465   H466    0.990   .     S
O465   C686    1.389   1_545 S
S467   O468    1.503   .     D
S467   O469    1.498   .     D
S467   N843    1.742   .     S
S467   O878    1.679   .     S
O470   H471    0.989   .     S
S472   O473    1.496   .     D
S472   O474    1.505   .     D
O475   H476    0.990   .     S
O475   S880    1.679   .     S
C477   C481    1.448   .     S
C477   O507    1.311   .     A
C477   O505    1.299   .     A
C478   O506    1.300   .     A
C478   O508    1.310   .     A
C478   C482    1.447   .     S
C479   C496    1.397   .     A
C479   H501    1.082   .     S
C480   H502    1.082   .     S
C480   C495    1.397   .     A
C480   C430    1.390   1_655 S
C481   C754    1.357   1_545 S
C481   O803    1.388   1_545 S
C482   C617    1.357   .     S
C482   O669    1.389   .     S
C483   C488    1.444   .     S
C483   O509    1.305   .     A
C483   O511    1.304   .     A
C484   C487    1.445   .     S
C484   O512    1.305   .     A
C484   O510    1.305   .     A
C485   C487    1.406   .     A
C485   O513    1.388   .     S
C485   C495    1.397   .     A
C486   C488    1.405   .     A
C486   C496    1.396   .     A
C486   O515    1.389   .     S
C487   C489    1.411   .     A
C488   C490    1.412   .     A
C489   O517    1.382   .     S
C489   C491    1.414   .     A
C490   C492    1.414   .     A
C490   O519    1.382   .     S
C491   C497    1.428   .     A
C491   C493    1.429   .     A
C492   C494    1.429   .     A
C492   C498    1.428   .     A
C493   C495    1.413   .     A
C493   C426    1.414   1_655 S
C494   C496    1.413   .     A
C497   S521    1.782   .     S
C497   C411    1.389   1_655 S
C498   S526    1.784   .     S
Cu499  N504    2.055   .     S
Cu499  Cu500   2.735   .     S
Cu499  O508    1.963   .     S
Cu499  O505    1.960   .     S
Cu499  O512    1.957   .     S
Cu499  O509    1.958   .     S
Cu500  N503    2.055   .     S
Cu500  O507    1.963   .     S
Cu500  O511    1.957   .     S
Cu500  O506    1.960   .     S
Cu500  O510    1.958   .     S
N504   N911    1.299   .     S
N504   S948    1.740   .     S
O513   H514    0.988   .     S
O515   H516    0.988   .     S
O517   H518    0.989   .     S
O519   H520    0.989   .     S
S521   O523    1.504   .     D
S521   O794    1.503   1_545 S
S521   O796    1.683   1_545 S
O522   S657    1.503   .     S
O524   H525    0.990   .     S
O524   S657    1.683   .     S
S526   O529    1.682   .     S
S526   O663    1.503   .     S
S526   O664    1.504   .     S
O527   S798    1.503   1_545 S
O528   S798    1.504   1_545 S
O529   H938    0.991   .     S
O531   H532    0.988   .     S
O531   C617    1.388   .     S
O533   H534    0.990   .     S
O533   C754    1.389   1_545 S
S535   O536    1.503   .     D
S535   O537    1.498   .     D
S535   N911    1.742   .     S
S535   O946    1.679   .     S
O538   H539    0.989   .     S
S540   O541    1.496   .     D
S540   O542    1.505   .     D
O543   H544    0.990   .     S
O543   S948    1.679   .     S
C545   C549    1.448   .     S
C545   O575    1.311   .     A
C545   O573    1.299   .     A
C546   O574    1.300   .     A
C546   O576    1.310   .     A
C546   C550    1.447   .     S
C547   C564    1.397   .     A
C547   H569    1.082   .     S
C547   C633    1.389   1_455 S
C548   H570    1.082   .     S
C548   C563    1.397   .     A
C548   C634    1.390   .     S
C550   C685    1.357   .     S
C550   O737    1.389   .     S
C551   C556    1.444   .     S
C551   O577    1.305   .     A
C551   O579    1.304   .     A
C552   C555    1.445   .     S
C552   O580    1.305   .     A
C552   O578    1.305   .     A
C553   C555    1.406   .     A
C553   O581    1.388   .     S
C553   C563    1.397   .     A
C554   C556    1.405   .     A
C554   C564    1.396   .     A
C554   O583    1.389   .     S
C555   C557    1.411   .     A
C556   C558    1.412   .     A
C557   O585    1.382   .     S
C557   C559    1.414   .     A
C558   C560    1.414   .     A
C558   O587    1.382   .     S
C559   C565    1.428   .     A
C559   C561    1.429   .     A
C560   C562    1.429   .     A
C560   C566    1.428   .     A
C561   C563    1.413   .     A
C561   C630    1.414   .     S
C562   C564    1.413   .     A
C562   C629    1.414   1_455 S
C565   S589    1.782   .     S
C565   C615    1.389   .     S
C566   S594    1.784   .     S
C566   C616    1.390   1_455 S
Cu567  N572    2.055   .     S
Cu567  Cu568   2.735   .     S
Cu567  O576    1.963   .     S
Cu567  O573    1.960   .     S
Cu567  O580    1.957   .     S
Cu567  O577    1.958   .     S
Cu568  N571    2.055   .     S
Cu568  O575    1.963   .     S
Cu568  O579    1.957   .     S
Cu568  O574    1.960   .     S
Cu568  O578    1.958   .     S
N572   N979    1.299   .     S
N572   S1016   1.740   .     S
O581   H582    0.988   .     S
O583   H584    0.988   .     S
O585   H586    0.989   .     S
O587   H588    0.989   .     S
S589   O591    1.504   .     D
O590   S725    1.503   .     S
O592   H593    0.990   .     S
O592   S725    1.683   .     S
S594   O597    1.682   .     S
S594   O731    1.503   .     S
S594   O732    1.504   .     S
O597   H1006   0.991   .     S
O599   H600    0.988   .     S
O599   C685    1.388   .     S
O601   H602    0.990   .     S
S603   O604    1.503   .     D
S603   O605    1.498   .     D
S603   N979    1.742   .     S
S603   O1014   1.679   .     S
O606   H607    0.989   .     S
S608   O609    1.496   .     D
S608   O610    1.505   .     D
O611   H612    0.990   .     S
O611   S1016   1.679   .     S
C613   C617    1.448   .     S
C613   O643    1.311   .     A
C613   O641    1.299   .     A
C614   O642    1.300   .     A
C614   O644    1.310   .     A
C614   C618    1.447   .     S
C615   C632    1.397   .     A
C615   H637    1.082   .     S
C616   H638    1.082   .     S
C616   C631    1.397   .     A
C616   C566    1.390   1_655 S
C618   C753    1.357   .     S
C618   O805    1.389   .     S
C619   C624    1.444   .     S
C619   O645    1.305   .     A
C619   O647    1.304   .     A
C620   C623    1.445   .     S
C620   O648    1.305   .     A
C620   O646    1.305   .     A
C621   C623    1.406   .     A
C621   O649    1.388   .     S
C621   C631    1.397   .     A
C622   C624    1.405   .     A
C622   C632    1.396   .     A
C622   O651    1.389   .     S
C623   C625    1.411   .     A
C624   C626    1.412   .     A
C625   O653    1.382   .     S
C625   C627    1.414   .     A
C626   C628    1.414   .     A
C626   O655    1.382   .     S
C627   C633    1.428   .     A
C627   C629    1.429   .     A
C628   C630    1.429   .     A
C628   C634    1.428   .     A
C629   C631    1.413   .     A
C629   C562    1.414   1_655 S
C630   C632    1.413   .     A
C633   S657    1.782   .     S
C633   C547    1.389   1_655 S
C634   S662    1.784   .     S
Cu635  N640    2.055   .     S
Cu635  Cu636   2.735   .     S
Cu635  O644    1.963   .     S
Cu635  O641    1.960   .     S
Cu635  O648    1.957   .     S
Cu635  O645    1.958   .     S
Cu636  N639    2.055   .     S
Cu636  O643    1.963   .     S
Cu636  O647    1.957   .     S
Cu636  O642    1.960   .     S
Cu636  O646    1.958   .     S
N640   N1047   1.299   .     S
N640   S1084   1.740   .     S
O649   H650    0.988   .     S
O651   H652    0.988   .     S
O653   H654    0.989   .     S
O655   H656    0.989   .     S
S657   O659    1.504   .     D
O658   S793    1.503   .     S
O660   H661    0.990   .     S
O660   S793    1.683   .     S
S662   O665    1.682   .     S
S662   O799    1.503   .     S
S662   O800    1.504   .     S
O665   H1074   0.991   .     S
O667   H668    0.988   .     S
O667   C753    1.388   .     S
O669   H670    0.990   .     S
S671   O672    1.503   .     D
S671   O673    1.498   .     D
S671   N1047   1.742   .     S
S671   O1082   1.679   .     S
O674   H675    0.989   .     S
S676   O677    1.496   .     D
S676   O678    1.505   .     D
O679   H680    0.990   .     S
O679   S1084   1.679   .     S
C681   C685    1.448   .     S
C681   O711    1.311   .     A
C681   O709    1.299   .     A
C682   O710    1.300   .     A
C682   O712    1.310   .     A
C682   C686    1.447   .     S
C683   C700    1.397   .     A
C683   H705    1.082   .     S
C683   C769    1.389   1_455 S
C684   H706    1.082   .     S
C684   C699    1.397   .     A
C684   C770    1.390   .     S
C686   C413    1.357   1_565 S
C686   O465    1.389   1_565 S
C687   C692    1.444   .     S
C687   O713    1.305   .     A
C687   O715    1.304   .     A
C688   C691    1.445   .     S
C688   O716    1.305   .     A
C688   O714    1.305   .     A
C689   C691    1.406   .     A
C689   O717    1.388   .     S
C689   C699    1.397   .     A
C690   C692    1.405   .     A
C690   C700    1.396   .     A
C690   O719    1.389   .     S
C691   C693    1.411   .     A
C692   C694    1.412   .     A
C693   O721    1.382   .     S
C693   C695    1.414   .     A
C694   C696    1.414   .     A
C694   O723    1.382   .     S
C695   C701    1.428   .     A
C695   C697    1.429   .     A
C696   C698    1.429   .     A
C696   C702    1.428   .     A
C697   C699    1.413   .     A
C697   C766    1.414   .     S
C698   C700    1.413   .     A
C698   C765    1.414   1_455 S
C701   S725    1.782   .     S
C701   C751    1.389   .     S
C702   S730    1.784   .     S
C702   C752    1.390   1_455 S
Cu703  N708    2.055   .     S
Cu703  Cu704   2.735   .     S
Cu703  O712    1.963   .     S
Cu703  O709    1.960   .     S
Cu703  O716    1.957   .     S
Cu703  O713    1.958   .     S
Cu704  N707    2.055   .     S
Cu704  O711    1.963   .     S
Cu704  O715    1.957   .     S
Cu704  O710    1.960   .     S
Cu704  O714    1.958   .     S
N708   N1115   1.299   .     S
N708   S1152   1.740   .     S
O717   H718    0.988   .     S
O719   H720    0.988   .     S
O721   H722    0.989   .     S
O723   H724    0.989   .     S
S725   O727    1.504   .     D
O726   S453    1.503   1_565 S
O728   H729    0.990   .     S
O728   S453    1.683   1_565 S
S730   O733    1.682   .     S
S730   O459    1.503   1_565 S
S730   O460    1.504   1_565 S
O733   H1142   0.991   .     S
O735   H736    0.988   .     S
O735   C413    1.388   1_565 S
O737   H738    0.990   .     S
S739   O740    1.503   .     D
S739   O741    1.498   .     D
S739   N1115   1.742   .     S
S739   O1150   1.679   .     S
O742   H743    0.989   .     S
S744   O745    1.496   .     D
S744   O746    1.505   .     D
O747   H748    0.990   .     S
O747   S1152   1.679   .     S
C749   C753    1.448   .     S
C749   O779    1.311   .     A
C749   O777    1.299   .     A
C750   O778    1.300   .     A
C750   O780    1.310   .     A
C750   C754    1.447   .     S
C751   C768    1.397   .     A
C751   H773    1.082   .     S
C752   H774    1.082   .     S
C752   C767    1.397   .     A
C752   C702    1.390   1_655 S
C754   C481    1.357   1_565 S
C754   O533    1.389   1_565 S
C755   C760    1.444   .     S
C755   O781    1.305   .     A
C755   O783    1.304   .     A
C756   C759    1.445   .     S
C756   O784    1.305   .     A
C756   O782    1.305   .     A
C757   C759    1.406   .     A
C757   O785    1.388   .     S
C757   C767    1.397   .     A
C758   C760    1.405   .     A
C758   C768    1.396   .     A
C758   O787    1.389   .     S
C759   C761    1.411   .     A
C760   C762    1.412   .     A
C761   O789    1.382   .     S
C761   C763    1.414   .     A
C762   C764    1.414   .     A
C762   O791    1.382   .     S
C763   C769    1.428   .     A
C763   C765    1.429   .     A
C764   C766    1.429   .     A
C764   C770    1.428   .     A
C765   C767    1.413   .     A
C765   C698    1.414   1_655 S
C766   C768    1.413   .     A
C769   S793    1.782   .     S
C769   C683    1.389   1_655 S
C770   S798    1.784   .     S
Cu771  N776    2.055   .     S
Cu771  Cu772   2.735   .     S
Cu771  O780    1.963   .     S
Cu771  O777    1.960   .     S
Cu771  O784    1.957   .     S
Cu771  O781    1.958   .     S
Cu772  N775    2.055   .     S
Cu772  O779    1.963   .     S
Cu772  O783    1.957   .     S
Cu772  O778    1.960   .     S
Cu772  O782    1.958   .     S
N776   N1183   1.299   .     S
N776   S1220   1.740   .     S
O785   H786    0.988   .     S
O787   H788    0.988   .     S
O789   H790    0.989   .     S
O791   H792    0.989   .     S
S793   O795    1.504   .     D
O794   S521    1.503   1_565 S
O796   H797    0.990   .     S
O796   S521    1.683   1_565 S
S798   O801    1.682   .     S
S798   O527    1.503   1_565 S
S798   O528    1.504   1_565 S
O801   H1210   0.991   .     S
O803   H804    0.988   .     S
O803   C481    1.388   1_565 S
O805   H806    0.990   .     S
S807   O808    1.503   .     D
S807   O809    1.498   .     D
S807   N1183   1.742   .     S
S807   O1218   1.679   .     S
O810   H811    0.989   .     S
S812   O813    1.496   .     D
S812   O814    1.505   .     D
O815   H816    0.990   .     S
O815   S1220   1.679   .     S
C817   C821    1.448   .     S
C817   O847    1.311   .     A
C817   O845    1.299   .     A
C818   O846    1.300   .     A
C818   O848    1.310   .     A
C818   C822    1.447   .     S
C819   C836    1.397   .     A
C819   H841    1.082   .     S
C819   C905    1.389   1_455 S
C820   H842    1.082   .     S
C820   C835    1.397   .     A
C820   C906    1.390   .     S
C821   C1094   1.357   1_545 S
C821   O1143   1.388   1_545 S
C822   C957    1.357   .     S
C822   O1009   1.389   .     S
C823   C828    1.444   .     S
C823   O849    1.305   .     A
C823   O851    1.304   .     A
C824   C827    1.445   .     S
C824   O852    1.305   .     A
C824   O850    1.305   .     A
C825   C827    1.406   .     A
C825   O853    1.388   .     S
C825   C835    1.397   .     A
C826   C828    1.405   .     A
C826   C836    1.396   .     A
C826   O855    1.389   .     S
C827   C829    1.411   .     A
C828   C830    1.412   .     A
C829   O857    1.382   .     S
C829   C831    1.414   .     A
C830   C832    1.414   .     A
C830   O859    1.382   .     S
C831   C837    1.428   .     A
C831   C833    1.429   .     A
C832   C834    1.429   .     A
C832   C838    1.428   .     A
C833   C835    1.413   .     A
C833   C902    1.414   .     S
C834   C836    1.413   .     A
C834   C901    1.414   1_455 S
C837   S861    1.782   .     S
C837   C887    1.389   .     S
C838   S866    1.784   .     S
C838   C888    1.390   1_455 S
Cu839  N844    2.055   .     S
Cu839  Cu840   2.735   .     S
Cu839  O848    1.963   .     S
Cu839  O845    1.960   .     S
Cu839  O852    1.957   .     S
Cu839  O849    1.958   .     S
Cu840  N843    2.055   .     S
Cu840  O847    1.963   .     S
Cu840  O851    1.957   .     S
Cu840  O846    1.960   .     S
Cu840  O850    1.958   .     S
N844   N27     1.299   1_556 S
N844   S64     1.740   1_556 S
O853   H854    0.988   .     S
O855   H856    0.988   .     S
O857   H858    0.989   .     S
O859   H860    0.989   .     S
S861   O863    1.504   .     D
S861   O1134   1.503   1_545 S
S861   O1136   1.683   1_545 S
O862   S997    1.503   .     S
O864   H865    0.990   .     S
O864   S997    1.683   .     S
S866   O869    1.682   .     S
S866   O1003   1.503   .     S
S866   O1004   1.504   .     S
O867   S1138   1.503   1_545 S
O868   S1138   1.504   1_545 S
O869   H54     0.991   1_556 S
O871   H872    0.988   .     S
O871   C957    1.388   .     S
O873   H874    0.990   .     S
O873   C1094   1.389   1_545 S
S875   O876    1.503   .     D
S875   O877    1.498   .     D
S875   N27     1.742   1_556 S
S875   O62     1.679   1_556 S
O878   H879    0.989   .     S
S880   O881    1.496   .     D
S880   O882    1.505   .     D
O883   H884    0.990   .     S
O883   S64     1.679   1_556 S
C885   C889    1.448   .     S
C885   O915    1.311   .     A
C885   O913    1.299   .     A
C886   O914    1.300   .     A
C886   O916    1.310   .     A
C886   C890    1.447   .     S
C887   C904    1.397   .     A
C887   H909    1.082   .     S
C888   H910    1.082   .     S
C888   C903    1.397   .     A
C888   C838    1.390   1_655 S
C889   C1162   1.357   1_545 S
C889   O1211   1.388   1_545 S
C890   C1025   1.357   .     S
C890   O1077   1.389   .     S
C891   C896    1.444   .     S
C891   O917    1.305   .     A
C891   O919    1.304   .     A
C892   C895    1.445   .     S
C892   O920    1.305   .     A
C892   O918    1.305   .     A
C893   C895    1.406   .     A
C893   O921    1.388   .     S
C893   C903    1.397   .     A
C894   C896    1.405   .     A
C894   C904    1.396   .     A
C894   O923    1.389   .     S
C895   C897    1.411   .     A
C896   C898    1.412   .     A
C897   O925    1.382   .     S
C897   C899    1.414   .     A
C898   C900    1.414   .     A
C898   O927    1.382   .     S
C899   C905    1.428   .     A
C899   C901    1.429   .     A
C900   C902    1.429   .     A
C900   C906    1.428   .     A
C901   C903    1.413   .     A
C901   C834    1.414   1_655 S
C902   C904    1.413   .     A
C905   S929    1.782   .     S
C905   C819    1.389   1_655 S
C906   S934    1.784   .     S
Cu907  N912    2.055   .     S
Cu907  Cu908   2.735   .     S
Cu907  O916    1.963   .     S
Cu907  O913    1.960   .     S
Cu907  O920    1.957   .     S
Cu907  O917    1.958   .     S
Cu908  N911    2.055   .     S
Cu908  O915    1.963   .     S
Cu908  O919    1.957   .     S
Cu908  O914    1.960   .     S
Cu908  O918    1.958   .     S
N912   N95     1.299   1_556 S
N912   S132    1.740   1_556 S
O921   H922    0.988   .     S
O923   H924    0.988   .     S
O925   H926    0.989   .     S
O927   H928    0.989   .     S
S929   O931    1.504   .     D
S929   O1202   1.503   1_545 S
S929   O1204   1.683   1_545 S
O930   S1065   1.503   .     S
O932   H933    0.990   .     S
O932   S1065   1.683   .     S
S934   O937    1.682   .     S
S934   O1071   1.503   .     S
S934   O1072   1.504   .     S
O935   S1206   1.503   1_545 S
O936   S1206   1.504   1_545 S
O937   H122    0.991   1_556 S
O939   H940    0.988   .     S
O939   C1025   1.388   .     S
O941   H942    0.990   .     S
O941   C1162   1.389   1_545 S
S943   O944    1.503   .     D
S943   O945    1.498   .     D
S943   N95     1.742   1_556 S
S943   O130    1.679   1_556 S
O946   H947    0.989   .     S
S948   O949    1.496   .     D
S948   O950    1.505   .     D
O951   H952    0.990   .     S
O951   S132    1.679   1_556 S
C953   C957    1.448   .     S
C953   O983    1.311   .     A
C953   O981    1.299   .     A
C954   O982    1.300   .     A
C954   O984    1.310   .     A
C954   C958    1.447   .     S
C955   C972    1.397   .     A
C955   H977    1.082   .     S
C955   C1041   1.389   1_455 S
C956   H978    1.082   .     S
C956   C971    1.397   .     A
C956   C1042   1.390   .     S
C958   C1093   1.357   .     S
C958   O1145   1.389   .     S
C959   C964    1.444   .     S
C959   O985    1.305   .     A
C959   O987    1.304   .     A
C960   C963    1.445   .     S
C960   O988    1.305   .     A
C960   O986    1.305   .     A
C961   C963    1.406   .     A
C961   O989    1.388   .     S
C961   C971    1.397   .     A
C962   C964    1.405   .     A
C962   C972    1.396   .     A
C962   O991    1.389   .     S
C963   C965    1.411   .     A
C964   C966    1.412   .     A
C965   O993    1.382   .     S
C965   C967    1.414   .     A
C966   C968    1.414   .     A
C966   O995    1.382   .     S
C967   C973    1.428   .     A
C967   C969    1.429   .     A
C968   C970    1.429   .     A
C968   C974    1.428   .     A
C969   C971    1.413   .     A
C969   C1038   1.414   .     S
C970   C972    1.413   .     A
C970   C1037   1.414   1_455 S
C973   S997    1.782   .     S
C973   C1023   1.389   .     S
C974   S1002   1.784   .     S
C974   C1024   1.390   1_455 S
Cu975  N980    2.055   .     S
Cu975  Cu976   2.735   .     S
Cu975  O984    1.963   .     S
Cu975  O981    1.960   .     S
Cu975  O988    1.957   .     S
Cu975  O985    1.958   .     S
Cu976  N979    2.055   .     S
Cu976  O983    1.963   .     S
Cu976  O987    1.957   .     S
Cu976  O982    1.960   .     S
Cu976  O986    1.958   .     S
N980   N163    1.299   1_556 S
N980   S200    1.740   1_556 S
O989   H990    0.988   .     S
O991   H992    0.988   .     S
O993   H994    0.989   .     S
O995   H996    0.989   .     S
S997   O999    1.504   .     D
O998   S1133   1.503   .     S
O1000  H1001   0.990   .     S
O1000  S1133   1.683   .     S
S1002  O1005   1.682   .     S
S1002  O1139   1.503   .     S
S1002  O1140   1.504   .     S
O1005  H190    0.991   1_556 S
O1007  H1008   0.988   .     S
O1007  C1093   1.388   .     S
O1009  H1010   0.990   .     S
S1011  O1012   1.503   .     D
S1011  O1013   1.498   .     D
S1011  N163    1.742   1_556 S
S1011  O198    1.679   1_556 S
O1014  H1015   0.989   .     S
S1016  O1017   1.496   .     D
S1016  O1018   1.505   .     D
O1019  H1020   0.990   .     S
O1019  S200    1.679   1_556 S
C1021  C1025   1.448   .     S
C1021  O1051   1.311   .     A
C1021  O1049   1.299   .     A
C1022  O1050   1.300   .     A
C1022  O1052   1.310   .     A
C1022  C1026   1.447   .     S
C1023  C1040   1.397   .     A
C1023  H1045   1.082   .     S
C1024  H1046   1.082   .     S
C1024  C1039   1.397   .     A
C1024  C974    1.390   1_655 S
C1026  C1161   1.357   .     S
C1026  O1213   1.389   .     S
C1027  C1032   1.444   .     S
C1027  O1053   1.305   .     A
C1027  O1055   1.304   .     A
C1028  C1031   1.445   .     S
C1028  O1056   1.305   .     A
C1028  O1054   1.305   .     A
C1029  C1031   1.406   .     A
C1029  O1057   1.388   .     S
C1029  C1039   1.397   .     A
C1030  C1032   1.405   .     A
C1030  C1040   1.396   .     A
C1030  O1059   1.389   .     S
C1031  C1033   1.411   .     A
C1032  C1034   1.412   .     A
C1033  O1061   1.382   .     S
C1033  C1035   1.414   .     A
C1034  C1036   1.414   .     A
C1034  O1063   1.382   .     S
C1035  C1041   1.428   .     A
C1035  C1037   1.429   .     A
C1036  C1038   1.429   .     A
C1036  C1042   1.428   .     A
C1037  C1039   1.413   .     A
C1037  C970    1.414   1_655 S
C1038  C1040   1.413   .     A
C1041  S1065   1.782   .     S
C1041  C955    1.389   1_655 S
C1042  S1070   1.784   .     S
Cu1043 N1048   2.055   .     S
Cu1043 Cu1044  2.735   .     S
Cu1043 O1052   1.963   .     S
Cu1043 O1049   1.960   .     S
Cu1043 O1056   1.957   .     S
Cu1043 O1053   1.958   .     S
Cu1044 N1047   2.055   .     S
Cu1044 O1051   1.963   .     S
Cu1044 O1055   1.957   .     S
Cu1044 O1050   1.960   .     S
Cu1044 O1054   1.958   .     S
N1048  N231    1.299   1_556 S
N1048  S268    1.740   1_556 S
O1057  H1058   0.988   .     S
O1059  H1060   0.988   .     S
O1061  H1062   0.989   .     S
O1063  H1064   0.989   .     S
S1065  O1067   1.504   .     D
O1066  S1201   1.503   .     S
O1068  H1069   0.990   .     S
O1068  S1201   1.683   .     S
S1070  O1073   1.682   .     S
S1070  O1207   1.503   .     S
S1070  O1208   1.504   .     S
O1073  H258    0.991   1_556 S
O1075  H1076   0.988   .     S
O1075  C1161   1.388   .     S
O1077  H1078   0.990   .     S
S1079  O1080   1.503   .     D
S1079  O1081   1.498   .     D
S1079  N231    1.742   1_556 S
S1079  O266    1.679   1_556 S
O1082  H1083   0.989   .     S
S1084  O1085   1.496   .     D
S1084  O1086   1.505   .     D
O1087  H1088   0.990   .     S
O1087  S268    1.679   1_556 S
C1089  C1093   1.448   .     S
C1089  O1119   1.311   .     A
C1089  O1117   1.299   .     A
C1090  O1118   1.300   .     A
C1090  O1120   1.310   .     A
C1090  C1094   1.447   .     S
C1091  C1108   1.397   .     A
C1091  H1113   1.082   .     S
C1091  C1177   1.389   1_455 S
C1092  H1114   1.082   .     S
C1092  C1107   1.397   .     A
C1092  C1178   1.390   .     S
C1094  C821    1.357   1_565 S
C1094  O873    1.389   1_565 S
C1095  C1100   1.444   .     S
C1095  O1121   1.305   .     A
C1095  O1123   1.304   .     A
C1096  C1099   1.445   .     S
C1096  O1124   1.305   .     A
C1096  O1122   1.305   .     A
C1097  C1099   1.406   .     A
C1097  O1125   1.388   .     S
C1097  C1107   1.397   .     A
C1098  C1100   1.405   .     A
C1098  C1108   1.396   .     A
C1098  O1127   1.389   .     S
C1099  C1101   1.411   .     A
C1100  C1102   1.412   .     A
C1101  O1129   1.382   .     S
C1101  C1103   1.414   .     A
C1102  C1104   1.414   .     A
C1102  O1131   1.382   .     S
C1103  C1109   1.428   .     A
C1103  C1105   1.429   .     A
C1104  C1106   1.429   .     A
C1104  C1110   1.428   .     A
C1105  C1107   1.413   .     A
C1105  C1174   1.414   .     S
C1106  C1108   1.413   .     A
C1106  C1173   1.414   1_455 S
C1109  S1133   1.782   .     S
C1109  C1159   1.389   .     S
C1110  S1138   1.784   .     S
C1110  C1160   1.390   1_455 S
Cu1111 N1116   2.055   .     S
Cu1111 Cu1112  2.735   .     S
Cu1111 O1120   1.963   .     S
Cu1111 O1117   1.960   .     S
Cu1111 O1124   1.957   .     S
Cu1111 O1121   1.958   .     S
Cu1112 N1115   2.055   .     S
Cu1112 O1119   1.963   .     S
Cu1112 O1123   1.957   .     S
Cu1112 O1118   1.960   .     S
Cu1112 O1122   1.958   .     S
N1116  N299    1.299   1_556 S
N1116  S336    1.740   1_556 S
O1125  H1126   0.988   .     S
O1127  H1128   0.988   .     S
O1129  H1130   0.989   .     S
O1131  H1132   0.989   .     S
S1133  O1135   1.504   .     D
O1134  S861    1.503   1_565 S
O1136  H1137   0.990   .     S
O1136  S861    1.683   1_565 S
S1138  O1141   1.682   .     S
S1138  O867    1.503   1_565 S
S1138  O868    1.504   1_565 S
O1141  H326    0.991   1_556 S
O1143  H1144   0.988   .     S
O1143  C821    1.388   1_565 S
O1145  H1146   0.990   .     S
S1147  O1148   1.503   .     D
S1147  O1149   1.498   .     D
S1147  N299    1.742   1_556 S
S1147  O334    1.679   1_556 S
O1150  H1151   0.989   .     S
S1152  O1153   1.496   .     D
S1152  O1154   1.505   .     D
O1155  H1156   0.990   .     S
O1155  S336    1.679   1_556 S
C1157  C1161   1.448   .     S
C1157  O1187   1.311   .     A
C1157  O1185   1.299   .     A
C1158  O1186   1.300   .     A
C1158  O1188   1.310   .     A
C1158  C1162   1.447   .     S
C1159  C1176   1.397   .     A
C1159  H1181   1.082   .     S
C1160  H1182   1.082   .     S
C1160  C1175   1.397   .     A
C1160  C1110   1.390   1_655 S
C1162  C889    1.357   1_565 S
C1162  O941    1.389   1_565 S
C1163  C1168   1.444   .     S
C1163  O1189   1.305   .     A
C1163  O1191   1.304   .     A
C1164  C1167   1.445   .     S
C1164  O1192   1.305   .     A
C1164  O1190   1.305   .     A
C1165  C1167   1.406   .     A
C1165  O1193   1.388   .     S
C1165  C1175   1.397   .     A
C1166  C1168   1.405   .     A
C1166  C1176   1.396   .     A
C1166  O1195   1.389   .     S
C1167  C1169   1.411   .     A
C1168  C1170   1.412   .     A
C1169  O1197   1.382   .     S
C1169  C1171   1.414   .     A
C1170  C1172   1.414   .     A
C1170  O1199   1.382   .     S
C1171  C1177   1.428   .     A
C1171  C1173   1.429   .     A
C1172  C1174   1.429   .     A
C1172  C1178   1.428   .     A
C1173  C1175   1.413   .     A
C1173  C1106   1.414   1_655 S
C1174  C1176   1.413   .     A
C1177  S1201   1.782   .     S
C1177  C1091   1.389   1_655 S
C1178  S1206   1.784   .     S
Cu1179 N1184   2.055   .     S
Cu1179 Cu1180  2.735   .     S
Cu1179 O1188   1.963   .     S
Cu1179 O1185   1.960   .     S
Cu1179 O1192   1.957   .     S
Cu1179 O1189   1.958   .     S
Cu1180 N1183   2.055   .     S
Cu1180 O1187   1.963   .     S
Cu1180 O1191   1.957   .     S
Cu1180 O1186   1.960   .     S
Cu1180 O1190   1.958   .     S
N1184  N367    1.299   1_556 S
N1184  S404    1.740   1_556 S
O1193  H1194   0.988   .     S
O1195  H1196   0.988   .     S
O1197  H1198   0.989   .     S
O1199  H1200   0.989   .     S
S1201  O1203   1.504   .     D
O1202  S929    1.503   1_565 S
O1204  H1205   0.990   .     S
O1204  S929    1.683   1_565 S
S1206  O1209   1.682   .     S
S1206  O935    1.503   1_565 S
S1206  O936    1.504   1_565 S
O1209  H394    0.991   1_556 S
O1211  H1212   0.988   .     S
O1211  C889    1.388   1_565 S
O1213  H1214   0.990   .     S
S1215  O1216   1.503   .     D
S1215  O1217   1.498   .     D
S1215  N367    1.742   1_556 S
S1215  O402    1.679   1_556 S
O1218  H1219   0.989   .     S
S1220  O1221   1.496   .     D
S1220  O1222   1.505   .     D
O1223  H1224   0.990   .     S
O1223  S404    1.679   1_556 S
