data_str_m2_o10_o17_pcu_sym.208
_audit_creation_date              2020-01-03
_audit_creation_method            'Materials Studio'
_symmetry_space_group_name_H-M    'P1'
_symmetry_Int_Tables_number       1
_symmetry_cell_setting            triclinic
loop_
_symmetry_equiv_pos_as_xyz
  x,y,z
_cell_length_a                    30.0666
_cell_length_b                    26.0432
_cell_length_c                    22.4835
_cell_angle_alpha                 103.2553
_cell_angle_beta                  95.0735
_cell_angle_gamma                 93.2667
loop_
_atom_site_label
_atom_site_type_symbol
_atom_site_fract_x
_atom_site_fract_y
_atom_site_fract_z
_atom_site_U_iso_or_equiv
_atom_site_adp_type
_atom_site_occupancy
C1     C     0.24857   0.06656   0.15099   0.00000  Uiso   1.00
C2     C     0.25143   0.26678   0.18234   0.00000  Uiso   1.00
C3     C     0.01420   0.13010   0.05603   0.00000  Uiso   1.00
C4     C     0.48580   0.20323   0.27731   0.00000  Uiso   1.00
C5     C     0.24781   0.01046   0.14232   0.00000  Uiso   1.00
C6     C     0.25219   0.32287   0.19101   0.00000  Uiso   1.00
C7     C     0.16439   0.16628   0.16694   0.00000  Uiso   1.00
C8     C     0.33561   0.16705   0.16640   0.00000  Uiso   1.00
C9     C     0.41169   0.18519   0.22154   0.00000  Uiso   1.00
C10    C     0.08831   0.14814   0.11179   0.00000  Uiso   1.00
C11    C     0.38403   0.16751   0.16609   0.00000  Uiso   1.00
C12    C     0.11597   0.16582   0.16725   0.00000  Uiso   1.00
C13    C     0.40268   0.14992   0.11075   0.00000  Uiso   1.00
C14    C     0.09732   0.18342   0.22258   0.00000  Uiso   1.00
C15    C     0.44895   0.14918   0.11064   0.00000  Uiso   1.00
C16    C     0.05105   0.18415   0.22270   0.00000  Uiso   1.00
C17    C     0.47672   0.16695   0.16652   0.00000  Uiso   1.00
C18    C     0.02328   0.16639   0.16682   0.00000  Uiso   1.00
C19    C     0.45799   0.18526   0.22211   0.00000  Uiso   1.00
C20    C     0.04201   0.14808   0.11122   0.00000  Uiso   1.00
C21    C     0.46787   0.13073   0.05571   0.00000  Uiso   1.00
C22    C     0.03213   0.20260   0.27762   0.00000  Uiso   1.00
Cu23   Cu    0.25501   0.17246   0.22813   0.00000  Uiso   1.00
Cu24   Cu    0.24500   0.16087   0.10521   0.00000  Uiso   1.00
H25    H     0.39725   0.19916   0.26430   0.00000  Uiso   1.00
H26    H     0.10275   0.13418   0.06904   0.00000  Uiso   1.00
H27    H     0.38123   0.13611   0.06796   0.00000  Uiso   1.00
H28    H     0.11877   0.19722   0.26538   0.00000  Uiso   1.00
H29    H     0.44687   0.11690   0.01257   0.00000  Uiso   1.00
H30    H     0.05313   0.21643   0.32076   0.00000  Uiso   1.00
H31    H     0.02828   0.11572   0.01313   0.00000  Uiso   1.00
H32    H     0.47172   0.21762   0.32020   0.00000  Uiso   1.00
H33    H     0.24359   0.31963   0.09553   0.00000  Uiso   1.00
H34    H     0.25641   0.01370   0.23780   0.00000  Uiso   1.00
N35    N     0.23745   0.15214   0.01284   0.00000  Uiso   1.00
N36    N     0.26256   0.18119   0.32049   0.00000  Uiso   1.00
O37    O     0.25326   0.09538   0.20659   0.00000  Uiso   1.00
O38    O     0.24675   0.23796   0.12674   0.00000  Uiso   1.00
O39    O     0.24480   0.08559   0.10279   0.00000  Uiso   1.00
O40    O     0.25520   0.24774   0.23055   0.00000  Uiso   1.00
O41    O     0.18936   0.17155   0.21857   0.00000  Uiso   1.00
O42    O     0.31065   0.16179   0.11476   0.00000  Uiso   1.00
O43    O     0.18090   0.16176   0.11477   0.00000  Uiso   1.00
O44    O     0.31910   0.17157   0.21857   0.00000  Uiso   1.00
N45    N     0.20537   0.11699   0.30721   0.00000  Uiso   1.00
H46    H     0.21067   0.07945   0.31425   0.00000  Uiso   1.00
H47    H     0.17430   0.12650   0.32218   0.00000  Uiso   1.00
N48    N     0.29463   0.21634   0.02612   0.00000  Uiso   1.00
H49    H     0.28933   0.25389   0.01908   0.00000  Uiso   1.00
H50    H     0.32570   0.20683   0.01115   0.00000  Uiso   1.00
C51    C     0.74857   0.06656   0.15099   0.00000  Uiso   1.00
C52    C     0.75143   0.26678   0.18234   0.00000  Uiso   1.00
C53    C     0.51420   0.13010   0.05603   0.00000  Uiso   1.00
C54    C     0.98580   0.20323   0.27731   0.00000  Uiso   1.00
C55    C     0.74781   0.01046   0.14232   0.00000  Uiso   1.00
C56    C     0.75219   0.32287   0.19101   0.00000  Uiso   1.00
C57    C     0.66439   0.16628   0.16694   0.00000  Uiso   1.00
C58    C     0.83561   0.16705   0.16640   0.00000  Uiso   1.00
C59    C     0.91169   0.18519   0.22154   0.00000  Uiso   1.00
C60    C     0.58831   0.14814   0.11179   0.00000  Uiso   1.00
C61    C     0.88403   0.16751   0.16609   0.00000  Uiso   1.00
C62    C     0.61597   0.16582   0.16725   0.00000  Uiso   1.00
C63    C     0.90268   0.14992   0.11075   0.00000  Uiso   1.00
C64    C     0.59732   0.18342   0.22258   0.00000  Uiso   1.00
C65    C     0.94895   0.14918   0.11064   0.00000  Uiso   1.00
C66    C     0.55105   0.18415   0.22270   0.00000  Uiso   1.00
C67    C     0.97672   0.16695   0.16652   0.00000  Uiso   1.00
C68    C     0.52328   0.16639   0.16682   0.00000  Uiso   1.00
C69    C     0.95799   0.18526   0.22211   0.00000  Uiso   1.00
C70    C     0.54201   0.14808   0.11122   0.00000  Uiso   1.00
C71    C     0.96787   0.13073   0.05571   0.00000  Uiso   1.00
C72    C     0.53213   0.20260   0.27762   0.00000  Uiso   1.00
Cu73   Cu    0.75501   0.17246   0.22813   0.00000  Uiso   1.00
Cu74   Cu    0.74500   0.16087   0.10521   0.00000  Uiso   1.00
H75    H     0.89725   0.19916   0.26430   0.00000  Uiso   1.00
H76    H     0.60275   0.13418   0.06904   0.00000  Uiso   1.00
H77    H     0.88123   0.13611   0.06796   0.00000  Uiso   1.00
H78    H     0.61877   0.19722   0.26538   0.00000  Uiso   1.00
H79    H     0.94687   0.11690   0.01257   0.00000  Uiso   1.00
H80    H     0.55313   0.21643   0.32076   0.00000  Uiso   1.00
H81    H     0.52828   0.11572   0.01313   0.00000  Uiso   1.00
H82    H     0.97172   0.21762   0.32020   0.00000  Uiso   1.00
H83    H     0.74359   0.31963   0.09553   0.00000  Uiso   1.00
H84    H     0.75641   0.01370   0.23780   0.00000  Uiso   1.00
N85    N     0.73745   0.15214   0.01284   0.00000  Uiso   1.00
N86    N     0.76256   0.18119   0.32049   0.00000  Uiso   1.00
O87    O     0.75326   0.09538   0.20659   0.00000  Uiso   1.00
O88    O     0.74675   0.23796   0.12674   0.00000  Uiso   1.00
O89    O     0.74480   0.08559   0.10279   0.00000  Uiso   1.00
O90    O     0.75520   0.24774   0.23055   0.00000  Uiso   1.00
O91    O     0.68936   0.17155   0.21857   0.00000  Uiso   1.00
O92    O     0.81065   0.16179   0.11476   0.00000  Uiso   1.00
O93    O     0.68090   0.16176   0.11477   0.00000  Uiso   1.00
O94    O     0.81910   0.17157   0.21857   0.00000  Uiso   1.00
N95    N     0.70537   0.11699   0.30721   0.00000  Uiso   1.00
H96    H     0.71067   0.07945   0.31425   0.00000  Uiso   1.00
H97    H     0.67430   0.12650   0.32218   0.00000  Uiso   1.00
N98    N     0.79463   0.21634   0.02612   0.00000  Uiso   1.00
H99    H     0.78933   0.25389   0.01908   0.00000  Uiso   1.00
H100   H     0.82570   0.20683   0.01115   0.00000  Uiso   1.00
C101   C     0.24857   0.39989   0.15099   0.00000  Uiso   1.00
C102   C     0.25143   0.60011   0.18234   0.00000  Uiso   1.00
C103   C     0.01420   0.46344   0.05603   0.00000  Uiso   1.00
C104   C     0.48580   0.53656   0.27731   0.00000  Uiso   1.00
C105   C     0.24781   0.34380   0.14232   0.00000  Uiso   1.00
C106   C     0.25219   0.65621   0.19101   0.00000  Uiso   1.00
C107   C     0.16439   0.49961   0.16694   0.00000  Uiso   1.00
C108   C     0.33561   0.50039   0.16640   0.00000  Uiso   1.00
C109   C     0.41169   0.51852   0.22154   0.00000  Uiso   1.00
C110   C     0.08831   0.48148   0.11179   0.00000  Uiso   1.00
C111   C     0.38403   0.50085   0.16609   0.00000  Uiso   1.00
C112   C     0.11597   0.49915   0.16725   0.00000  Uiso   1.00
C113   C     0.40268   0.48325   0.11075   0.00000  Uiso   1.00
C114   C     0.09732   0.51675   0.22258   0.00000  Uiso   1.00
C115   C     0.44895   0.48251   0.11064   0.00000  Uiso   1.00
C116   C     0.05105   0.51749   0.22270   0.00000  Uiso   1.00
C117   C     0.47672   0.50028   0.16652   0.00000  Uiso   1.00
C118   C     0.02328   0.49972   0.16682   0.00000  Uiso   1.00
C119   C     0.45799   0.51859   0.22211   0.00000  Uiso   1.00
C120   C     0.04201   0.48141   0.11122   0.00000  Uiso   1.00
C121   C     0.46787   0.46406   0.05571   0.00000  Uiso   1.00
C122   C     0.03213   0.53594   0.27762   0.00000  Uiso   1.00
Cu123  Cu    0.25501   0.50579   0.22813   0.00000  Uiso   1.00
Cu124  Cu    0.24500   0.49421   0.10521   0.00000  Uiso   1.00
H125   H     0.39725   0.53249   0.26430   0.00000  Uiso   1.00
H126   H     0.10275   0.46751   0.06904   0.00000  Uiso   1.00
H127   H     0.38123   0.46944   0.06796   0.00000  Uiso   1.00
H128   H     0.11877   0.53056   0.26538   0.00000  Uiso   1.00
H129   H     0.44687   0.45023   0.01257   0.00000  Uiso   1.00
H130   H     0.05313   0.54977   0.32076   0.00000  Uiso   1.00
H131   H     0.02828   0.44905   0.01313   0.00000  Uiso   1.00
H132   H     0.47172   0.55095   0.32020   0.00000  Uiso   1.00
H133   H     0.24359   0.65296   0.09553   0.00000  Uiso   1.00
H134   H     0.25641   0.34704   0.23780   0.00000  Uiso   1.00
N135   N     0.23745   0.48547   0.01284   0.00000  Uiso   1.00
N136   N     0.26256   0.51453   0.32049   0.00000  Uiso   1.00
O137   O     0.25326   0.42871   0.20659   0.00000  Uiso   1.00
O138   O     0.24675   0.57129   0.12674   0.00000  Uiso   1.00
O139   O     0.24480   0.41892   0.10279   0.00000  Uiso   1.00
O140   O     0.25520   0.58108   0.23055   0.00000  Uiso   1.00
O141   O     0.18936   0.50488   0.21857   0.00000  Uiso   1.00
O142   O     0.31065   0.49512   0.11476   0.00000  Uiso   1.00
O143   O     0.18090   0.49510   0.11477   0.00000  Uiso   1.00
O144   O     0.31910   0.50490   0.21857   0.00000  Uiso   1.00
N145   N     0.20537   0.45032   0.30721   0.00000  Uiso   1.00
H146   H     0.21067   0.41278   0.31425   0.00000  Uiso   1.00
H147   H     0.17430   0.45983   0.32218   0.00000  Uiso   1.00
N148   N     0.29463   0.54968   0.02612   0.00000  Uiso   1.00
H149   H     0.28933   0.58722   0.01908   0.00000  Uiso   1.00
H150   H     0.32570   0.54017   0.01115   0.00000  Uiso   1.00
C151   C     0.74857   0.39989   0.15099   0.00000  Uiso   1.00
C152   C     0.75143   0.60011   0.18234   0.00000  Uiso   1.00
C153   C     0.51420   0.46344   0.05603   0.00000  Uiso   1.00
C154   C     0.98580   0.53656   0.27731   0.00000  Uiso   1.00
C155   C     0.74781   0.34380   0.14232   0.00000  Uiso   1.00
C156   C     0.75219   0.65621   0.19101   0.00000  Uiso   1.00
C157   C     0.66439   0.49961   0.16694   0.00000  Uiso   1.00
C158   C     0.83561   0.50039   0.16640   0.00000  Uiso   1.00
C159   C     0.91169   0.51852   0.22154   0.00000  Uiso   1.00
C160   C     0.58831   0.48148   0.11179   0.00000  Uiso   1.00
C161   C     0.88403   0.50085   0.16609   0.00000  Uiso   1.00
C162   C     0.61597   0.49915   0.16725   0.00000  Uiso   1.00
C163   C     0.90268   0.48325   0.11075   0.00000  Uiso   1.00
C164   C     0.59732   0.51675   0.22258   0.00000  Uiso   1.00
C165   C     0.94895   0.48251   0.11064   0.00000  Uiso   1.00
C166   C     0.55105   0.51749   0.22270   0.00000  Uiso   1.00
C167   C     0.97672   0.50028   0.16652   0.00000  Uiso   1.00
C168   C     0.52328   0.49972   0.16682   0.00000  Uiso   1.00
C169   C     0.95799   0.51859   0.22211   0.00000  Uiso   1.00
C170   C     0.54201   0.48141   0.11122   0.00000  Uiso   1.00
C171   C     0.96787   0.46406   0.05571   0.00000  Uiso   1.00
C172   C     0.53213   0.53594   0.27762   0.00000  Uiso   1.00
Cu173  Cu    0.75501   0.50579   0.22813   0.00000  Uiso   1.00
Cu174  Cu    0.74500   0.49421   0.10521   0.00000  Uiso   1.00
H175   H     0.89725   0.53249   0.26430   0.00000  Uiso   1.00
H176   H     0.60275   0.46751   0.06904   0.00000  Uiso   1.00
H177   H     0.88123   0.46944   0.06796   0.00000  Uiso   1.00
H178   H     0.61877   0.53056   0.26538   0.00000  Uiso   1.00
H179   H     0.94687   0.45023   0.01257   0.00000  Uiso   1.00
H180   H     0.55313   0.54977   0.32076   0.00000  Uiso   1.00
H181   H     0.52828   0.44905   0.01313   0.00000  Uiso   1.00
H182   H     0.97172   0.55095   0.32020   0.00000  Uiso   1.00
H183   H     0.74359   0.65296   0.09553   0.00000  Uiso   1.00
H184   H     0.75641   0.34704   0.23780   0.00000  Uiso   1.00
N185   N     0.73745   0.48547   0.01284   0.00000  Uiso   1.00
N186   N     0.76256   0.51453   0.32049   0.00000  Uiso   1.00
O187   O     0.75326   0.42871   0.20659   0.00000  Uiso   1.00
O188   O     0.74675   0.57129   0.12674   0.00000  Uiso   1.00
O189   O     0.74480   0.41892   0.10279   0.00000  Uiso   1.00
O190   O     0.75520   0.58108   0.23055   0.00000  Uiso   1.00
O191   O     0.68936   0.50488   0.21857   0.00000  Uiso   1.00
O192   O     0.81065   0.49512   0.11476   0.00000  Uiso   1.00
O193   O     0.68090   0.49510   0.11477   0.00000  Uiso   1.00
O194   O     0.81910   0.50490   0.21857   0.00000  Uiso   1.00
N195   N     0.70537   0.45032   0.30721   0.00000  Uiso   1.00
H196   H     0.71067   0.41278   0.31425   0.00000  Uiso   1.00
H197   H     0.67430   0.45983   0.32218   0.00000  Uiso   1.00
N198   N     0.79463   0.54968   0.02612   0.00000  Uiso   1.00
H199   H     0.78933   0.58722   0.01908   0.00000  Uiso   1.00
H200   H     0.82570   0.54017   0.01115   0.00000  Uiso   1.00
C201   C     0.24857   0.73322   0.15099   0.00000  Uiso   1.00
C202   C     0.25143   0.93344   0.18234   0.00000  Uiso   1.00
C203   C     0.01420   0.79677   0.05603   0.00000  Uiso   1.00
C204   C     0.48580   0.86990   0.27731   0.00000  Uiso   1.00
C205   C     0.24781   0.67713   0.14232   0.00000  Uiso   1.00
C206   C     0.25219   0.98954   0.19101   0.00000  Uiso   1.00
C207   C     0.16439   0.83295   0.16694   0.00000  Uiso   1.00
C208   C     0.33561   0.83372   0.16640   0.00000  Uiso   1.00
C209   C     0.41169   0.85186   0.22154   0.00000  Uiso   1.00
C210   C     0.08831   0.81481   0.11179   0.00000  Uiso   1.00
C211   C     0.38403   0.83418   0.16609   0.00000  Uiso   1.00
C212   C     0.11597   0.83249   0.16725   0.00000  Uiso   1.00
C213   C     0.40268   0.81658   0.11075   0.00000  Uiso   1.00
C214   C     0.09732   0.85008   0.22258   0.00000  Uiso   1.00
C215   C     0.44895   0.81585   0.11064   0.00000  Uiso   1.00
C216   C     0.05105   0.85082   0.22270   0.00000  Uiso   1.00
C217   C     0.47672   0.83361   0.16652   0.00000  Uiso   1.00
C218   C     0.02328   0.83305   0.16682   0.00000  Uiso   1.00
C219   C     0.45799   0.85192   0.22211   0.00000  Uiso   1.00
C220   C     0.04201   0.81474   0.11122   0.00000  Uiso   1.00
C221   C     0.46787   0.79740   0.05571   0.00000  Uiso   1.00
C222   C     0.03213   0.86927   0.27762   0.00000  Uiso   1.00
Cu223  Cu    0.25501   0.83913   0.22813   0.00000  Uiso   1.00
Cu224  Cu    0.24500   0.82754   0.10521   0.00000  Uiso   1.00
H225   H     0.39725   0.86582   0.26430   0.00000  Uiso   1.00
H226   H     0.10275   0.80084   0.06904   0.00000  Uiso   1.00
H227   H     0.38123   0.80278   0.06796   0.00000  Uiso   1.00
H228   H     0.11877   0.86389   0.26538   0.00000  Uiso   1.00
H229   H     0.44687   0.78357   0.01257   0.00000  Uiso   1.00
H230   H     0.05313   0.88310   0.32076   0.00000  Uiso   1.00
H231   H     0.02828   0.78238   0.01313   0.00000  Uiso   1.00
H232   H     0.47172   0.88428   0.32020   0.00000  Uiso   1.00
H233   H     0.24359   0.98630   0.09553   0.00000  Uiso   1.00
H234   H     0.25641   0.68037   0.23780   0.00000  Uiso   1.00
N235   N     0.23745   0.81881   0.01284   0.00000  Uiso   1.00
N236   N     0.26256   0.84786   0.32049   0.00000  Uiso   1.00
O237   O     0.25326   0.76204   0.20659   0.00000  Uiso   1.00
O238   O     0.24675   0.90462   0.12674   0.00000  Uiso   1.00
O239   O     0.24480   0.75226   0.10279   0.00000  Uiso   1.00
O240   O     0.25520   0.91441   0.23055   0.00000  Uiso   1.00
O241   O     0.18936   0.83821   0.21857   0.00000  Uiso   1.00
O242   O     0.31065   0.82845   0.11476   0.00000  Uiso   1.00
O243   O     0.18090   0.82843   0.11477   0.00000  Uiso   1.00
O244   O     0.31910   0.83824   0.21857   0.00000  Uiso   1.00
N245   N     0.20537   0.78366   0.30721   0.00000  Uiso   1.00
H246   H     0.21067   0.74611   0.31425   0.00000  Uiso   1.00
H247   H     0.17430   0.79317   0.32218   0.00000  Uiso   1.00
N248   N     0.29463   0.88301   0.02612   0.00000  Uiso   1.00
H249   H     0.28933   0.92055   0.01908   0.00000  Uiso   1.00
H250   H     0.32570   0.87350   0.01115   0.00000  Uiso   1.00
C251   C     0.74857   0.73322   0.15099   0.00000  Uiso   1.00
C252   C     0.75143   0.93344   0.18234   0.00000  Uiso   1.00
C253   C     0.51420   0.79677   0.05603   0.00000  Uiso   1.00
C254   C     0.98580   0.86990   0.27731   0.00000  Uiso   1.00
C255   C     0.74781   0.67713   0.14232   0.00000  Uiso   1.00
C256   C     0.75219   0.98954   0.19101   0.00000  Uiso   1.00
C257   C     0.66439   0.83295   0.16694   0.00000  Uiso   1.00
C258   C     0.83561   0.83372   0.16640   0.00000  Uiso   1.00
C259   C     0.91169   0.85186   0.22154   0.00000  Uiso   1.00
C260   C     0.58831   0.81481   0.11179   0.00000  Uiso   1.00
C261   C     0.88403   0.83418   0.16609   0.00000  Uiso   1.00
C262   C     0.61597   0.83249   0.16725   0.00000  Uiso   1.00
C263   C     0.90268   0.81658   0.11075   0.00000  Uiso   1.00
C264   C     0.59732   0.85008   0.22258   0.00000  Uiso   1.00
C265   C     0.94895   0.81585   0.11064   0.00000  Uiso   1.00
C266   C     0.55105   0.85082   0.22270   0.00000  Uiso   1.00
C267   C     0.97672   0.83361   0.16652   0.00000  Uiso   1.00
C268   C     0.52328   0.83305   0.16682   0.00000  Uiso   1.00
C269   C     0.95799   0.85192   0.22211   0.00000  Uiso   1.00
C270   C     0.54201   0.81474   0.11122   0.00000  Uiso   1.00
C271   C     0.96787   0.79740   0.05571   0.00000  Uiso   1.00
C272   C     0.53213   0.86927   0.27762   0.00000  Uiso   1.00
Cu273  Cu    0.75501   0.83913   0.22813   0.00000  Uiso   1.00
Cu274  Cu    0.74500   0.82754   0.10521   0.00000  Uiso   1.00
H275   H     0.89725   0.86582   0.26430   0.00000  Uiso   1.00
H276   H     0.60275   0.80084   0.06904   0.00000  Uiso   1.00
H277   H     0.88123   0.80278   0.06796   0.00000  Uiso   1.00
H278   H     0.61877   0.86389   0.26538   0.00000  Uiso   1.00
H279   H     0.94687   0.78357   0.01257   0.00000  Uiso   1.00
H280   H     0.55313   0.88310   0.32076   0.00000  Uiso   1.00
H281   H     0.52828   0.78238   0.01313   0.00000  Uiso   1.00
H282   H     0.97172   0.88428   0.32020   0.00000  Uiso   1.00
H283   H     0.74359   0.98630   0.09553   0.00000  Uiso   1.00
H284   H     0.75641   0.68037   0.23780   0.00000  Uiso   1.00
N285   N     0.73745   0.81881   0.01284   0.00000  Uiso   1.00
N286   N     0.76256   0.84786   0.32049   0.00000  Uiso   1.00
O287   O     0.75326   0.76204   0.20659   0.00000  Uiso   1.00
O288   O     0.74675   0.90462   0.12674   0.00000  Uiso   1.00
O289   O     0.74480   0.75226   0.10279   0.00000  Uiso   1.00
O290   O     0.75520   0.91441   0.23055   0.00000  Uiso   1.00
O291   O     0.68936   0.83821   0.21857   0.00000  Uiso   1.00
O292   O     0.81065   0.82845   0.11476   0.00000  Uiso   1.00
O293   O     0.68090   0.82843   0.11477   0.00000  Uiso   1.00
O294   O     0.81910   0.83824   0.21857   0.00000  Uiso   1.00
N295   N     0.70537   0.78366   0.30721   0.00000  Uiso   1.00
H296   H     0.71067   0.74611   0.31425   0.00000  Uiso   1.00
H297   H     0.67430   0.79317   0.32218   0.00000  Uiso   1.00
N298   N     0.79463   0.88301   0.02612   0.00000  Uiso   1.00
H299   H     0.78933   0.92055   0.01908   0.00000  Uiso   1.00
H300   H     0.82570   0.87350   0.01115   0.00000  Uiso   1.00
C301   C     0.24857   0.06656   0.48433   0.00000  Uiso   1.00
C302   C     0.25143   0.26678   0.51567   0.00000  Uiso   1.00
C303   C     0.01420   0.13010   0.38936   0.00000  Uiso   1.00
C304   C     0.48580   0.20323   0.61064   0.00000  Uiso   1.00
C305   C     0.24781   0.01046   0.47565   0.00000  Uiso   1.00
C306   C     0.25219   0.32287   0.52435   0.00000  Uiso   1.00
C307   C     0.16439   0.16628   0.50027   0.00000  Uiso   1.00
C308   C     0.33561   0.16705   0.49973   0.00000  Uiso   1.00
C309   C     0.41169   0.18519   0.55487   0.00000  Uiso   1.00
C310   C     0.08831   0.14814   0.44513   0.00000  Uiso   1.00
C311   C     0.38403   0.16751   0.49942   0.00000  Uiso   1.00
C312   C     0.11597   0.16582   0.50058   0.00000  Uiso   1.00
C313   C     0.40268   0.14992   0.44409   0.00000  Uiso   1.00
C314   C     0.09732   0.18342   0.55591   0.00000  Uiso   1.00
C315   C     0.44895   0.14918   0.44397   0.00000  Uiso   1.00
C316   C     0.05105   0.18415   0.55603   0.00000  Uiso   1.00
C317   C     0.47672   0.16695   0.49985   0.00000  Uiso   1.00
C318   C     0.02328   0.16639   0.50015   0.00000  Uiso   1.00
C319   C     0.45799   0.18526   0.55545   0.00000  Uiso   1.00
C320   C     0.04201   0.14808   0.44455   0.00000  Uiso   1.00
C321   C     0.46787   0.13073   0.38905   0.00000  Uiso   1.00
C322   C     0.03213   0.20260   0.61095   0.00000  Uiso   1.00
Cu323  Cu    0.25501   0.17246   0.56146   0.00000  Uiso   1.00
Cu324  Cu    0.24500   0.16087   0.43854   0.00000  Uiso   1.00
H325   H     0.39725   0.19916   0.59763   0.00000  Uiso   1.00
H326   H     0.10275   0.13418   0.40237   0.00000  Uiso   1.00
H327   H     0.38123   0.13611   0.40129   0.00000  Uiso   1.00
H328   H     0.11877   0.19722   0.59871   0.00000  Uiso   1.00
H329   H     0.44687   0.11690   0.34590   0.00000  Uiso   1.00
H330   H     0.05313   0.21643   0.65410   0.00000  Uiso   1.00
H331   H     0.02828   0.11572   0.34646   0.00000  Uiso   1.00
H332   H     0.47172   0.21762   0.65354   0.00000  Uiso   1.00
H333   H     0.24359   0.31963   0.42887   0.00000  Uiso   1.00
H334   H     0.25641   0.01370   0.57113   0.00000  Uiso   1.00
N335   N     0.23745   0.15214   0.34617   0.00000  Uiso   1.00
N336   N     0.26256   0.18119   0.65383   0.00000  Uiso   1.00
O337   O     0.25326   0.09538   0.53992   0.00000  Uiso   1.00
O338   O     0.24675   0.23796   0.46008   0.00000  Uiso   1.00
O339   O     0.24480   0.08559   0.43612   0.00000  Uiso   1.00
O340   O     0.25520   0.24774   0.56388   0.00000  Uiso   1.00
O341   O     0.18936   0.17155   0.55191   0.00000  Uiso   1.00
O342   O     0.31065   0.16179   0.44809   0.00000  Uiso   1.00
O343   O     0.18090   0.16176   0.44810   0.00000  Uiso   1.00
O344   O     0.31910   0.17157   0.55190   0.00000  Uiso   1.00
N345   N     0.20537   0.11699   0.64055   0.00000  Uiso   1.00
H346   H     0.21067   0.07945   0.64759   0.00000  Uiso   1.00
H347   H     0.17430   0.12650   0.65552   0.00000  Uiso   1.00
N348   N     0.29463   0.21634   0.35945   0.00000  Uiso   1.00
H349   H     0.28933   0.25389   0.35241   0.00000  Uiso   1.00
H350   H     0.32570   0.20683   0.34448   0.00000  Uiso   1.00
C351   C     0.74857   0.06656   0.48433   0.00000  Uiso   1.00
C352   C     0.75143   0.26678   0.51567   0.00000  Uiso   1.00
C353   C     0.51420   0.13010   0.38936   0.00000  Uiso   1.00
C354   C     0.98580   0.20323   0.61064   0.00000  Uiso   1.00
C355   C     0.74781   0.01046   0.47565   0.00000  Uiso   1.00
C356   C     0.75219   0.32287   0.52435   0.00000  Uiso   1.00
C357   C     0.66439   0.16628   0.50027   0.00000  Uiso   1.00
C358   C     0.83561   0.16705   0.49973   0.00000  Uiso   1.00
C359   C     0.91169   0.18519   0.55487   0.00000  Uiso   1.00
C360   C     0.58831   0.14814   0.44513   0.00000  Uiso   1.00
C361   C     0.88403   0.16751   0.49942   0.00000  Uiso   1.00
C362   C     0.61597   0.16582   0.50058   0.00000  Uiso   1.00
C363   C     0.90268   0.14992   0.44409   0.00000  Uiso   1.00
C364   C     0.59732   0.18342   0.55591   0.00000  Uiso   1.00
C365   C     0.94895   0.14918   0.44397   0.00000  Uiso   1.00
C366   C     0.55105   0.18415   0.55603   0.00000  Uiso   1.00
C367   C     0.97672   0.16695   0.49985   0.00000  Uiso   1.00
C368   C     0.52328   0.16639   0.50015   0.00000  Uiso   1.00
C369   C     0.95799   0.18526   0.55545   0.00000  Uiso   1.00
C370   C     0.54201   0.14808   0.44455   0.00000  Uiso   1.00
C371   C     0.96787   0.13073   0.38905   0.00000  Uiso   1.00
C372   C     0.53213   0.20260   0.61095   0.00000  Uiso   1.00
Cu373  Cu    0.75501   0.17246   0.56146   0.00000  Uiso   1.00
Cu374  Cu    0.74500   0.16087   0.43854   0.00000  Uiso   1.00
H375   H     0.89725   0.19916   0.59763   0.00000  Uiso   1.00
H376   H     0.60275   0.13418   0.40237   0.00000  Uiso   1.00
H377   H     0.88123   0.13611   0.40129   0.00000  Uiso   1.00
H378   H     0.61877   0.19722   0.59871   0.00000  Uiso   1.00
H379   H     0.94687   0.11690   0.34590   0.00000  Uiso   1.00
H380   H     0.55313   0.21643   0.65410   0.00000  Uiso   1.00
H381   H     0.52828   0.11572   0.34646   0.00000  Uiso   1.00
H382   H     0.97172   0.21762   0.65354   0.00000  Uiso   1.00
H383   H     0.74359   0.31963   0.42887   0.00000  Uiso   1.00
H384   H     0.75641   0.01370   0.57113   0.00000  Uiso   1.00
N385   N     0.73745   0.15214   0.34617   0.00000  Uiso   1.00
N386   N     0.76256   0.18119   0.65383   0.00000  Uiso   1.00
O387   O     0.75326   0.09538   0.53992   0.00000  Uiso   1.00
O388   O     0.74675   0.23796   0.46008   0.00000  Uiso   1.00
O389   O     0.74480   0.08559   0.43612   0.00000  Uiso   1.00
O390   O     0.75520   0.24774   0.56388   0.00000  Uiso   1.00
O391   O     0.68936   0.17155   0.55191   0.00000  Uiso   1.00
O392   O     0.81065   0.16179   0.44809   0.00000  Uiso   1.00
O393   O     0.68090   0.16176   0.44810   0.00000  Uiso   1.00
O394   O     0.81910   0.17157   0.55190   0.00000  Uiso   1.00
N395   N     0.70537   0.11699   0.64055   0.00000  Uiso   1.00
H396   H     0.71067   0.07945   0.64759   0.00000  Uiso   1.00
H397   H     0.67430   0.12650   0.65552   0.00000  Uiso   1.00
N398   N     0.79463   0.21634   0.35945   0.00000  Uiso   1.00
H399   H     0.78933   0.25389   0.35241   0.00000  Uiso   1.00
H400   H     0.82570   0.20683   0.34448   0.00000  Uiso   1.00
C401   C     0.24857   0.39989   0.48433   0.00000  Uiso   1.00
C402   C     0.25143   0.60011   0.51567   0.00000  Uiso   1.00
C403   C     0.01420   0.46344   0.38936   0.00000  Uiso   1.00
C404   C     0.48580   0.53656   0.61064   0.00000  Uiso   1.00
C405   C     0.24781   0.34380   0.47565   0.00000  Uiso   1.00
C406   C     0.25219   0.65621   0.52435   0.00000  Uiso   1.00
C407   C     0.16439   0.49961   0.50027   0.00000  Uiso   1.00
C408   C     0.33561   0.50039   0.49973   0.00000  Uiso   1.00
C409   C     0.41169   0.51852   0.55487   0.00000  Uiso   1.00
C410   C     0.08831   0.48148   0.44513   0.00000  Uiso   1.00
C411   C     0.38403   0.50085   0.49942   0.00000  Uiso   1.00
C412   C     0.11597   0.49915   0.50058   0.00000  Uiso   1.00
C413   C     0.40268   0.48325   0.44409   0.00000  Uiso   1.00
C414   C     0.09732   0.51675   0.55591   0.00000  Uiso   1.00
C415   C     0.44895   0.48251   0.44397   0.00000  Uiso   1.00
C416   C     0.05105   0.51749   0.55603   0.00000  Uiso   1.00
C417   C     0.47672   0.50028   0.49985   0.00000  Uiso   1.00
C418   C     0.02328   0.49972   0.50015   0.00000  Uiso   1.00
C419   C     0.45799   0.51859   0.55545   0.00000  Uiso   1.00
C420   C     0.04201   0.48141   0.44455   0.00000  Uiso   1.00
C421   C     0.46787   0.46406   0.38905   0.00000  Uiso   1.00
C422   C     0.03213   0.53594   0.61095   0.00000  Uiso   1.00
Cu423  Cu    0.25501   0.50579   0.56146   0.00000  Uiso   1.00
Cu424  Cu    0.24500   0.49421   0.43854   0.00000  Uiso   1.00
H425   H     0.39725   0.53249   0.59763   0.00000  Uiso   1.00
H426   H     0.10275   0.46751   0.40237   0.00000  Uiso   1.00
H427   H     0.38123   0.46944   0.40129   0.00000  Uiso   1.00
H428   H     0.11877   0.53056   0.59871   0.00000  Uiso   1.00
H429   H     0.44687   0.45023   0.34590   0.00000  Uiso   1.00
H430   H     0.05313   0.54977   0.65410   0.00000  Uiso   1.00
H431   H     0.02828   0.44905   0.34646   0.00000  Uiso   1.00
H432   H     0.47172   0.55095   0.65354   0.00000  Uiso   1.00
H433   H     0.24359   0.65296   0.42887   0.00000  Uiso   1.00
H434   H     0.25641   0.34704   0.57113   0.00000  Uiso   1.00
N435   N     0.23745   0.48547   0.34617   0.00000  Uiso   1.00
N436   N     0.26256   0.51453   0.65383   0.00000  Uiso   1.00
O437   O     0.25326   0.42871   0.53992   0.00000  Uiso   1.00
O438   O     0.24675   0.57129   0.46008   0.00000  Uiso   1.00
O439   O     0.24480   0.41892   0.43612   0.00000  Uiso   1.00
O440   O     0.25520   0.58108   0.56388   0.00000  Uiso   1.00
O441   O     0.18936   0.50488   0.55191   0.00000  Uiso   1.00
O442   O     0.31065   0.49512   0.44809   0.00000  Uiso   1.00
O443   O     0.18090   0.49510   0.44810   0.00000  Uiso   1.00
O444   O     0.31910   0.50490   0.55190   0.00000  Uiso   1.00
N445   N     0.20537   0.45032   0.64055   0.00000  Uiso   1.00
H446   H     0.21067   0.41278   0.64759   0.00000  Uiso   1.00
H447   H     0.17430   0.45983   0.65552   0.00000  Uiso   1.00
N448   N     0.29463   0.54968   0.35945   0.00000  Uiso   1.00
H449   H     0.28933   0.58722   0.35241   0.00000  Uiso   1.00
H450   H     0.32570   0.54017   0.34448   0.00000  Uiso   1.00
C451   C     0.74857   0.39989   0.48433   0.00000  Uiso   1.00
C452   C     0.75143   0.60011   0.51567   0.00000  Uiso   1.00
C453   C     0.51420   0.46344   0.38936   0.00000  Uiso   1.00
C454   C     0.98580   0.53656   0.61064   0.00000  Uiso   1.00
C455   C     0.74781   0.34380   0.47565   0.00000  Uiso   1.00
C456   C     0.75219   0.65621   0.52435   0.00000  Uiso   1.00
C457   C     0.66439   0.49961   0.50027   0.00000  Uiso   1.00
C458   C     0.83561   0.50039   0.49973   0.00000  Uiso   1.00
C459   C     0.91169   0.51852   0.55487   0.00000  Uiso   1.00
C460   C     0.58831   0.48148   0.44513   0.00000  Uiso   1.00
C461   C     0.88403   0.50085   0.49942   0.00000  Uiso   1.00
C462   C     0.61597   0.49915   0.50058   0.00000  Uiso   1.00
C463   C     0.90268   0.48325   0.44409   0.00000  Uiso   1.00
C464   C     0.59732   0.51675   0.55591   0.00000  Uiso   1.00
C465   C     0.94895   0.48251   0.44397   0.00000  Uiso   1.00
C466   C     0.55105   0.51749   0.55603   0.00000  Uiso   1.00
C467   C     0.97672   0.50028   0.49985   0.00000  Uiso   1.00
C468   C     0.52328   0.49972   0.50015   0.00000  Uiso   1.00
C469   C     0.95799   0.51859   0.55545   0.00000  Uiso   1.00
C470   C     0.54201   0.48141   0.44455   0.00000  Uiso   1.00
C471   C     0.96787   0.46406   0.38905   0.00000  Uiso   1.00
C472   C     0.53213   0.53594   0.61095   0.00000  Uiso   1.00
Cu473  Cu    0.75501   0.50579   0.56146   0.00000  Uiso   1.00
Cu474  Cu    0.74500   0.49421   0.43854   0.00000  Uiso   1.00
H475   H     0.89725   0.53249   0.59763   0.00000  Uiso   1.00
H476   H     0.60275   0.46751   0.40237   0.00000  Uiso   1.00
H477   H     0.88123   0.46944   0.40129   0.00000  Uiso   1.00
H478   H     0.61877   0.53056   0.59871   0.00000  Uiso   1.00
H479   H     0.94687   0.45023   0.34590   0.00000  Uiso   1.00
H480   H     0.55313   0.54977   0.65410   0.00000  Uiso   1.00
H481   H     0.52828   0.44905   0.34646   0.00000  Uiso   1.00
H482   H     0.97172   0.55095   0.65354   0.00000  Uiso   1.00
H483   H     0.74359   0.65296   0.42887   0.00000  Uiso   1.00
H484   H     0.75641   0.34704   0.57113   0.00000  Uiso   1.00
N485   N     0.73745   0.48547   0.34617   0.00000  Uiso   1.00
N486   N     0.76256   0.51453   0.65383   0.00000  Uiso   1.00
O487   O     0.75326   0.42871   0.53992   0.00000  Uiso   1.00
O488   O     0.74675   0.57129   0.46008   0.00000  Uiso   1.00
O489   O     0.74480   0.41892   0.43612   0.00000  Uiso   1.00
O490   O     0.75520   0.58108   0.56388   0.00000  Uiso   1.00
O491   O     0.68936   0.50488   0.55191   0.00000  Uiso   1.00
O492   O     0.81065   0.49512   0.44809   0.00000  Uiso   1.00
O493   O     0.68090   0.49510   0.44810   0.00000  Uiso   1.00
O494   O     0.81910   0.50490   0.55190   0.00000  Uiso   1.00
N495   N     0.70537   0.45032   0.64055   0.00000  Uiso   1.00
H496   H     0.71067   0.41278   0.64759   0.00000  Uiso   1.00
H497   H     0.67430   0.45983   0.65552   0.00000  Uiso   1.00
N498   N     0.79463   0.54968   0.35945   0.00000  Uiso   1.00
H499   H     0.78933   0.58722   0.35241   0.00000  Uiso   1.00
H500   H     0.82570   0.54017   0.34448   0.00000  Uiso   1.00
C501   C     0.24857   0.73322   0.48433   0.00000  Uiso   1.00
C502   C     0.25143   0.93344   0.51567   0.00000  Uiso   1.00
C503   C     0.01420   0.79677   0.38936   0.00000  Uiso   1.00
C504   C     0.48580   0.86990   0.61064   0.00000  Uiso   1.00
C505   C     0.24781   0.67713   0.47565   0.00000  Uiso   1.00
C506   C     0.25219   0.98954   0.52435   0.00000  Uiso   1.00
C507   C     0.16439   0.83295   0.50027   0.00000  Uiso   1.00
C508   C     0.33561   0.83372   0.49973   0.00000  Uiso   1.00
C509   C     0.41169   0.85186   0.55487   0.00000  Uiso   1.00
C510   C     0.08831   0.81481   0.44513   0.00000  Uiso   1.00
C511   C     0.38403   0.83418   0.49942   0.00000  Uiso   1.00
C512   C     0.11597   0.83249   0.50058   0.00000  Uiso   1.00
C513   C     0.40268   0.81658   0.44409   0.00000  Uiso   1.00
C514   C     0.09732   0.85008   0.55591   0.00000  Uiso   1.00
C515   C     0.44895   0.81585   0.44397   0.00000  Uiso   1.00
C516   C     0.05105   0.85082   0.55603   0.00000  Uiso   1.00
C517   C     0.47672   0.83361   0.49985   0.00000  Uiso   1.00
C518   C     0.02328   0.83305   0.50015   0.00000  Uiso   1.00
C519   C     0.45799   0.85192   0.55545   0.00000  Uiso   1.00
C520   C     0.04201   0.81474   0.44455   0.00000  Uiso   1.00
C521   C     0.46787   0.79740   0.38905   0.00000  Uiso   1.00
C522   C     0.03213   0.86927   0.61095   0.00000  Uiso   1.00
Cu523  Cu    0.25501   0.83913   0.56146   0.00000  Uiso   1.00
Cu524  Cu    0.24500   0.82754   0.43854   0.00000  Uiso   1.00
H525   H     0.39725   0.86582   0.59763   0.00000  Uiso   1.00
H526   H     0.10275   0.80084   0.40237   0.00000  Uiso   1.00
H527   H     0.38123   0.80278   0.40129   0.00000  Uiso   1.00
H528   H     0.11877   0.86389   0.59871   0.00000  Uiso   1.00
H529   H     0.44687   0.78357   0.34590   0.00000  Uiso   1.00
H530   H     0.05313   0.88310   0.65410   0.00000  Uiso   1.00
H531   H     0.02828   0.78238   0.34646   0.00000  Uiso   1.00
H532   H     0.47172   0.88428   0.65354   0.00000  Uiso   1.00
H533   H     0.24359   0.98630   0.42887   0.00000  Uiso   1.00
H534   H     0.25641   0.68037   0.57113   0.00000  Uiso   1.00
N535   N     0.23745   0.81881   0.34617   0.00000  Uiso   1.00
N536   N     0.26256   0.84786   0.65383   0.00000  Uiso   1.00
O537   O     0.25326   0.76204   0.53992   0.00000  Uiso   1.00
O538   O     0.24675   0.90462   0.46008   0.00000  Uiso   1.00
O539   O     0.24480   0.75226   0.43612   0.00000  Uiso   1.00
O540   O     0.25520   0.91441   0.56388   0.00000  Uiso   1.00
O541   O     0.18936   0.83821   0.55191   0.00000  Uiso   1.00
O542   O     0.31065   0.82845   0.44809   0.00000  Uiso   1.00
O543   O     0.18090   0.82843   0.44810   0.00000  Uiso   1.00
O544   O     0.31910   0.83824   0.55190   0.00000  Uiso   1.00
N545   N     0.20537   0.78366   0.64055   0.00000  Uiso   1.00
H546   H     0.21067   0.74611   0.64759   0.00000  Uiso   1.00
H547   H     0.17430   0.79317   0.65552   0.00000  Uiso   1.00
N548   N     0.29463   0.88301   0.35945   0.00000  Uiso   1.00
H549   H     0.28933   0.92055   0.35241   0.00000  Uiso   1.00
H550   H     0.32570   0.87350   0.34448   0.00000  Uiso   1.00
C551   C     0.74857   0.73322   0.48433   0.00000  Uiso   1.00
C552   C     0.75143   0.93344   0.51567   0.00000  Uiso   1.00
C553   C     0.51420   0.79677   0.38936   0.00000  Uiso   1.00
C554   C     0.98580   0.86990   0.61064   0.00000  Uiso   1.00
C555   C     0.74781   0.67713   0.47565   0.00000  Uiso   1.00
C556   C     0.75219   0.98954   0.52435   0.00000  Uiso   1.00
C557   C     0.66439   0.83295   0.50027   0.00000  Uiso   1.00
C558   C     0.83561   0.83372   0.49973   0.00000  Uiso   1.00
C559   C     0.91169   0.85186   0.55487   0.00000  Uiso   1.00
C560   C     0.58831   0.81481   0.44513   0.00000  Uiso   1.00
C561   C     0.88403   0.83418   0.49942   0.00000  Uiso   1.00
C562   C     0.61597   0.83249   0.50058   0.00000  Uiso   1.00
C563   C     0.90268   0.81658   0.44409   0.00000  Uiso   1.00
C564   C     0.59732   0.85008   0.55591   0.00000  Uiso   1.00
C565   C     0.94895   0.81585   0.44397   0.00000  Uiso   1.00
C566   C     0.55105   0.85082   0.55603   0.00000  Uiso   1.00
C567   C     0.97672   0.83361   0.49985   0.00000  Uiso   1.00
C568   C     0.52328   0.83305   0.50015   0.00000  Uiso   1.00
C569   C     0.95799   0.85192   0.55545   0.00000  Uiso   1.00
C570   C     0.54201   0.81474   0.44455   0.00000  Uiso   1.00
C571   C     0.96787   0.79740   0.38905   0.00000  Uiso   1.00
C572   C     0.53213   0.86927   0.61095   0.00000  Uiso   1.00
Cu573  Cu    0.75501   0.83913   0.56146   0.00000  Uiso   1.00
Cu574  Cu    0.74500   0.82754   0.43854   0.00000  Uiso   1.00
H575   H     0.89725   0.86582   0.59763   0.00000  Uiso   1.00
H576   H     0.60275   0.80084   0.40237   0.00000  Uiso   1.00
H577   H     0.88123   0.80278   0.40129   0.00000  Uiso   1.00
H578   H     0.61877   0.86389   0.59871   0.00000  Uiso   1.00
H579   H     0.94687   0.78357   0.34590   0.00000  Uiso   1.00
H580   H     0.55313   0.88310   0.65410   0.00000  Uiso   1.00
H581   H     0.52828   0.78238   0.34646   0.00000  Uiso   1.00
H582   H     0.97172   0.88428   0.65354   0.00000  Uiso   1.00
H583   H     0.74359   0.98630   0.42887   0.00000  Uiso   1.00
H584   H     0.75641   0.68037   0.57113   0.00000  Uiso   1.00
N585   N     0.73745   0.81881   0.34617   0.00000  Uiso   1.00
N586   N     0.76256   0.84786   0.65383   0.00000  Uiso   1.00
O587   O     0.75326   0.76204   0.53992   0.00000  Uiso   1.00
O588   O     0.74675   0.90462   0.46008   0.00000  Uiso   1.00
O589   O     0.74480   0.75226   0.43612   0.00000  Uiso   1.00
O590   O     0.75520   0.91441   0.56388   0.00000  Uiso   1.00
O591   O     0.68936   0.83821   0.55191   0.00000  Uiso   1.00
O592   O     0.81065   0.82845   0.44809   0.00000  Uiso   1.00
O593   O     0.68090   0.82843   0.44810   0.00000  Uiso   1.00
O594   O     0.81910   0.83824   0.55190   0.00000  Uiso   1.00
N595   N     0.70537   0.78366   0.64055   0.00000  Uiso   1.00
H596   H     0.71067   0.74611   0.64759   0.00000  Uiso   1.00
H597   H     0.67430   0.79317   0.65552   0.00000  Uiso   1.00
N598   N     0.79463   0.88301   0.35945   0.00000  Uiso   1.00
H599   H     0.78933   0.92055   0.35241   0.00000  Uiso   1.00
H600   H     0.82570   0.87350   0.34448   0.00000  Uiso   1.00
C601   C     0.24857   0.06656   0.81766   0.00000  Uiso   1.00
C602   C     0.25143   0.26678   0.84901   0.00000  Uiso   1.00
C603   C     0.01420   0.13010   0.72269   0.00000  Uiso   1.00
C604   C     0.48580   0.20323   0.94397   0.00000  Uiso   1.00
C605   C     0.24781   0.01046   0.80899   0.00000  Uiso   1.00
C606   C     0.25219   0.32287   0.85768   0.00000  Uiso   1.00
C607   C     0.16439   0.16628   0.83360   0.00000  Uiso   1.00
C608   C     0.33561   0.16705   0.83306   0.00000  Uiso   1.00
C609   C     0.41169   0.18519   0.88821   0.00000  Uiso   1.00
C610   C     0.08831   0.14814   0.77846   0.00000  Uiso   1.00
C611   C     0.38403   0.16751   0.83275   0.00000  Uiso   1.00
C612   C     0.11597   0.16582   0.83391   0.00000  Uiso   1.00
C613   C     0.40268   0.14992   0.77742   0.00000  Uiso   1.00
C614   C     0.09732   0.18342   0.88924   0.00000  Uiso   1.00
C615   C     0.44895   0.14918   0.77730   0.00000  Uiso   1.00
C616   C     0.05105   0.18415   0.88936   0.00000  Uiso   1.00
C617   C     0.47672   0.16695   0.83318   0.00000  Uiso   1.00
C618   C     0.02328   0.16639   0.83348   0.00000  Uiso   1.00
C619   C     0.45799   0.18526   0.88878   0.00000  Uiso   1.00
C620   C     0.04201   0.14808   0.77789   0.00000  Uiso   1.00
C621   C     0.46787   0.13073   0.72238   0.00000  Uiso   1.00
C622   C     0.03213   0.20260   0.94429   0.00000  Uiso   1.00
Cu623  Cu    0.25501   0.17246   0.89479   0.00000  Uiso   1.00
Cu624  Cu    0.24500   0.16087   0.77187   0.00000  Uiso   1.00
H625   H     0.39725   0.19916   0.93096   0.00000  Uiso   1.00
H626   H     0.10275   0.13418   0.73570   0.00000  Uiso   1.00
H627   H     0.38123   0.13611   0.73462   0.00000  Uiso   1.00
H628   H     0.11877   0.19722   0.93204   0.00000  Uiso   1.00
H629   H     0.44687   0.11690   0.67924   0.00000  Uiso   1.00
H630   H     0.05313   0.21643   0.98743   0.00000  Uiso   1.00
H631   H     0.02828   0.11572   0.67980   0.00000  Uiso   1.00
H632   H     0.47172   0.21762   0.98687   0.00000  Uiso   1.00
H633   H     0.24359   0.31963   0.76220   0.00000  Uiso   1.00
H634   H     0.25641   0.01370   0.90447   0.00000  Uiso   1.00
N635   N     0.23745   0.15214   0.67951   0.00000  Uiso   1.00
N636   N     0.26256   0.18119   0.98716   0.00000  Uiso   1.00
O637   O     0.25326   0.09538   0.87326   0.00000  Uiso   1.00
O638   O     0.24675   0.23796   0.79341   0.00000  Uiso   1.00
O639   O     0.24480   0.08559   0.76945   0.00000  Uiso   1.00
O640   O     0.25520   0.24774   0.89721   0.00000  Uiso   1.00
O641   O     0.18936   0.17155   0.88524   0.00000  Uiso   1.00
O642   O     0.31065   0.16179   0.78143   0.00000  Uiso   1.00
O643   O     0.18090   0.16176   0.78143   0.00000  Uiso   1.00
O644   O     0.31910   0.17157   0.88523   0.00000  Uiso   1.00
N645   N     0.20537   0.11699   0.97388   0.00000  Uiso   1.00
H646   H     0.21067   0.07945   0.98092   0.00000  Uiso   1.00
H647   H     0.17430   0.12650   0.98885   0.00000  Uiso   1.00
N648   N     0.29463   0.21634   0.69279   0.00000  Uiso   1.00
H649   H     0.28933   0.25389   0.68575   0.00000  Uiso   1.00
H650   H     0.32570   0.20683   0.67781   0.00000  Uiso   1.00
C651   C     0.74857   0.06656   0.81766   0.00000  Uiso   1.00
C652   C     0.75143   0.26678   0.84901   0.00000  Uiso   1.00
C653   C     0.51420   0.13010   0.72269   0.00000  Uiso   1.00
C654   C     0.98580   0.20323   0.94397   0.00000  Uiso   1.00
C655   C     0.74781   0.01046   0.80899   0.00000  Uiso   1.00
C656   C     0.75219   0.32287   0.85768   0.00000  Uiso   1.00
C657   C     0.66439   0.16628   0.83360   0.00000  Uiso   1.00
C658   C     0.83561   0.16705   0.83306   0.00000  Uiso   1.00
C659   C     0.91169   0.18519   0.88821   0.00000  Uiso   1.00
C660   C     0.58831   0.14814   0.77846   0.00000  Uiso   1.00
C661   C     0.88403   0.16751   0.83275   0.00000  Uiso   1.00
C662   C     0.61597   0.16582   0.83391   0.00000  Uiso   1.00
C663   C     0.90268   0.14992   0.77742   0.00000  Uiso   1.00
C664   C     0.59732   0.18342   0.88924   0.00000  Uiso   1.00
C665   C     0.94895   0.14918   0.77730   0.00000  Uiso   1.00
C666   C     0.55105   0.18415   0.88936   0.00000  Uiso   1.00
C667   C     0.97672   0.16695   0.83318   0.00000  Uiso   1.00
C668   C     0.52328   0.16639   0.83348   0.00000  Uiso   1.00
C669   C     0.95799   0.18526   0.88878   0.00000  Uiso   1.00
C670   C     0.54201   0.14808   0.77789   0.00000  Uiso   1.00
C671   C     0.96787   0.13073   0.72238   0.00000  Uiso   1.00
C672   C     0.53213   0.20260   0.94429   0.00000  Uiso   1.00
Cu673  Cu    0.75501   0.17246   0.89479   0.00000  Uiso   1.00
Cu674  Cu    0.74500   0.16087   0.77187   0.00000  Uiso   1.00
H675   H     0.89725   0.19916   0.93096   0.00000  Uiso   1.00
H676   H     0.60275   0.13418   0.73570   0.00000  Uiso   1.00
H677   H     0.88123   0.13611   0.73462   0.00000  Uiso   1.00
H678   H     0.61877   0.19722   0.93204   0.00000  Uiso   1.00
H679   H     0.94687   0.11690   0.67924   0.00000  Uiso   1.00
H680   H     0.55313   0.21643   0.98743   0.00000  Uiso   1.00
H681   H     0.52828   0.11572   0.67980   0.00000  Uiso   1.00
H682   H     0.97172   0.21762   0.98687   0.00000  Uiso   1.00
H683   H     0.74359   0.31963   0.76220   0.00000  Uiso   1.00
H684   H     0.75641   0.01370   0.90447   0.00000  Uiso   1.00
N685   N     0.73745   0.15214   0.67951   0.00000  Uiso   1.00
N686   N     0.76256   0.18119   0.98716   0.00000  Uiso   1.00
O687   O     0.75326   0.09538   0.87326   0.00000  Uiso   1.00
O688   O     0.74675   0.23796   0.79341   0.00000  Uiso   1.00
O689   O     0.74480   0.08559   0.76945   0.00000  Uiso   1.00
O690   O     0.75520   0.24774   0.89721   0.00000  Uiso   1.00
O691   O     0.68936   0.17155   0.88524   0.00000  Uiso   1.00
O692   O     0.81065   0.16179   0.78143   0.00000  Uiso   1.00
O693   O     0.68090   0.16176   0.78143   0.00000  Uiso   1.00
O694   O     0.81910   0.17157   0.88523   0.00000  Uiso   1.00
N695   N     0.70537   0.11699   0.97388   0.00000  Uiso   1.00
H696   H     0.71067   0.07945   0.98092   0.00000  Uiso   1.00
H697   H     0.67430   0.12650   0.98885   0.00000  Uiso   1.00
N698   N     0.79463   0.21634   0.69279   0.00000  Uiso   1.00
H699   H     0.78933   0.25389   0.68575   0.00000  Uiso   1.00
H700   H     0.82570   0.20683   0.67781   0.00000  Uiso   1.00
C701   C     0.24857   0.39989   0.81766   0.00000  Uiso   1.00
C702   C     0.25143   0.60011   0.84901   0.00000  Uiso   1.00
C703   C     0.01420   0.46344   0.72269   0.00000  Uiso   1.00
C704   C     0.48580   0.53656   0.94397   0.00000  Uiso   1.00
C705   C     0.24781   0.34380   0.80899   0.00000  Uiso   1.00
C706   C     0.25219   0.65621   0.85768   0.00000  Uiso   1.00
C707   C     0.16439   0.49961   0.83360   0.00000  Uiso   1.00
C708   C     0.33561   0.50039   0.83306   0.00000  Uiso   1.00
C709   C     0.41169   0.51852   0.88821   0.00000  Uiso   1.00
C710   C     0.08831   0.48148   0.77846   0.00000  Uiso   1.00
C711   C     0.38403   0.50085   0.83275   0.00000  Uiso   1.00
C712   C     0.11597   0.49915   0.83391   0.00000  Uiso   1.00
C713   C     0.40268   0.48325   0.77742   0.00000  Uiso   1.00
C714   C     0.09732   0.51675   0.88924   0.00000  Uiso   1.00
C715   C     0.44895   0.48251   0.77730   0.00000  Uiso   1.00
C716   C     0.05105   0.51749   0.88936   0.00000  Uiso   1.00
C717   C     0.47672   0.50028   0.83318   0.00000  Uiso   1.00
C718   C     0.02328   0.49972   0.83348   0.00000  Uiso   1.00
C719   C     0.45799   0.51859   0.88878   0.00000  Uiso   1.00
C720   C     0.04201   0.48141   0.77789   0.00000  Uiso   1.00
C721   C     0.46787   0.46406   0.72238   0.00000  Uiso   1.00
C722   C     0.03213   0.53594   0.94429   0.00000  Uiso   1.00
Cu723  Cu    0.25501   0.50579   0.89479   0.00000  Uiso   1.00
Cu724  Cu    0.24500   0.49421   0.77187   0.00000  Uiso   1.00
H725   H     0.39725   0.53249   0.93096   0.00000  Uiso   1.00
H726   H     0.10275   0.46751   0.73570   0.00000  Uiso   1.00
H727   H     0.38123   0.46944   0.73462   0.00000  Uiso   1.00
H728   H     0.11877   0.53056   0.93204   0.00000  Uiso   1.00
H729   H     0.44687   0.45023   0.67924   0.00000  Uiso   1.00
H730   H     0.05313   0.54977   0.98743   0.00000  Uiso   1.00
H731   H     0.02828   0.44905   0.67980   0.00000  Uiso   1.00
H732   H     0.47172   0.55095   0.98687   0.00000  Uiso   1.00
H733   H     0.24359   0.65296   0.76220   0.00000  Uiso   1.00
H734   H     0.25641   0.34704   0.90447   0.00000  Uiso   1.00
N735   N     0.23745   0.48547   0.67951   0.00000  Uiso   1.00
N736   N     0.26256   0.51453   0.98716   0.00000  Uiso   1.00
O737   O     0.25326   0.42871   0.87326   0.00000  Uiso   1.00
O738   O     0.24675   0.57129   0.79341   0.00000  Uiso   1.00
O739   O     0.24480   0.41892   0.76945   0.00000  Uiso   1.00
O740   O     0.25520   0.58108   0.89721   0.00000  Uiso   1.00
O741   O     0.18936   0.50488   0.88524   0.00000  Uiso   1.00
O742   O     0.31065   0.49512   0.78143   0.00000  Uiso   1.00
O743   O     0.18090   0.49510   0.78143   0.00000  Uiso   1.00
O744   O     0.31910   0.50490   0.88523   0.00000  Uiso   1.00
N745   N     0.20537   0.45032   0.97388   0.00000  Uiso   1.00
H746   H     0.21067   0.41278   0.98092   0.00000  Uiso   1.00
H747   H     0.17430   0.45983   0.98885   0.00000  Uiso   1.00
N748   N     0.29463   0.54968   0.69279   0.00000  Uiso   1.00
H749   H     0.28933   0.58722   0.68575   0.00000  Uiso   1.00
H750   H     0.32570   0.54017   0.67781   0.00000  Uiso   1.00
C751   C     0.74857   0.39989   0.81766   0.00000  Uiso   1.00
C752   C     0.75143   0.60011   0.84901   0.00000  Uiso   1.00
C753   C     0.51420   0.46344   0.72269   0.00000  Uiso   1.00
C754   C     0.98580   0.53656   0.94397   0.00000  Uiso   1.00
C755   C     0.74781   0.34380   0.80899   0.00000  Uiso   1.00
C756   C     0.75219   0.65621   0.85768   0.00000  Uiso   1.00
C757   C     0.66439   0.49961   0.83360   0.00000  Uiso   1.00
C758   C     0.83561   0.50039   0.83306   0.00000  Uiso   1.00
C759   C     0.91169   0.51852   0.88821   0.00000  Uiso   1.00
C760   C     0.58831   0.48148   0.77846   0.00000  Uiso   1.00
C761   C     0.88403   0.50085   0.83275   0.00000  Uiso   1.00
C762   C     0.61597   0.49915   0.83391   0.00000  Uiso   1.00
C763   C     0.90268   0.48325   0.77742   0.00000  Uiso   1.00
C764   C     0.59732   0.51675   0.88924   0.00000  Uiso   1.00
C765   C     0.94895   0.48251   0.77730   0.00000  Uiso   1.00
C766   C     0.55105   0.51749   0.88936   0.00000  Uiso   1.00
C767   C     0.97672   0.50028   0.83318   0.00000  Uiso   1.00
C768   C     0.52328   0.49972   0.83348   0.00000  Uiso   1.00
C769   C     0.95799   0.51859   0.88878   0.00000  Uiso   1.00
C770   C     0.54201   0.48141   0.77789   0.00000  Uiso   1.00
C771   C     0.96787   0.46406   0.72238   0.00000  Uiso   1.00
C772   C     0.53213   0.53594   0.94429   0.00000  Uiso   1.00
Cu773  Cu    0.75501   0.50579   0.89479   0.00000  Uiso   1.00
Cu774  Cu    0.74500   0.49421   0.77187   0.00000  Uiso   1.00
H775   H     0.89725   0.53249   0.93096   0.00000  Uiso   1.00
H776   H     0.60275   0.46751   0.73570   0.00000  Uiso   1.00
H777   H     0.88123   0.46944   0.73462   0.00000  Uiso   1.00
H778   H     0.61877   0.53056   0.93204   0.00000  Uiso   1.00
H779   H     0.94687   0.45023   0.67924   0.00000  Uiso   1.00
H780   H     0.55313   0.54977   0.98743   0.00000  Uiso   1.00
H781   H     0.52828   0.44905   0.67980   0.00000  Uiso   1.00
H782   H     0.97172   0.55095   0.98687   0.00000  Uiso   1.00
H783   H     0.74359   0.65296   0.76220   0.00000  Uiso   1.00
H784   H     0.75641   0.34704   0.90447   0.00000  Uiso   1.00
N785   N     0.73745   0.48547   0.67951   0.00000  Uiso   1.00
N786   N     0.76256   0.51453   0.98716   0.00000  Uiso   1.00
O787   O     0.75326   0.42871   0.87326   0.00000  Uiso   1.00
O788   O     0.74675   0.57129   0.79341   0.00000  Uiso   1.00
O789   O     0.74480   0.41892   0.76945   0.00000  Uiso   1.00
O790   O     0.75520   0.58108   0.89721   0.00000  Uiso   1.00
O791   O     0.68936   0.50488   0.88524   0.00000  Uiso   1.00
O792   O     0.81065   0.49512   0.78143   0.00000  Uiso   1.00
O793   O     0.68090   0.49510   0.78143   0.00000  Uiso   1.00
O794   O     0.81910   0.50490   0.88523   0.00000  Uiso   1.00
N795   N     0.70537   0.45032   0.97388   0.00000  Uiso   1.00
H796   H     0.71067   0.41278   0.98092   0.00000  Uiso   1.00
H797   H     0.67430   0.45983   0.98885   0.00000  Uiso   1.00
N798   N     0.79463   0.54968   0.69279   0.00000  Uiso   1.00
H799   H     0.78933   0.58722   0.68575   0.00000  Uiso   1.00
H800   H     0.82570   0.54017   0.67781   0.00000  Uiso   1.00
C801   C     0.24857   0.73322   0.81766   0.00000  Uiso   1.00
C802   C     0.25143   0.93344   0.84901   0.00000  Uiso   1.00
C803   C     0.01420   0.79677   0.72269   0.00000  Uiso   1.00
C804   C     0.48580   0.86990   0.94397   0.00000  Uiso   1.00
C805   C     0.24781   0.67713   0.80899   0.00000  Uiso   1.00
C806   C     0.25219   0.98954   0.85768   0.00000  Uiso   1.00
C807   C     0.16439   0.83295   0.83360   0.00000  Uiso   1.00
C808   C     0.33561   0.83372   0.83306   0.00000  Uiso   1.00
C809   C     0.41169   0.85186   0.88821   0.00000  Uiso   1.00
C810   C     0.08831   0.81481   0.77846   0.00000  Uiso   1.00
C811   C     0.38403   0.83418   0.83275   0.00000  Uiso   1.00
C812   C     0.11597   0.83249   0.83391   0.00000  Uiso   1.00
C813   C     0.40268   0.81658   0.77742   0.00000  Uiso   1.00
C814   C     0.09732   0.85008   0.88924   0.00000  Uiso   1.00
C815   C     0.44895   0.81585   0.77730   0.00000  Uiso   1.00
C816   C     0.05105   0.85082   0.88936   0.00000  Uiso   1.00
C817   C     0.47672   0.83361   0.83318   0.00000  Uiso   1.00
C818   C     0.02328   0.83305   0.83348   0.00000  Uiso   1.00
C819   C     0.45799   0.85192   0.88878   0.00000  Uiso   1.00
C820   C     0.04201   0.81474   0.77789   0.00000  Uiso   1.00
C821   C     0.46787   0.79740   0.72238   0.00000  Uiso   1.00
C822   C     0.03213   0.86927   0.94429   0.00000  Uiso   1.00
Cu823  Cu    0.25501   0.83913   0.89479   0.00000  Uiso   1.00
Cu824  Cu    0.24500   0.82754   0.77187   0.00000  Uiso   1.00
H825   H     0.39725   0.86582   0.93096   0.00000  Uiso   1.00
H826   H     0.10275   0.80084   0.73570   0.00000  Uiso   1.00
H827   H     0.38123   0.80278   0.73462   0.00000  Uiso   1.00
H828   H     0.11877   0.86389   0.93204   0.00000  Uiso   1.00
H829   H     0.44687   0.78357   0.67924   0.00000  Uiso   1.00
H830   H     0.05313   0.88310   0.98743   0.00000  Uiso   1.00
H831   H     0.02828   0.78238   0.67980   0.00000  Uiso   1.00
H832   H     0.47172   0.88428   0.98687   0.00000  Uiso   1.00
H833   H     0.24359   0.98630   0.76220   0.00000  Uiso   1.00
H834   H     0.25641   0.68037   0.90447   0.00000  Uiso   1.00
N835   N     0.23745   0.81881   0.67951   0.00000  Uiso   1.00
N836   N     0.26256   0.84786   0.98716   0.00000  Uiso   1.00
O837   O     0.25326   0.76204   0.87326   0.00000  Uiso   1.00
O838   O     0.24675   0.90462   0.79341   0.00000  Uiso   1.00
O839   O     0.24480   0.75226   0.76945   0.00000  Uiso   1.00
O840   O     0.25520   0.91441   0.89721   0.00000  Uiso   1.00
O841   O     0.18936   0.83821   0.88524   0.00000  Uiso   1.00
O842   O     0.31065   0.82845   0.78143   0.00000  Uiso   1.00
O843   O     0.18090   0.82843   0.78143   0.00000  Uiso   1.00
O844   O     0.31910   0.83824   0.88523   0.00000  Uiso   1.00
N845   N     0.20537   0.78366   0.97388   0.00000  Uiso   1.00
H846   H     0.21067   0.74611   0.98092   0.00000  Uiso   1.00
H847   H     0.17430   0.79317   0.98885   0.00000  Uiso   1.00
N848   N     0.29463   0.88301   0.69279   0.00000  Uiso   1.00
H849   H     0.28933   0.92055   0.68575   0.00000  Uiso   1.00
H850   H     0.32570   0.87350   0.67781   0.00000  Uiso   1.00
C851   C     0.74857   0.73322   0.81766   0.00000  Uiso   1.00
C852   C     0.75143   0.93344   0.84901   0.00000  Uiso   1.00
C853   C     0.51420   0.79677   0.72269   0.00000  Uiso   1.00
C854   C     0.98580   0.86990   0.94397   0.00000  Uiso   1.00
C855   C     0.74781   0.67713   0.80899   0.00000  Uiso   1.00
C856   C     0.75219   0.98954   0.85768   0.00000  Uiso   1.00
C857   C     0.66439   0.83295   0.83360   0.00000  Uiso   1.00
C858   C     0.83561   0.83372   0.83306   0.00000  Uiso   1.00
C859   C     0.91169   0.85186   0.88821   0.00000  Uiso   1.00
C860   C     0.58831   0.81481   0.77846   0.00000  Uiso   1.00
C861   C     0.88403   0.83418   0.83275   0.00000  Uiso   1.00
C862   C     0.61597   0.83249   0.83391   0.00000  Uiso   1.00
C863   C     0.90268   0.81658   0.77742   0.00000  Uiso   1.00
C864   C     0.59732   0.85008   0.88924   0.00000  Uiso   1.00
C865   C     0.94895   0.81585   0.77730   0.00000  Uiso   1.00
C866   C     0.55105   0.85082   0.88936   0.00000  Uiso   1.00
C867   C     0.97672   0.83361   0.83318   0.00000  Uiso   1.00
C868   C     0.52328   0.83305   0.83348   0.00000  Uiso   1.00
C869   C     0.95799   0.85192   0.88878   0.00000  Uiso   1.00
C870   C     0.54201   0.81474   0.77789   0.00000  Uiso   1.00
C871   C     0.96787   0.79740   0.72238   0.00000  Uiso   1.00
C872   C     0.53213   0.86927   0.94429   0.00000  Uiso   1.00
Cu873  Cu    0.75501   0.83913   0.89479   0.00000  Uiso   1.00
Cu874  Cu    0.74500   0.82754   0.77187   0.00000  Uiso   1.00
H875   H     0.89725   0.86582   0.93096   0.00000  Uiso   1.00
H876   H     0.60275   0.80084   0.73570   0.00000  Uiso   1.00
H877   H     0.88123   0.80278   0.73462   0.00000  Uiso   1.00
H878   H     0.61877   0.86389   0.93204   0.00000  Uiso   1.00
H879   H     0.94687   0.78357   0.67924   0.00000  Uiso   1.00
H880   H     0.55313   0.88310   0.98743   0.00000  Uiso   1.00
H881   H     0.52828   0.78238   0.67980   0.00000  Uiso   1.00
H882   H     0.97172   0.88428   0.98687   0.00000  Uiso   1.00
H883   H     0.74359   0.98630   0.76220   0.00000  Uiso   1.00
H884   H     0.75641   0.68037   0.90447   0.00000  Uiso   1.00
N885   N     0.73745   0.81881   0.67951   0.00000  Uiso   1.00
N886   N     0.76256   0.84786   0.98716   0.00000  Uiso   1.00
O887   O     0.75326   0.76204   0.87326   0.00000  Uiso   1.00
O888   O     0.74675   0.90462   0.79341   0.00000  Uiso   1.00
O889   O     0.74480   0.75226   0.76945   0.00000  Uiso   1.00
O890   O     0.75520   0.91441   0.89721   0.00000  Uiso   1.00
O891   O     0.68936   0.83821   0.88524   0.00000  Uiso   1.00
O892   O     0.81065   0.82845   0.78143   0.00000  Uiso   1.00
O893   O     0.68090   0.82843   0.78143   0.00000  Uiso   1.00
O894   O     0.81910   0.83824   0.88523   0.00000  Uiso   1.00
N895   N     0.70537   0.78366   0.97388   0.00000  Uiso   1.00
H896   H     0.71067   0.74611   0.98092   0.00000  Uiso   1.00
H897   H     0.67430   0.79317   0.98885   0.00000  Uiso   1.00
N898   N     0.79463   0.88301   0.69279   0.00000  Uiso   1.00
H899   H     0.78933   0.92055   0.68575   0.00000  Uiso   1.00
H900   H     0.82570   0.87350   0.67781   0.00000  Uiso   1.00
loop_
_geom_bond_atom_site_label_1
_geom_bond_atom_site_label_2
_geom_bond_distance
_geom_bond_site_symmetry_2
_ccdc_geom_bond_type
C1     O37     1.293   .     A
C1     C5      1.427   .     S
C1     O39     1.290   .     A
C2     O38     1.293   .     A
C2     C6      1.427   .     S
C2     O40     1.290   .     A
C3     C20     1.401   .     A
C3     H31     1.084   .     S
C3     C71     1.393   1_455 S
C4     H32     1.084   .     S
C4     C19     1.401   .     A
C4     C72     1.393   .     S
C5     C206    1.330   1_545 S
C5     H233    1.087   1_545 S
C6     C105    1.330   .     S
C6     H134    1.087   .     S
C7     O43     1.297   .     A
C7     O41     1.300   .     A
C7     C12     1.456   .     S
C8     O44     1.297   .     A
C8     C11     1.456   .     S
C8     O42     1.300   .     A
C9     H25     1.085   .     S
C9     C11     1.403   .     A
C9     C19     1.391   .     A
C10    H26     1.085   .     S
C10    C12     1.403   .     A
C10    C20     1.391   .     A
C11    C13     1.401   .     A
C12    C14     1.401   .     A
C13    C15     1.392   .     A
C13    H27     1.085   .     S
C14    C16     1.392   .     A
C14    H28     1.085   .     S
C15    C21     1.401   .     A
C15    C17     1.412   .     A
C16    C18     1.412   .     A
C16    C22     1.401   .     A
C17    C19     1.410   .     A
C17    C68     1.400   .     S
C18    C20     1.410   .     A
C18    C67     1.400   1_455 S
C21    H29     1.084   .     S
C21    C53     1.393   .     S
C22    H30     1.084   .     S
C22    C54     1.393   1_455 S
Cu23   Cu24    2.698   .     S
Cu23   O41     1.965   .     S
Cu23   O40     1.949   .     S
Cu23   N36     2.027   .     S
Cu23   O37     1.951   .     S
Cu23   O44     1.959   .     S
Cu24   O38     1.951   .     S
Cu24   O42     1.965   .     S
Cu24   N35     2.027   .     S
Cu24   O39     1.949   .     S
Cu24   O43     1.959   .     S
H33    C105    1.087   .     S
H34    C206    1.087   1_545 S
N35    N636    1.299   1_554 S
N35    N645    1.385   1_554 S
N36    N335    1.299   .     S
N36    N348    1.385   .     S
N45    H46     1.044   .     S
N45    H47     1.045   .     S
N45    N335    1.385   .     S
N48    H50     1.045   .     S
N48    H49     1.044   .     S
N48    N636    1.385   1_554 S
C51    O87     1.293   .     A
C51    C55     1.427   .     S
C51    O89     1.290   .     A
C52    O88     1.293   .     A
C52    C56     1.427   .     S
C52    O90     1.290   .     A
C53    C70     1.401   .     A
C53    H81     1.084   .     S
C54    H82     1.084   .     S
C54    C69     1.401   .     A
C54    C22     1.393   1_655 S
C55    C256    1.330   1_545 S
C55    H283    1.087   1_545 S
C56    C155    1.330   .     S
C56    H184    1.087   .     S
C57    O93     1.297   .     A
C57    O91     1.300   .     A
C57    C62     1.456   .     S
C58    O94     1.297   .     A
C58    C61     1.456   .     S
C58    O92     1.300   .     A
C59    H75     1.085   .     S
C59    C61     1.403   .     A
C59    C69     1.391   .     A
C60    H76     1.085   .     S
C60    C62     1.403   .     A
C60    C70     1.391   .     A
C61    C63     1.401   .     A
C62    C64     1.401   .     A
C63    C65     1.392   .     A
C63    H77     1.085   .     S
C64    C66     1.392   .     A
C64    H78     1.085   .     S
C65    C71     1.401   .     A
C65    C67     1.412   .     A
C66    C68     1.412   .     A
C66    C72     1.401   .     A
C67    C69     1.410   .     A
C67    C18     1.400   1_655 S
C68    C70     1.410   .     A
C71    H79     1.084   .     S
C71    C3      1.393   1_655 S
C72    H80     1.084   .     S
Cu73   Cu74    2.698   .     S
Cu73   O91     1.965   .     S
Cu73   O90     1.949   .     S
Cu73   N86     2.027   .     S
Cu73   O87     1.951   .     S
Cu73   O94     1.959   .     S
Cu74   O88     1.951   .     S
Cu74   O92     1.965   .     S
Cu74   N85     2.027   .     S
Cu74   O89     1.949   .     S
Cu74   O93     1.959   .     S
H83    C155    1.087   .     S
H84    C256    1.087   1_545 S
N85    N686    1.299   1_554 S
N85    N695    1.385   1_554 S
N86    N385    1.299   .     S
N86    N398    1.385   .     S
N95    H96     1.044   .     S
N95    H97     1.045   .     S
N95    N385    1.385   .     S
N98    H100    1.045   .     S
N98    H99     1.044   .     S
N98    N686    1.385   1_554 S
C101   O137    1.293   .     A
C101   C105    1.427   .     S
C101   O139    1.290   .     A
C102   O138    1.293   .     A
C102   C106    1.427   .     S
C102   O140    1.290   .     A
C103   C120    1.401   .     A
C103   H131    1.084   .     S
C103   C171    1.393   1_455 S
C104   H132    1.084   .     S
C104   C119    1.401   .     A
C104   C172    1.393   .     S
C106   C205    1.330   .     S
C106   H234    1.087   .     S
C107   O143    1.297   .     A
C107   O141    1.300   .     A
C107   C112    1.456   .     S
C108   O144    1.297   .     A
C108   C111    1.456   .     S
C108   O142    1.300   .     A
C109   H125    1.085   .     S
C109   C111    1.403   .     A
C109   C119    1.391   .     A
C110   H126    1.085   .     S
C110   C112    1.403   .     A
C110   C120    1.391   .     A
C111   C113    1.401   .     A
C112   C114    1.401   .     A
C113   C115    1.392   .     A
C113   H127    1.085   .     S
C114   C116    1.392   .     A
C114   H128    1.085   .     S
C115   C121    1.401   .     A
C115   C117    1.412   .     A
C116   C118    1.412   .     A
C116   C122    1.401   .     A
C117   C119    1.410   .     A
C117   C168    1.400   .     S
C118   C120    1.410   .     A
C118   C167    1.400   1_455 S
C121   H129    1.084   .     S
C121   C153    1.393   .     S
C122   H130    1.084   .     S
C122   C154    1.393   1_455 S
Cu123  Cu124   2.698   .     S
Cu123  O141    1.965   .     S
Cu123  O140    1.949   .     S
Cu123  N136    2.027   .     S
Cu123  O137    1.951   .     S
Cu123  O144    1.959   .     S
Cu124  O138    1.951   .     S
Cu124  O142    1.965   .     S
Cu124  N135    2.027   .     S
Cu124  O139    1.949   .     S
Cu124  O143    1.959   .     S
H133   C205    1.087   .     S
N135   N736    1.299   1_554 S
N135   N745    1.385   1_554 S
N136   N435    1.299   .     S
N136   N448    1.385   .     S
N145   H146    1.044   .     S
N145   H147    1.045   .     S
N145   N435    1.385   .     S
N148   H150    1.045   .     S
N148   H149    1.044   .     S
N148   N736    1.385   1_554 S
C151   O187    1.293   .     A
C151   C155    1.427   .     S
C151   O189    1.290   .     A
C152   O188    1.293   .     A
C152   C156    1.427   .     S
C152   O190    1.290   .     A
C153   C170    1.401   .     A
C153   H181    1.084   .     S
C154   H182    1.084   .     S
C154   C169    1.401   .     A
C154   C122    1.393   1_655 S
C156   C255    1.330   .     S
C156   H284    1.087   .     S
C157   O193    1.297   .     A
C157   O191    1.300   .     A
C157   C162    1.456   .     S
C158   O194    1.297   .     A
C158   C161    1.456   .     S
C158   O192    1.300   .     A
C159   H175    1.085   .     S
C159   C161    1.403   .     A
C159   C169    1.391   .     A
C160   H176    1.085   .     S
C160   C162    1.403   .     A
C160   C170    1.391   .     A
C161   C163    1.401   .     A
C162   C164    1.401   .     A
C163   C165    1.392   .     A
C163   H177    1.085   .     S
C164   C166    1.392   .     A
C164   H178    1.085   .     S
C165   C171    1.401   .     A
C165   C167    1.412   .     A
C166   C168    1.412   .     A
C166   C172    1.401   .     A
C167   C169    1.410   .     A
C167   C118    1.400   1_655 S
C168   C170    1.410   .     A
C171   H179    1.084   .     S
C171   C103    1.393   1_655 S
C172   H180    1.084   .     S
Cu173  Cu174   2.698   .     S
Cu173  O191    1.965   .     S
Cu173  O190    1.949   .     S
Cu173  N186    2.027   .     S
Cu173  O187    1.951   .     S
Cu173  O194    1.959   .     S
Cu174  O188    1.951   .     S
Cu174  O192    1.965   .     S
Cu174  N185    2.027   .     S
Cu174  O189    1.949   .     S
Cu174  O193    1.959   .     S
H183   C255    1.087   .     S
N185   N786    1.299   1_554 S
N185   N795    1.385   1_554 S
N186   N485    1.299   .     S
N186   N498    1.385   .     S
N195   H196    1.044   .     S
N195   H197    1.045   .     S
N195   N485    1.385   .     S
N198   H200    1.045   .     S
N198   H199    1.044   .     S
N198   N786    1.385   1_554 S
C201   O237    1.293   .     A
C201   C205    1.427   .     S
C201   O239    1.290   .     A
C202   O238    1.293   .     A
C202   C206    1.427   .     S
C202   O240    1.290   .     A
C203   C220    1.401   .     A
C203   H231    1.084   .     S
C203   C271    1.393   1_455 S
C204   H232    1.084   .     S
C204   C219    1.401   .     A
C204   C272    1.393   .     S
C206   C5      1.330   1_565 S
C206   H34     1.087   1_565 S
C207   O243    1.297   .     A
C207   O241    1.300   .     A
C207   C212    1.456   .     S
C208   O244    1.297   .     A
C208   C211    1.456   .     S
C208   O242    1.300   .     A
C209   H225    1.085   .     S
C209   C211    1.403   .     A
C209   C219    1.391   .     A
C210   H226    1.085   .     S
C210   C212    1.403   .     A
C210   C220    1.391   .     A
C211   C213    1.401   .     A
C212   C214    1.401   .     A
C213   C215    1.392   .     A
C213   H227    1.085   .     S
C214   C216    1.392   .     A
C214   H228    1.085   .     S
C215   C221    1.401   .     A
C215   C217    1.412   .     A
C216   C218    1.412   .     A
C216   C222    1.401   .     A
C217   C219    1.410   .     A
C217   C268    1.400   .     S
C218   C220    1.410   .     A
C218   C267    1.400   1_455 S
C221   H229    1.084   .     S
C221   C253    1.393   .     S
C222   H230    1.084   .     S
C222   C254    1.393   1_455 S
Cu223  Cu224   2.698   .     S
Cu223  O241    1.965   .     S
Cu223  O240    1.949   .     S
Cu223  N236    2.027   .     S
Cu223  O237    1.951   .     S
Cu223  O244    1.959   .     S
Cu224  O238    1.951   .     S
Cu224  O242    1.965   .     S
Cu224  N235    2.027   .     S
Cu224  O239    1.949   .     S
Cu224  O243    1.959   .     S
H233   C5      1.087   1_565 S
N235   N836    1.299   1_554 S
N235   N845    1.385   1_554 S
N236   N535    1.299   .     S
N236   N548    1.385   .     S
N245   H246    1.044   .     S
N245   H247    1.045   .     S
N245   N535    1.385   .     S
N248   H250    1.045   .     S
N248   H249    1.044   .     S
N248   N836    1.385   1_554 S
C251   O287    1.293   .     A
C251   C255    1.427   .     S
C251   O289    1.290   .     A
C252   O288    1.293   .     A
C252   C256    1.427   .     S
C252   O290    1.290   .     A
C253   C270    1.401   .     A
C253   H281    1.084   .     S
C254   H282    1.084   .     S
C254   C269    1.401   .     A
C254   C222    1.393   1_655 S
C256   C55     1.330   1_565 S
C256   H84     1.087   1_565 S
C257   O293    1.297   .     A
C257   O291    1.300   .     A
C257   C262    1.456   .     S
C258   O294    1.297   .     A
C258   C261    1.456   .     S
C258   O292    1.300   .     A
C259   H275    1.085   .     S
C259   C261    1.403   .     A
C259   C269    1.391   .     A
C260   H276    1.085   .     S
C260   C262    1.403   .     A
C260   C270    1.391   .     A
C261   C263    1.401   .     A
C262   C264    1.401   .     A
C263   C265    1.392   .     A
C263   H277    1.085   .     S
C264   C266    1.392   .     A
C264   H278    1.085   .     S
C265   C271    1.401   .     A
C265   C267    1.412   .     A
C266   C268    1.412   .     A
C266   C272    1.401   .     A
C267   C269    1.410   .     A
C267   C218    1.400   1_655 S
C268   C270    1.410   .     A
C271   H279    1.084   .     S
C271   C203    1.393   1_655 S
C272   H280    1.084   .     S
Cu273  Cu274   2.698   .     S
Cu273  O291    1.965   .     S
Cu273  O290    1.949   .     S
Cu273  N286    2.027   .     S
Cu273  O287    1.951   .     S
Cu273  O294    1.959   .     S
Cu274  O288    1.951   .     S
Cu274  O292    1.965   .     S
Cu274  N285    2.027   .     S
Cu274  O289    1.949   .     S
Cu274  O293    1.959   .     S
H283   C55     1.087   1_565 S
N285   N886    1.299   1_554 S
N285   N895    1.385   1_554 S
N286   N585    1.299   .     S
N286   N598    1.385   .     S
N295   H296    1.044   .     S
N295   H297    1.045   .     S
N295   N585    1.385   .     S
N298   H300    1.045   .     S
N298   H299    1.044   .     S
N298   N886    1.385   1_554 S
C301   O337    1.293   .     A
C301   C305    1.427   .     S
C301   O339    1.290   .     A
C302   O338    1.293   .     A
C302   C306    1.427   .     S
C302   O340    1.290   .     A
C303   C320    1.401   .     A
C303   H331    1.084   .     S
C303   C371    1.393   1_455 S
C304   H332    1.084   .     S
C304   C319    1.401   .     A
C304   C372    1.393   .     S
C305   C506    1.330   1_545 S
C305   H533    1.087   1_545 S
C306   C405    1.330   .     S
C306   H434    1.087   .     S
C307   O343    1.297   .     A
C307   O341    1.300   .     A
C307   C312    1.456   .     S
C308   O344    1.297   .     A
C308   C311    1.456   .     S
C308   O342    1.300   .     A
C309   H325    1.085   .     S
C309   C311    1.403   .     A
C309   C319    1.391   .     A
C310   H326    1.085   .     S
C310   C312    1.403   .     A
C310   C320    1.391   .     A
C311   C313    1.401   .     A
C312   C314    1.401   .     A
C313   C315    1.392   .     A
C313   H327    1.085   .     S
C314   C316    1.392   .     A
C314   H328    1.085   .     S
C315   C321    1.401   .     A
C315   C317    1.412   .     A
C316   C318    1.412   .     A
C316   C322    1.401   .     A
C317   C319    1.410   .     A
C317   C368    1.400   .     S
C318   C320    1.410   .     A
C318   C367    1.400   1_455 S
C321   H329    1.084   .     S
C321   C353    1.393   .     S
C322   H330    1.084   .     S
C322   C354    1.393   1_455 S
Cu323  Cu324   2.698   .     S
Cu323  O341    1.965   .     S
Cu323  O340    1.949   .     S
Cu323  N336    2.027   .     S
Cu323  O337    1.951   .     S
Cu323  O344    1.959   .     S
Cu324  O338    1.951   .     S
Cu324  O342    1.965   .     S
Cu324  N335    2.027   .     S
Cu324  O339    1.949   .     S
Cu324  O343    1.959   .     S
H333   C405    1.087   .     S
H334   C506    1.087   1_545 S
N336   N635    1.299   .     S
N336   N648    1.385   .     S
N345   H346    1.044   .     S
N345   H347    1.045   .     S
N345   N635    1.385   .     S
N348   H350    1.045   .     S
N348   H349    1.044   .     S
C351   O387    1.293   .     A
C351   C355    1.427   .     S
C351   O389    1.290   .     A
C352   O388    1.293   .     A
C352   C356    1.427   .     S
C352   O390    1.290   .     A
C353   C370    1.401   .     A
C353   H381    1.084   .     S
C354   H382    1.084   .     S
C354   C369    1.401   .     A
C354   C322    1.393   1_655 S
C355   C556    1.330   1_545 S
C355   H583    1.087   1_545 S
C356   C455    1.330   .     S
C356   H484    1.087   .     S
C357   O393    1.297   .     A
C357   O391    1.300   .     A
C357   C362    1.456   .     S
C358   O394    1.297   .     A
C358   C361    1.456   .     S
C358   O392    1.300   .     A
C359   H375    1.085   .     S
C359   C361    1.403   .     A
C359   C369    1.391   .     A
C360   H376    1.085   .     S
C360   C362    1.403   .     A
C360   C370    1.391   .     A
C361   C363    1.401   .     A
C362   C364    1.401   .     A
C363   C365    1.392   .     A
C363   H377    1.085   .     S
C364   C366    1.392   .     A
C364   H378    1.085   .     S
C365   C371    1.401   .     A
C365   C367    1.412   .     A
C366   C368    1.412   .     A
C366   C372    1.401   .     A
C367   C369    1.410   .     A
C367   C318    1.400   1_655 S
C368   C370    1.410   .     A
C371   H379    1.084   .     S
C371   C303    1.393   1_655 S
C372   H380    1.084   .     S
Cu373  Cu374   2.698   .     S
Cu373  O391    1.965   .     S
Cu373  O390    1.949   .     S
Cu373  N386    2.027   .     S
Cu373  O387    1.951   .     S
Cu373  O394    1.959   .     S
Cu374  O388    1.951   .     S
Cu374  O392    1.965   .     S
Cu374  N385    2.027   .     S
Cu374  O389    1.949   .     S
Cu374  O393    1.959   .     S
H383   C455    1.087   .     S
H384   C556    1.087   1_545 S
N386   N685    1.299   .     S
N386   N698    1.385   .     S
N395   H396    1.044   .     S
N395   H397    1.045   .     S
N395   N685    1.385   .     S
N398   H400    1.045   .     S
N398   H399    1.044   .     S
C401   O437    1.293   .     A
C401   C405    1.427   .     S
C401   O439    1.290   .     A
C402   O438    1.293   .     A
C402   C406    1.427   .     S
C402   O440    1.290   .     A
C403   C420    1.401   .     A
C403   H431    1.084   .     S
C403   C471    1.393   1_455 S
C404   H432    1.084   .     S
C404   C419    1.401   .     A
C404   C472    1.393   .     S
C406   C505    1.330   .     S
C406   H534    1.087   .     S
C407   O443    1.297   .     A
C407   O441    1.300   .     A
C407   C412    1.456   .     S
C408   O444    1.297   .     A
C408   C411    1.456   .     S
C408   O442    1.300   .     A
C409   H425    1.085   .     S
C409   C411    1.403   .     A
C409   C419    1.391   .     A
C410   H426    1.085   .     S
C410   C412    1.403   .     A
C410   C420    1.391   .     A
C411   C413    1.401   .     A
C412   C414    1.401   .     A
C413   C415    1.392   .     A
C413   H427    1.085   .     S
C414   C416    1.392   .     A
C414   H428    1.085   .     S
C415   C421    1.401   .     A
C415   C417    1.412   .     A
C416   C418    1.412   .     A
C416   C422    1.401   .     A
C417   C419    1.410   .     A
C417   C468    1.400   .     S
C418   C420    1.410   .     A
C418   C467    1.400   1_455 S
C421   H429    1.084   .     S
C421   C453    1.393   .     S
C422   H430    1.084   .     S
C422   C454    1.393   1_455 S
Cu423  Cu424   2.698   .     S
Cu423  O441    1.965   .     S
Cu423  O440    1.949   .     S
Cu423  N436    2.027   .     S
Cu423  O437    1.951   .     S
Cu423  O444    1.959   .     S
Cu424  O438    1.951   .     S
Cu424  O442    1.965   .     S
Cu424  N435    2.027   .     S
Cu424  O439    1.949   .     S
Cu424  O443    1.959   .     S
H433   C505    1.087   .     S
N436   N735    1.299   .     S
N436   N748    1.385   .     S
N445   H446    1.044   .     S
N445   H447    1.045   .     S
N445   N735    1.385   .     S
N448   H450    1.045   .     S
N448   H449    1.044   .     S
C451   O487    1.293   .     A
C451   C455    1.427   .     S
C451   O489    1.290   .     A
C452   O488    1.293   .     A
C452   C456    1.427   .     S
C452   O490    1.290   .     A
C453   C470    1.401   .     A
C453   H481    1.084   .     S
C454   H482    1.084   .     S
C454   C469    1.401   .     A
C454   C422    1.393   1_655 S
C456   C555    1.330   .     S
C456   H584    1.087   .     S
C457   O493    1.297   .     A
C457   O491    1.300   .     A
C457   C462    1.456   .     S
C458   O494    1.297   .     A
C458   C461    1.456   .     S
C458   O492    1.300   .     A
C459   H475    1.085   .     S
C459   C461    1.403   .     A
C459   C469    1.391   .     A
C460   H476    1.085   .     S
C460   C462    1.403   .     A
C460   C470    1.391   .     A
C461   C463    1.401   .     A
C462   C464    1.401   .     A
C463   C465    1.392   .     A
C463   H477    1.085   .     S
C464   C466    1.392   .     A
C464   H478    1.085   .     S
C465   C471    1.401   .     A
C465   C467    1.412   .     A
C466   C468    1.412   .     A
C466   C472    1.401   .     A
C467   C469    1.410   .     A
C467   C418    1.400   1_655 S
C468   C470    1.410   .     A
C471   H479    1.084   .     S
C471   C403    1.393   1_655 S
C472   H480    1.084   .     S
Cu473  Cu474   2.698   .     S
Cu473  O491    1.965   .     S
Cu473  O490    1.949   .     S
Cu473  N486    2.027   .     S
Cu473  O487    1.951   .     S
Cu473  O494    1.959   .     S
Cu474  O488    1.951   .     S
Cu474  O492    1.965   .     S
Cu474  N485    2.027   .     S
Cu474  O489    1.949   .     S
Cu474  O493    1.959   .     S
H483   C555    1.087   .     S
N486   N785    1.299   .     S
N486   N798    1.385   .     S
N495   H496    1.044   .     S
N495   H497    1.045   .     S
N495   N785    1.385   .     S
N498   H500    1.045   .     S
N498   H499    1.044   .     S
C501   O537    1.293   .     A
C501   C505    1.427   .     S
C501   O539    1.290   .     A
C502   O538    1.293   .     A
C502   C506    1.427   .     S
C502   O540    1.290   .     A
C503   C520    1.401   .     A
C503   H531    1.084   .     S
C503   C571    1.393   1_455 S
C504   H532    1.084   .     S
C504   C519    1.401   .     A
C504   C572    1.393   .     S
C506   C305    1.330   1_565 S
C506   H334    1.087   1_565 S
C507   O543    1.297   .     A
C507   O541    1.300   .     A
C507   C512    1.456   .     S
C508   O544    1.297   .     A
C508   C511    1.456   .     S
C508   O542    1.300   .     A
C509   H525    1.085   .     S
C509   C511    1.403   .     A
C509   C519    1.391   .     A
C510   H526    1.085   .     S
C510   C512    1.403   .     A
C510   C520    1.391   .     A
C511   C513    1.401   .     A
C512   C514    1.401   .     A
C513   C515    1.392   .     A
C513   H527    1.085   .     S
C514   C516    1.392   .     A
C514   H528    1.085   .     S
C515   C521    1.401   .     A
C515   C517    1.412   .     A
C516   C518    1.412   .     A
C516   C522    1.401   .     A
C517   C519    1.410   .     A
C517   C568    1.400   .     S
C518   C520    1.410   .     A
C518   C567    1.400   1_455 S
C521   H529    1.084   .     S
C521   C553    1.393   .     S
C522   H530    1.084   .     S
C522   C554    1.393   1_455 S
Cu523  Cu524   2.698   .     S
Cu523  O541    1.965   .     S
Cu523  O540    1.949   .     S
Cu523  N536    2.027   .     S
Cu523  O537    1.951   .     S
Cu523  O544    1.959   .     S
Cu524  O538    1.951   .     S
Cu524  O542    1.965   .     S
Cu524  N535    2.027   .     S
Cu524  O539    1.949   .     S
Cu524  O543    1.959   .     S
H533   C305    1.087   1_565 S
N536   N835    1.299   .     S
N536   N848    1.385   .     S
N545   H546    1.044   .     S
N545   H547    1.045   .     S
N545   N835    1.385   .     S
N548   H550    1.045   .     S
N548   H549    1.044   .     S
C551   O587    1.293   .     A
C551   C555    1.427   .     S
C551   O589    1.290   .     A
C552   O588    1.293   .     A
C552   C556    1.427   .     S
C552   O590    1.290   .     A
C553   C570    1.401   .     A
C553   H581    1.084   .     S
C554   H582    1.084   .     S
C554   C569    1.401   .     A
C554   C522    1.393   1_655 S
C556   C355    1.330   1_565 S
C556   H384    1.087   1_565 S
C557   O593    1.297   .     A
C557   O591    1.300   .     A
C557   C562    1.456   .     S
C558   O594    1.297   .     A
C558   C561    1.456   .     S
C558   O592    1.300   .     A
C559   H575    1.085   .     S
C559   C561    1.403   .     A
C559   C569    1.391   .     A
C560   H576    1.085   .     S
C560   C562    1.403   .     A
C560   C570    1.391   .     A
C561   C563    1.401   .     A
C562   C564    1.401   .     A
C563   C565    1.392   .     A
C563   H577    1.085   .     S
C564   C566    1.392   .     A
C564   H578    1.085   .     S
C565   C571    1.401   .     A
C565   C567    1.412   .     A
C566   C568    1.412   .     A
C566   C572    1.401   .     A
C567   C569    1.410   .     A
C567   C518    1.400   1_655 S
C568   C570    1.410   .     A
C571   H579    1.084   .     S
C571   C503    1.393   1_655 S
C572   H580    1.084   .     S
Cu573  Cu574   2.698   .     S
Cu573  O591    1.965   .     S
Cu573  O590    1.949   .     S
Cu573  N586    2.027   .     S
Cu573  O587    1.951   .     S
Cu573  O594    1.959   .     S
Cu574  O588    1.951   .     S
Cu574  O592    1.965   .     S
Cu574  N585    2.027   .     S
Cu574  O589    1.949   .     S
Cu574  O593    1.959   .     S
H583   C355    1.087   1_565 S
N586   N885    1.299   .     S
N586   N898    1.385   .     S
N595   H596    1.044   .     S
N595   H597    1.045   .     S
N595   N885    1.385   .     S
N598   H600    1.045   .     S
N598   H599    1.044   .     S
C601   O637    1.293   .     A
C601   C605    1.427   .     S
C601   O639    1.290   .     A
C602   O638    1.293   .     A
C602   C606    1.427   .     S
C602   O640    1.290   .     A
C603   C620    1.401   .     A
C603   H631    1.084   .     S
C603   C671    1.393   1_455 S
C604   H632    1.084   .     S
C604   C619    1.401   .     A
C604   C672    1.393   .     S
C605   C806    1.330   1_545 S
C605   H833    1.087   1_545 S
C606   C705    1.330   .     S
C606   H734    1.087   .     S
C607   O643    1.297   .     A
C607   O641    1.300   .     A
C607   C612    1.456   .     S
C608   O644    1.297   .     A
C608   C611    1.456   .     S
C608   O642    1.300   .     A
C609   H625    1.085   .     S
C609   C611    1.403   .     A
C609   C619    1.391   .     A
C610   H626    1.085   .     S
C610   C612    1.403   .     A
C610   C620    1.391   .     A
C611   C613    1.401   .     A
C612   C614    1.401   .     A
C613   C615    1.392   .     A
C613   H627    1.085   .     S
C614   C616    1.392   .     A
C614   H628    1.085   .     S
C615   C621    1.401   .     A
C615   C617    1.412   .     A
C616   C618    1.412   .     A
C616   C622    1.401   .     A
C617   C619    1.410   .     A
C617   C668    1.400   .     S
C618   C620    1.410   .     A
C618   C667    1.400   1_455 S
C621   H629    1.084   .     S
C621   C653    1.393   .     S
C622   H630    1.084   .     S
C622   C654    1.393   1_455 S
Cu623  Cu624   2.698   .     S
Cu623  O641    1.965   .     S
Cu623  O640    1.949   .     S
Cu623  N636    2.027   .     S
Cu623  O637    1.951   .     S
Cu623  O644    1.959   .     S
Cu624  O638    1.951   .     S
Cu624  O642    1.965   .     S
Cu624  N635    2.027   .     S
Cu624  O639    1.949   .     S
Cu624  O643    1.959   .     S
H633   C705    1.087   .     S
H634   C806    1.087   1_545 S
N636   N35     1.299   1_556 S
N636   N48     1.385   1_556 S
N645   H646    1.044   .     S
N645   H647    1.045   .     S
N645   N35     1.385   1_556 S
N648   H650    1.045   .     S
N648   H649    1.044   .     S
C651   O687    1.293   .     A
C651   C655    1.427   .     S
C651   O689    1.290   .     A
C652   O688    1.293   .     A
C652   C656    1.427   .     S
C652   O690    1.290   .     A
C653   C670    1.401   .     A
C653   H681    1.084   .     S
C654   H682    1.084   .     S
C654   C669    1.401   .     A
C654   C622    1.393   1_655 S
C655   C856    1.330   1_545 S
C655   H883    1.087   1_545 S
C656   C755    1.330   .     S
C656   H784    1.087   .     S
C657   O693    1.297   .     A
C657   O691    1.300   .     A
C657   C662    1.456   .     S
C658   O694    1.297   .     A
C658   C661    1.456   .     S
C658   O692    1.300   .     A
C659   H675    1.085   .     S
C659   C661    1.403   .     A
C659   C669    1.391   .     A
C660   H676    1.085   .     S
C660   C662    1.403   .     A
C660   C670    1.391   .     A
C661   C663    1.401   .     A
C662   C664    1.401   .     A
C663   C665    1.392   .     A
C663   H677    1.085   .     S
C664   C666    1.392   .     A
C664   H678    1.085   .     S
C665   C671    1.401   .     A
C665   C667    1.412   .     A
C666   C668    1.412   .     A
C666   C672    1.401   .     A
C667   C669    1.410   .     A
C667   C618    1.400   1_655 S
C668   C670    1.410   .     A
C671   H679    1.084   .     S
C671   C603    1.393   1_655 S
C672   H680    1.084   .     S
Cu673  Cu674   2.698   .     S
Cu673  O691    1.965   .     S
Cu673  O690    1.949   .     S
Cu673  N686    2.027   .     S
Cu673  O687    1.951   .     S
Cu673  O694    1.959   .     S
Cu674  O688    1.951   .     S
Cu674  O692    1.965   .     S
Cu674  N685    2.027   .     S
Cu674  O689    1.949   .     S
Cu674  O693    1.959   .     S
H683   C755    1.087   .     S
H684   C856    1.087   1_545 S
N686   N85     1.299   1_556 S
N686   N98     1.385   1_556 S
N695   H696    1.044   .     S
N695   H697    1.045   .     S
N695   N85     1.385   1_556 S
N698   H700    1.045   .     S
N698   H699    1.044   .     S
C701   O737    1.293   .     A
C701   C705    1.427   .     S
C701   O739    1.290   .     A
C702   O738    1.293   .     A
C702   C706    1.427   .     S
C702   O740    1.290   .     A
C703   C720    1.401   .     A
C703   H731    1.084   .     S
C703   C771    1.393   1_455 S
C704   H732    1.084   .     S
C704   C719    1.401   .     A
C704   C772    1.393   .     S
C706   C805    1.330   .     S
C706   H834    1.087   .     S
C707   O743    1.297   .     A
C707   O741    1.300   .     A
C707   C712    1.456   .     S
C708   O744    1.297   .     A
C708   C711    1.456   .     S
C708   O742    1.300   .     A
C709   H725    1.085   .     S
C709   C711    1.403   .     A
C709   C719    1.391   .     A
C710   H726    1.085   .     S
C710   C712    1.403   .     A
C710   C720    1.391   .     A
C711   C713    1.401   .     A
C712   C714    1.401   .     A
C713   C715    1.392   .     A
C713   H727    1.085   .     S
C714   C716    1.392   .     A
C714   H728    1.085   .     S
C715   C721    1.401   .     A
C715   C717    1.412   .     A
C716   C718    1.412   .     A
C716   C722    1.401   .     A
C717   C719    1.410   .     A
C717   C768    1.400   .     S
C718   C720    1.410   .     A
C718   C767    1.400   1_455 S
C721   H729    1.084   .     S
C721   C753    1.393   .     S
C722   H730    1.084   .     S
C722   C754    1.393   1_455 S
Cu723  Cu724   2.698   .     S
Cu723  O741    1.965   .     S
Cu723  O740    1.949   .     S
Cu723  N736    2.027   .     S
Cu723  O737    1.951   .     S
Cu723  O744    1.959   .     S
Cu724  O738    1.951   .     S
Cu724  O742    1.965   .     S
Cu724  N735    2.027   .     S
Cu724  O739    1.949   .     S
Cu724  O743    1.959   .     S
H733   C805    1.087   .     S
N736   N135    1.299   1_556 S
N736   N148    1.385   1_556 S
N745   H746    1.044   .     S
N745   H747    1.045   .     S
N745   N135    1.385   1_556 S
N748   H750    1.045   .     S
N748   H749    1.044   .     S
C751   O787    1.293   .     A
C751   C755    1.427   .     S
C751   O789    1.290   .     A
C752   O788    1.293   .     A
C752   C756    1.427   .     S
C752   O790    1.290   .     A
C753   C770    1.401   .     A
C753   H781    1.084   .     S
C754   H782    1.084   .     S
C754   C769    1.401   .     A
C754   C722    1.393   1_655 S
C756   C855    1.330   .     S
C756   H884    1.087   .     S
C757   O793    1.297   .     A
C757   O791    1.300   .     A
C757   C762    1.456   .     S
C758   O794    1.297   .     A
C758   C761    1.456   .     S
C758   O792    1.300   .     A
C759   H775    1.085   .     S
C759   C761    1.403   .     A
C759   C769    1.391   .     A
C760   H776    1.085   .     S
C760   C762    1.403   .     A
C760   C770    1.391   .     A
C761   C763    1.401   .     A
C762   C764    1.401   .     A
C763   C765    1.392   .     A
C763   H777    1.085   .     S
C764   C766    1.392   .     A
C764   H778    1.085   .     S
C765   C771    1.401   .     A
C765   C767    1.412   .     A
C766   C768    1.412   .     A
C766   C772    1.401   .     A
C767   C769    1.410   .     A
C767   C718    1.400   1_655 S
C768   C770    1.410   .     A
C771   H779    1.084   .     S
C771   C703    1.393   1_655 S
C772   H780    1.084   .     S
Cu773  Cu774   2.698   .     S
Cu773  O791    1.965   .     S
Cu773  O790    1.949   .     S
Cu773  N786    2.027   .     S
Cu773  O787    1.951   .     S
Cu773  O794    1.959   .     S
Cu774  O788    1.951   .     S
Cu774  O792    1.965   .     S
Cu774  N785    2.027   .     S
Cu774  O789    1.949   .     S
Cu774  O793    1.959   .     S
H783   C855    1.087   .     S
N786   N185    1.299   1_556 S
N786   N198    1.385   1_556 S
N795   H796    1.044   .     S
N795   H797    1.045   .     S
N795   N185    1.385   1_556 S
N798   H800    1.045   .     S
N798   H799    1.044   .     S
C801   O837    1.293   .     A
C801   C805    1.427   .     S
C801   O839    1.290   .     A
C802   O838    1.293   .     A
C802   C806    1.427   .     S
C802   O840    1.290   .     A
C803   C820    1.401   .     A
C803   H831    1.084   .     S
C803   C871    1.393   1_455 S
C804   H832    1.084   .     S
C804   C819    1.401   .     A
C804   C872    1.393   .     S
C806   C605    1.330   1_565 S
C806   H634    1.087   1_565 S
C807   O843    1.297   .     A
C807   O841    1.300   .     A
C807   C812    1.456   .     S
C808   O844    1.297   .     A
C808   C811    1.456   .     S
C808   O842    1.300   .     A
C809   H825    1.085   .     S
C809   C811    1.403   .     A
C809   C819    1.391   .     A
C810   H826    1.085   .     S
C810   C812    1.403   .     A
C810   C820    1.391   .     A
C811   C813    1.401   .     A
C812   C814    1.401   .     A
C813   C815    1.392   .     A
C813   H827    1.085   .     S
C814   C816    1.392   .     A
C814   H828    1.085   .     S
C815   C821    1.401   .     A
C815   C817    1.412   .     A
C816   C818    1.412   .     A
C816   C822    1.401   .     A
C817   C819    1.410   .     A
C817   C868    1.400   .     S
C818   C820    1.410   .     A
C818   C867    1.400   1_455 S
C821   H829    1.084   .     S
C821   C853    1.393   .     S
C822   H830    1.084   .     S
C822   C854    1.393   1_455 S
Cu823  Cu824   2.698   .     S
Cu823  O841    1.965   .     S
Cu823  O840    1.949   .     S
Cu823  N836    2.027   .     S
Cu823  O837    1.951   .     S
Cu823  O844    1.959   .     S
Cu824  O838    1.951   .     S
Cu824  O842    1.965   .     S
Cu824  N835    2.027   .     S
Cu824  O839    1.949   .     S
Cu824  O843    1.959   .     S
H833   C605    1.087   1_565 S
N836   N235    1.299   1_556 S
N836   N248    1.385   1_556 S
N845   H846    1.044   .     S
N845   H847    1.045   .     S
N845   N235    1.385   1_556 S
N848   H850    1.045   .     S
N848   H849    1.044   .     S
C851   O887    1.293   .     A
C851   C855    1.427   .     S
C851   O889    1.290   .     A
C852   O888    1.293   .     A
C852   C856    1.427   .     S
C852   O890    1.290   .     A
C853   C870    1.401   .     A
C853   H881    1.084   .     S
C854   H882    1.084   .     S
C854   C869    1.401   .     A
C854   C822    1.393   1_655 S
C856   C655    1.330   1_565 S
C856   H684    1.087   1_565 S
C857   O893    1.297   .     A
C857   O891    1.300   .     A
C857   C862    1.456   .     S
C858   O894    1.297   .     A
C858   C861    1.456   .     S
C858   O892    1.300   .     A
C859   H875    1.085   .     S
C859   C861    1.403   .     A
C859   C869    1.391   .     A
C860   H876    1.085   .     S
C860   C862    1.403   .     A
C860   C870    1.391   .     A
C861   C863    1.401   .     A
C862   C864    1.401   .     A
C863   C865    1.392   .     A
C863   H877    1.085   .     S
C864   C866    1.392   .     A
C864   H878    1.085   .     S
C865   C871    1.401   .     A
C865   C867    1.412   .     A
C866   C868    1.412   .     A
C866   C872    1.401   .     A
C867   C869    1.410   .     A
C867   C818    1.400   1_655 S
C868   C870    1.410   .     A
C871   H879    1.084   .     S
C871   C803    1.393   1_655 S
C872   H880    1.084   .     S
Cu873  Cu874   2.698   .     S
Cu873  O891    1.965   .     S
Cu873  O890    1.949   .     S
Cu873  N886    2.027   .     S
Cu873  O887    1.951   .     S
Cu873  O894    1.959   .     S
Cu874  O888    1.951   .     S
Cu874  O892    1.965   .     S
Cu874  N885    2.027   .     S
Cu874  O889    1.949   .     S
Cu874  O893    1.959   .     S
H883   C655    1.087   1_565 S
N886   N285    1.299   1_556 S
N886   N298    1.385   1_556 S
N895   H896    1.044   .     S
N895   H897    1.045   .     S
N895   N285    1.385   1_556 S
N898   H900    1.045   .     S
N898   H899    1.044   .     S
