data_str_m2_o1_o16_pcu_sym.89
_audit_creation_date              2020-01-03
_audit_creation_method            'Materials Studio'
_symmetry_space_group_name_H-M    'P1'
_symmetry_Int_Tables_number       1
_symmetry_cell_setting            triclinic
loop_
_symmetry_equiv_pos_as_xyz
  x,y,z
_cell_length_a                    28.6387
_cell_length_b                    32.7279
_cell_length_c                    26.9328
_cell_angle_alpha                 91.5130
_cell_angle_beta                  72.8266
_cell_angle_gamma                 90.0275
loop_
_atom_site_label
_atom_site_type_symbol
_atom_site_fract_x
_atom_site_fract_y
_atom_site_fract_z
_atom_site_U_iso_or_equiv
_atom_site_adp_type
_atom_site_occupancy
C1     C     0.16742   0.24583   0.24791   0.00000  Uiso   1.00
C2     C     0.12486   0.16254   0.40691   0.00000  Uiso   1.00
C3     C     0.21327   0.31174   0.23916   0.00000  Uiso   1.00
C4     C     0.14043   0.16717   0.35009   0.00000  Uiso   1.00
C5     C     0.21196   0.02076   0.24673   0.00000  Uiso   1.00
C6     C     0.16812   0.04260   0.25059   0.00000  Uiso   1.00
C7     C     0.12536   0.02111   0.25245   0.00000  Uiso   1.00
C8     C     0.12548   0.31212   0.25153   0.00000  Uiso   1.00
C9     C     0.16904   0.29039   0.24539   0.00000  Uiso   1.00
C10    C     0.30033   0.19467   0.27990   0.00000  Uiso   1.00
C11    C     0.01685   0.19437   0.27987   0.00000  Uiso   1.00
C12    C     0.14964   0.15650   0.48627   0.00000  Uiso   1.00
C13    C     0.03203   0.13891   0.21958   0.00000  Uiso   1.00
C14    C     0.31629   0.13969   0.21952   0.00000  Uiso   1.00
C15    C     0.16672   0.08736   0.25082   0.00000  Uiso   1.00
C16    C     0.19297   0.16745   0.14996   0.00000  Uiso   1.00
C17    C     0.26525   0.19292   0.01162   0.00000  Uiso   1.00
C18    C     0.20866   0.17063   0.09290   0.00000  Uiso   1.00
C19    C     0.08321   0.13939   0.42907   0.00000  Uiso   1.00
C20    C     0.07630   0.12231   0.47727   0.00000  Uiso   1.00
C21    C     0.11073   0.12800   0.00428   0.00000  Uiso   1.00
C22    C     0.29411   0.19126   0.08836   0.00000  Uiso   1.00
C23    C     0.15583   0.17398   0.43704   0.00000  Uiso   1.00
C24    C     0.25531   0.04007   0.25383   0.00000  Uiso   1.00
C25    C     0.10857   0.09922   0.04469   0.00000  Uiso   1.00
C26    C     0.26073   0.29131   0.22275   0.00000  Uiso   1.00
C27    C     0.18398   0.16730   0.01355   0.00000  Uiso   1.00
C28    C     0.22764   0.18800   0.48767   0.00000  Uiso   1.00
C29    C     0.23058   0.20692   0.44098   0.00000  Uiso   1.00
C30    C     0.19350   0.20213   0.41815   0.00000  Uiso   1.00
C31    C     0.17401   0.16197   0.06695   0.00000  Uiso   1.00
C32    C     0.25566   0.18417   0.06434   0.00000  Uiso   1.00
Cu33   Cu    0.11978   0.16666   0.25000   0.00000  Uiso   1.00
Cu34   Cu    0.21355   0.16667   0.25000   0.00000  Uiso   1.00
H35    H     0.09131   0.03698   0.25589   0.00000  Uiso   1.00
H36    H     0.28562   0.24219   0.32669   0.00000  Uiso   1.00
H37    H     0.09474   0.11438   0.18327   0.00000  Uiso   1.00
H38    H     0.31845   0.19901   0.44795   0.00000  Uiso   1.00
H39    H     0.09131   0.29644   0.25544   0.00000  Uiso   1.00
H40    H     0.02951   0.21636   0.30362   0.00000  Uiso   1.00
H41    H     0.30394   0.11830   0.19484   0.00000  Uiso   1.00
H42    H     0.25994   0.22761   0.42340   0.00000  Uiso   1.00
H43    H     0.13761   0.15416   0.08982   0.00000  Uiso   1.00
H44    H     0.05839   0.13103   0.40701   0.00000  Uiso   1.00
H45    H     0.04607   0.10152   0.49136   0.00000  Uiso   1.00
H46    H     0.19469   0.22037   0.38499   0.00000  Uiso   1.00
N47    N     0.04931   0.16666   0.24998   0.00000  Uiso   1.00
N48    N     0.28402   0.16669   0.24999   0.00000  Uiso   1.00
N49    N     0.32498   0.19693   0.10736   0.00000  Uiso   1.00
N50    N     0.29004   0.05457   0.26014   0.00000  Uiso   1.00
N51    N     0.10680   0.07589   0.07674   0.00000  Uiso   1.00
N52    N     0.29865   0.27540   0.20934   0.00000  Uiso   1.00
O53    O     0.12708   0.22678   0.25000   0.00000  Uiso   1.00
O54    O     0.06025   0.10851   0.18883   0.00000  Uiso   1.00
O55    O     0.31112   0.20713   0.48516   0.00000  Uiso   1.00
O56    O     0.20627   0.22679   0.25000   0.00000  Uiso   1.00
O57    O     0.10775   0.16665   0.32549   0.00000  Uiso   1.00
O58    O     0.18694   0.16666   0.32549   0.00000  Uiso   1.00
O59    O     0.12706   0.10654   0.24999   0.00000  Uiso   1.00
O60    O     0.20625   0.10655   0.24999   0.00000  Uiso   1.00
O61    O     0.14640   0.16667   0.17451   0.00000  Uiso   1.00
O62    O     0.22559   0.16668   0.17451   0.00000  Uiso   1.00
O63    O     0.26802   0.22346   0.30899   0.00000  Uiso   1.00
C64    C     0.50076   0.24583   0.24791   0.00000  Uiso   1.00
C65    C     0.45819   0.16254   0.40691   0.00000  Uiso   1.00
C66    C     0.54661   0.31174   0.23916   0.00000  Uiso   1.00
C67    C     0.47376   0.16717   0.35009   0.00000  Uiso   1.00
C68    C     0.54529   0.02076   0.24673   0.00000  Uiso   1.00
C69    C     0.50146   0.04260   0.25059   0.00000  Uiso   1.00
C70    C     0.45869   0.02111   0.25245   0.00000  Uiso   1.00
C71    C     0.45881   0.31212   0.25153   0.00000  Uiso   1.00
C72    C     0.50237   0.29039   0.24539   0.00000  Uiso   1.00
C73    C     0.63366   0.19467   0.27990   0.00000  Uiso   1.00
C74    C     0.35019   0.19437   0.27987   0.00000  Uiso   1.00
C75    C     0.48298   0.15650   0.48627   0.00000  Uiso   1.00
C76    C     0.36536   0.13891   0.21958   0.00000  Uiso   1.00
C77    C     0.64963   0.13969   0.21952   0.00000  Uiso   1.00
C78    C     0.50005   0.08736   0.25082   0.00000  Uiso   1.00
C79    C     0.52630   0.16745   0.14996   0.00000  Uiso   1.00
C80    C     0.59858   0.19292   0.01162   0.00000  Uiso   1.00
C81    C     0.54200   0.17063   0.09290   0.00000  Uiso   1.00
C82    C     0.41654   0.13939   0.42907   0.00000  Uiso   1.00
C83    C     0.40964   0.12231   0.47727   0.00000  Uiso   1.00
C84    C     0.44407   0.12800   0.00428   0.00000  Uiso   1.00
C85    C     0.62745   0.19126   0.08836   0.00000  Uiso   1.00
C86    C     0.48917   0.17398   0.43704   0.00000  Uiso   1.00
C87    C     0.58864   0.04007   0.25383   0.00000  Uiso   1.00
C88    C     0.44190   0.09922   0.04469   0.00000  Uiso   1.00
C89    C     0.59406   0.29131   0.22275   0.00000  Uiso   1.00
C90    C     0.51731   0.16730   0.01355   0.00000  Uiso   1.00
C91    C     0.56097   0.18800   0.48767   0.00000  Uiso   1.00
C92    C     0.56392   0.20692   0.44098   0.00000  Uiso   1.00
C93    C     0.52683   0.20213   0.41815   0.00000  Uiso   1.00
C94    C     0.50735   0.16197   0.06695   0.00000  Uiso   1.00
C95    C     0.58900   0.18417   0.06434   0.00000  Uiso   1.00
Cu96   Cu    0.45311   0.16666   0.25000   0.00000  Uiso   1.00
Cu97   Cu    0.54689   0.16667   0.25000   0.00000  Uiso   1.00
H98    H     0.42465   0.03698   0.25589   0.00000  Uiso   1.00
H99    H     0.61895   0.24219   0.32669   0.00000  Uiso   1.00
H100   H     0.42807   0.11438   0.18327   0.00000  Uiso   1.00
H101   H     0.65178   0.19901   0.44795   0.00000  Uiso   1.00
H102   H     0.42464   0.29644   0.25544   0.00000  Uiso   1.00
H103   H     0.36284   0.21636   0.30362   0.00000  Uiso   1.00
H104   H     0.63727   0.11830   0.19484   0.00000  Uiso   1.00
H105   H     0.59327   0.22761   0.42340   0.00000  Uiso   1.00
H106   H     0.47095   0.15416   0.08982   0.00000  Uiso   1.00
H107   H     0.39172   0.13103   0.40701   0.00000  Uiso   1.00
H108   H     0.37940   0.10152   0.49136   0.00000  Uiso   1.00
H109   H     0.52802   0.22037   0.38499   0.00000  Uiso   1.00
N110   N     0.38265   0.16666   0.24998   0.00000  Uiso   1.00
N111   N     0.61735   0.16669   0.24999   0.00000  Uiso   1.00
N112   N     0.65832   0.19693   0.10736   0.00000  Uiso   1.00
N113   N     0.62337   0.05457   0.26014   0.00000  Uiso   1.00
N114   N     0.44013   0.07589   0.07674   0.00000  Uiso   1.00
N115   N     0.63198   0.27540   0.20934   0.00000  Uiso   1.00
O116   O     0.46042   0.22678   0.25000   0.00000  Uiso   1.00
O117   O     0.39359   0.10851   0.18883   0.00000  Uiso   1.00
O118   O     0.64446   0.20713   0.48516   0.00000  Uiso   1.00
O119   O     0.53961   0.22679   0.25000   0.00000  Uiso   1.00
O120   O     0.44108   0.16665   0.32549   0.00000  Uiso   1.00
O121   O     0.52027   0.16666   0.32549   0.00000  Uiso   1.00
O122   O     0.46039   0.10654   0.24999   0.00000  Uiso   1.00
O123   O     0.53958   0.10655   0.24999   0.00000  Uiso   1.00
O124   O     0.47973   0.16667   0.17451   0.00000  Uiso   1.00
O125   O     0.55892   0.16668   0.17451   0.00000  Uiso   1.00
O126   O     0.60135   0.22346   0.30899   0.00000  Uiso   1.00
C127   C     0.83409   0.24583   0.24791   0.00000  Uiso   1.00
C128   C     0.79153   0.16254   0.40691   0.00000  Uiso   1.00
C129   C     0.87994   0.31174   0.23916   0.00000  Uiso   1.00
C130   C     0.80710   0.16717   0.35009   0.00000  Uiso   1.00
C131   C     0.87862   0.02076   0.24673   0.00000  Uiso   1.00
C132   C     0.83479   0.04260   0.25059   0.00000  Uiso   1.00
C133   C     0.79202   0.02111   0.25245   0.00000  Uiso   1.00
C134   C     0.79215   0.31212   0.25153   0.00000  Uiso   1.00
C135   C     0.83571   0.29039   0.24539   0.00000  Uiso   1.00
C136   C     0.96700   0.19467   0.27990   0.00000  Uiso   1.00
C137   C     0.68352   0.19437   0.27987   0.00000  Uiso   1.00
C138   C     0.81631   0.15650   0.48627   0.00000  Uiso   1.00
C139   C     0.69869   0.13891   0.21958   0.00000  Uiso   1.00
C140   C     0.98296   0.13969   0.21952   0.00000  Uiso   1.00
C141   C     0.83338   0.08736   0.25082   0.00000  Uiso   1.00
C142   C     0.85963   0.16745   0.14996   0.00000  Uiso   1.00
C143   C     0.93191   0.19292   0.01162   0.00000  Uiso   1.00
C144   C     0.87533   0.17063   0.09290   0.00000  Uiso   1.00
C145   C     0.74987   0.13939   0.42907   0.00000  Uiso   1.00
C146   C     0.74297   0.12231   0.47727   0.00000  Uiso   1.00
C147   C     0.77740   0.12800   0.00428   0.00000  Uiso   1.00
C148   C     0.96078   0.19126   0.08836   0.00000  Uiso   1.00
C149   C     0.82250   0.17398   0.43704   0.00000  Uiso   1.00
C150   C     0.92198   0.04007   0.25383   0.00000  Uiso   1.00
C151   C     0.77523   0.09922   0.04469   0.00000  Uiso   1.00
C152   C     0.92739   0.29131   0.22275   0.00000  Uiso   1.00
C153   C     0.85064   0.16730   0.01355   0.00000  Uiso   1.00
C154   C     0.89430   0.18800   0.48767   0.00000  Uiso   1.00
C155   C     0.89725   0.20692   0.44098   0.00000  Uiso   1.00
C156   C     0.86016   0.20213   0.41815   0.00000  Uiso   1.00
C157   C     0.84068   0.16197   0.06695   0.00000  Uiso   1.00
C158   C     0.92233   0.18417   0.06434   0.00000  Uiso   1.00
Cu159  Cu    0.78645   0.16666   0.25000   0.00000  Uiso   1.00
Cu160  Cu    0.88022   0.16667   0.25000   0.00000  Uiso   1.00
H161   H     0.75798   0.03698   0.25589   0.00000  Uiso   1.00
H162   H     0.95229   0.24219   0.32669   0.00000  Uiso   1.00
H163   H     0.76140   0.11438   0.18327   0.00000  Uiso   1.00
H164   H     0.98512   0.19901   0.44795   0.00000  Uiso   1.00
H165   H     0.75798   0.29644   0.25544   0.00000  Uiso   1.00
H166   H     0.69617   0.21636   0.30362   0.00000  Uiso   1.00
H167   H     0.97060   0.11830   0.19484   0.00000  Uiso   1.00
H168   H     0.92660   0.22761   0.42340   0.00000  Uiso   1.00
H169   H     0.80428   0.15416   0.08982   0.00000  Uiso   1.00
H170   H     0.72505   0.13103   0.40701   0.00000  Uiso   1.00
H171   H     0.71274   0.10152   0.49136   0.00000  Uiso   1.00
H172   H     0.86135   0.22037   0.38499   0.00000  Uiso   1.00
N173   N     0.71598   0.16666   0.24998   0.00000  Uiso   1.00
N174   N     0.95069   0.16669   0.24999   0.00000  Uiso   1.00
N175   N     0.99165   0.19693   0.10736   0.00000  Uiso   1.00
N176   N     0.95670   0.05457   0.26014   0.00000  Uiso   1.00
N177   N     0.77346   0.07589   0.07674   0.00000  Uiso   1.00
N178   N     0.96532   0.27540   0.20934   0.00000  Uiso   1.00
O179   O     0.79375   0.22678   0.25000   0.00000  Uiso   1.00
O180   O     0.72692   0.10851   0.18883   0.00000  Uiso   1.00
O181   O     0.97779   0.20713   0.48516   0.00000  Uiso   1.00
O182   O     0.87294   0.22679   0.25000   0.00000  Uiso   1.00
O183   O     0.77441   0.16665   0.32549   0.00000  Uiso   1.00
O184   O     0.85360   0.16666   0.32549   0.00000  Uiso   1.00
O185   O     0.79373   0.10654   0.24999   0.00000  Uiso   1.00
O186   O     0.87292   0.10655   0.24999   0.00000  Uiso   1.00
O187   O     0.81306   0.16667   0.17451   0.00000  Uiso   1.00
O188   O     0.89225   0.16668   0.17451   0.00000  Uiso   1.00
O189   O     0.93468   0.22346   0.30899   0.00000  Uiso   1.00
C190   C     0.16742   0.57916   0.24791   0.00000  Uiso   1.00
C191   C     0.12486   0.49587   0.40691   0.00000  Uiso   1.00
C192   C     0.21327   0.64507   0.23916   0.00000  Uiso   1.00
C193   C     0.14043   0.50051   0.35009   0.00000  Uiso   1.00
C194   C     0.21196   0.35409   0.24673   0.00000  Uiso   1.00
C195   C     0.16812   0.37594   0.25059   0.00000  Uiso   1.00
C196   C     0.12536   0.35444   0.25245   0.00000  Uiso   1.00
C197   C     0.12548   0.64546   0.25153   0.00000  Uiso   1.00
C198   C     0.16904   0.62372   0.24539   0.00000  Uiso   1.00
C199   C     0.30033   0.52801   0.27990   0.00000  Uiso   1.00
C200   C     0.01685   0.52770   0.27987   0.00000  Uiso   1.00
C201   C     0.14964   0.48984   0.48627   0.00000  Uiso   1.00
C202   C     0.03203   0.47224   0.21958   0.00000  Uiso   1.00
C203   C     0.31629   0.47302   0.21952   0.00000  Uiso   1.00
C204   C     0.16672   0.42070   0.25082   0.00000  Uiso   1.00
C205   C     0.19297   0.50078   0.14996   0.00000  Uiso   1.00
C206   C     0.26525   0.52626   0.01162   0.00000  Uiso   1.00
C207   C     0.20866   0.50397   0.09290   0.00000  Uiso   1.00
C208   C     0.08321   0.47273   0.42907   0.00000  Uiso   1.00
C209   C     0.07630   0.45565   0.47727   0.00000  Uiso   1.00
C210   C     0.11073   0.46133   0.00428   0.00000  Uiso   1.00
C211   C     0.29411   0.52459   0.08836   0.00000  Uiso   1.00
C212   C     0.15583   0.50731   0.43704   0.00000  Uiso   1.00
C213   C     0.25531   0.37340   0.25383   0.00000  Uiso   1.00
C214   C     0.10857   0.43256   0.04469   0.00000  Uiso   1.00
C215   C     0.26073   0.62465   0.22275   0.00000  Uiso   1.00
C216   C     0.18398   0.50063   0.01355   0.00000  Uiso   1.00
C217   C     0.22764   0.52134   0.48767   0.00000  Uiso   1.00
C218   C     0.23058   0.54025   0.44098   0.00000  Uiso   1.00
C219   C     0.19350   0.53547   0.41815   0.00000  Uiso   1.00
C220   C     0.17401   0.49530   0.06695   0.00000  Uiso   1.00
C221   C     0.25566   0.51750   0.06434   0.00000  Uiso   1.00
Cu222  Cu    0.11978   0.49999   0.25000   0.00000  Uiso   1.00
Cu223  Cu    0.21355   0.50001   0.25000   0.00000  Uiso   1.00
H224   H     0.09131   0.37032   0.25589   0.00000  Uiso   1.00
H225   H     0.28562   0.57552   0.32669   0.00000  Uiso   1.00
H226   H     0.09474   0.44771   0.18327   0.00000  Uiso   1.00
H227   H     0.31845   0.53234   0.44795   0.00000  Uiso   1.00
H228   H     0.09131   0.62978   0.25544   0.00000  Uiso   1.00
H229   H     0.02951   0.54969   0.30362   0.00000  Uiso   1.00
H230   H     0.30394   0.45164   0.19484   0.00000  Uiso   1.00
H231   H     0.25994   0.56095   0.42340   0.00000  Uiso   1.00
H232   H     0.13761   0.48749   0.08982   0.00000  Uiso   1.00
H233   H     0.05839   0.46436   0.40701   0.00000  Uiso   1.00
H234   H     0.04607   0.43485   0.49136   0.00000  Uiso   1.00
H235   H     0.19469   0.55370   0.38499   0.00000  Uiso   1.00
N236   N     0.04931   0.49999   0.24998   0.00000  Uiso   1.00
N237   N     0.28402   0.50002   0.24999   0.00000  Uiso   1.00
N238   N     0.32498   0.53026   0.10736   0.00000  Uiso   1.00
N239   N     0.29004   0.38791   0.26014   0.00000  Uiso   1.00
N240   N     0.10680   0.40923   0.07674   0.00000  Uiso   1.00
N241   N     0.29865   0.60874   0.20934   0.00000  Uiso   1.00
O242   O     0.12708   0.56011   0.25000   0.00000  Uiso   1.00
O243   O     0.06025   0.44185   0.18883   0.00000  Uiso   1.00
O244   O     0.31112   0.54046   0.48516   0.00000  Uiso   1.00
O245   O     0.20627   0.56012   0.25000   0.00000  Uiso   1.00
O246   O     0.10775   0.49998   0.32549   0.00000  Uiso   1.00
O247   O     0.18694   0.49999   0.32549   0.00000  Uiso   1.00
O248   O     0.12706   0.43988   0.24999   0.00000  Uiso   1.00
O249   O     0.20625   0.43989   0.24999   0.00000  Uiso   1.00
O250   O     0.14640   0.50001   0.17451   0.00000  Uiso   1.00
O251   O     0.22559   0.50002   0.17451   0.00000  Uiso   1.00
O252   O     0.26802   0.55679   0.30899   0.00000  Uiso   1.00
C253   C     0.50076   0.57916   0.24791   0.00000  Uiso   1.00
C254   C     0.45819   0.49587   0.40691   0.00000  Uiso   1.00
C255   C     0.54661   0.64507   0.23916   0.00000  Uiso   1.00
C256   C     0.47376   0.50051   0.35009   0.00000  Uiso   1.00
C257   C     0.54529   0.35409   0.24673   0.00000  Uiso   1.00
C258   C     0.50146   0.37594   0.25059   0.00000  Uiso   1.00
C259   C     0.45869   0.35444   0.25245   0.00000  Uiso   1.00
C260   C     0.45881   0.64546   0.25153   0.00000  Uiso   1.00
C261   C     0.50237   0.62372   0.24539   0.00000  Uiso   1.00
C262   C     0.63366   0.52801   0.27990   0.00000  Uiso   1.00
C263   C     0.35019   0.52770   0.27987   0.00000  Uiso   1.00
C264   C     0.48298   0.48984   0.48627   0.00000  Uiso   1.00
C265   C     0.36536   0.47224   0.21958   0.00000  Uiso   1.00
C266   C     0.64963   0.47302   0.21952   0.00000  Uiso   1.00
C267   C     0.50005   0.42070   0.25082   0.00000  Uiso   1.00
C268   C     0.52630   0.50078   0.14996   0.00000  Uiso   1.00
C269   C     0.59858   0.52626   0.01162   0.00000  Uiso   1.00
C270   C     0.54200   0.50397   0.09290   0.00000  Uiso   1.00
C271   C     0.41654   0.47273   0.42907   0.00000  Uiso   1.00
C272   C     0.40964   0.45565   0.47727   0.00000  Uiso   1.00
C273   C     0.44407   0.46133   0.00428   0.00000  Uiso   1.00
C274   C     0.62745   0.52459   0.08836   0.00000  Uiso   1.00
C275   C     0.48917   0.50731   0.43704   0.00000  Uiso   1.00
C276   C     0.58864   0.37340   0.25383   0.00000  Uiso   1.00
C277   C     0.44190   0.43256   0.04469   0.00000  Uiso   1.00
C278   C     0.59406   0.62465   0.22275   0.00000  Uiso   1.00
C279   C     0.51731   0.50063   0.01355   0.00000  Uiso   1.00
C280   C     0.56097   0.52134   0.48767   0.00000  Uiso   1.00
C281   C     0.56392   0.54025   0.44098   0.00000  Uiso   1.00
C282   C     0.52683   0.53547   0.41815   0.00000  Uiso   1.00
C283   C     0.50735   0.49530   0.06695   0.00000  Uiso   1.00
C284   C     0.58900   0.51750   0.06434   0.00000  Uiso   1.00
Cu285  Cu    0.45311   0.49999   0.25000   0.00000  Uiso   1.00
Cu286  Cu    0.54689   0.50001   0.25000   0.00000  Uiso   1.00
H287   H     0.42465   0.37032   0.25589   0.00000  Uiso   1.00
H288   H     0.61895   0.57552   0.32669   0.00000  Uiso   1.00
H289   H     0.42807   0.44771   0.18327   0.00000  Uiso   1.00
H290   H     0.65178   0.53234   0.44795   0.00000  Uiso   1.00
H291   H     0.42464   0.62978   0.25544   0.00000  Uiso   1.00
H292   H     0.36284   0.54969   0.30362   0.00000  Uiso   1.00
H293   H     0.63727   0.45164   0.19484   0.00000  Uiso   1.00
H294   H     0.59327   0.56095   0.42340   0.00000  Uiso   1.00
H295   H     0.47095   0.48749   0.08982   0.00000  Uiso   1.00
H296   H     0.39172   0.46436   0.40701   0.00000  Uiso   1.00
H297   H     0.37940   0.43485   0.49136   0.00000  Uiso   1.00
H298   H     0.52802   0.55370   0.38499   0.00000  Uiso   1.00
N299   N     0.38265   0.49999   0.24998   0.00000  Uiso   1.00
N300   N     0.61735   0.50002   0.24999   0.00000  Uiso   1.00
N301   N     0.65832   0.53026   0.10736   0.00000  Uiso   1.00
N302   N     0.62337   0.38791   0.26014   0.00000  Uiso   1.00
N303   N     0.44013   0.40923   0.07674   0.00000  Uiso   1.00
N304   N     0.63198   0.60874   0.20934   0.00000  Uiso   1.00
O305   O     0.46042   0.56011   0.25000   0.00000  Uiso   1.00
O306   O     0.39359   0.44185   0.18883   0.00000  Uiso   1.00
O307   O     0.64446   0.54046   0.48516   0.00000  Uiso   1.00
O308   O     0.53961   0.56012   0.25000   0.00000  Uiso   1.00
O309   O     0.44108   0.49998   0.32549   0.00000  Uiso   1.00
O310   O     0.52027   0.49999   0.32549   0.00000  Uiso   1.00
O311   O     0.46039   0.43988   0.24999   0.00000  Uiso   1.00
O312   O     0.53958   0.43989   0.24999   0.00000  Uiso   1.00
O313   O     0.47973   0.50001   0.17451   0.00000  Uiso   1.00
O314   O     0.55892   0.50002   0.17451   0.00000  Uiso   1.00
O315   O     0.60135   0.55679   0.30899   0.00000  Uiso   1.00
C316   C     0.83409   0.57916   0.24791   0.00000  Uiso   1.00
C317   C     0.79153   0.49587   0.40691   0.00000  Uiso   1.00
C318   C     0.87994   0.64507   0.23916   0.00000  Uiso   1.00
C319   C     0.80710   0.50051   0.35009   0.00000  Uiso   1.00
C320   C     0.87862   0.35409   0.24673   0.00000  Uiso   1.00
C321   C     0.83479   0.37594   0.25059   0.00000  Uiso   1.00
C322   C     0.79202   0.35444   0.25245   0.00000  Uiso   1.00
C323   C     0.79215   0.64546   0.25153   0.00000  Uiso   1.00
C324   C     0.83571   0.62372   0.24539   0.00000  Uiso   1.00
C325   C     0.96700   0.52801   0.27990   0.00000  Uiso   1.00
C326   C     0.68352   0.52770   0.27987   0.00000  Uiso   1.00
C327   C     0.81631   0.48984   0.48627   0.00000  Uiso   1.00
C328   C     0.69869   0.47224   0.21958   0.00000  Uiso   1.00
C329   C     0.98296   0.47302   0.21952   0.00000  Uiso   1.00
C330   C     0.83338   0.42070   0.25082   0.00000  Uiso   1.00
C331   C     0.85963   0.50078   0.14996   0.00000  Uiso   1.00
C332   C     0.93191   0.52626   0.01162   0.00000  Uiso   1.00
C333   C     0.87533   0.50397   0.09290   0.00000  Uiso   1.00
C334   C     0.74987   0.47273   0.42907   0.00000  Uiso   1.00
C335   C     0.74297   0.45565   0.47727   0.00000  Uiso   1.00
C336   C     0.77740   0.46133   0.00428   0.00000  Uiso   1.00
C337   C     0.96078   0.52459   0.08836   0.00000  Uiso   1.00
C338   C     0.82250   0.50731   0.43704   0.00000  Uiso   1.00
C339   C     0.92198   0.37340   0.25383   0.00000  Uiso   1.00
C340   C     0.77523   0.43256   0.04469   0.00000  Uiso   1.00
C341   C     0.92739   0.62465   0.22275   0.00000  Uiso   1.00
C342   C     0.85064   0.50063   0.01355   0.00000  Uiso   1.00
C343   C     0.89430   0.52134   0.48767   0.00000  Uiso   1.00
C344   C     0.89725   0.54025   0.44098   0.00000  Uiso   1.00
C345   C     0.86016   0.53547   0.41815   0.00000  Uiso   1.00
C346   C     0.84068   0.49530   0.06695   0.00000  Uiso   1.00
C347   C     0.92233   0.51750   0.06434   0.00000  Uiso   1.00
Cu348  Cu    0.78645   0.49999   0.25000   0.00000  Uiso   1.00
Cu349  Cu    0.88022   0.50001   0.25000   0.00000  Uiso   1.00
H350   H     0.75798   0.37032   0.25589   0.00000  Uiso   1.00
H351   H     0.95229   0.57552   0.32669   0.00000  Uiso   1.00
H352   H     0.76140   0.44771   0.18327   0.00000  Uiso   1.00
H353   H     0.98512   0.53234   0.44795   0.00000  Uiso   1.00
H354   H     0.75798   0.62978   0.25544   0.00000  Uiso   1.00
H355   H     0.69617   0.54969   0.30362   0.00000  Uiso   1.00
H356   H     0.97060   0.45164   0.19484   0.00000  Uiso   1.00
H357   H     0.92660   0.56095   0.42340   0.00000  Uiso   1.00
H358   H     0.80428   0.48749   0.08982   0.00000  Uiso   1.00
H359   H     0.72505   0.46436   0.40701   0.00000  Uiso   1.00
H360   H     0.71274   0.43485   0.49136   0.00000  Uiso   1.00
H361   H     0.86135   0.55370   0.38499   0.00000  Uiso   1.00
N362   N     0.71598   0.49999   0.24998   0.00000  Uiso   1.00
N363   N     0.95069   0.50002   0.24999   0.00000  Uiso   1.00
N364   N     0.99165   0.53026   0.10736   0.00000  Uiso   1.00
N365   N     0.95670   0.38791   0.26014   0.00000  Uiso   1.00
N366   N     0.77346   0.40923   0.07674   0.00000  Uiso   1.00
N367   N     0.96532   0.60874   0.20934   0.00000  Uiso   1.00
O368   O     0.79375   0.56011   0.25000   0.00000  Uiso   1.00
O369   O     0.72692   0.44185   0.18883   0.00000  Uiso   1.00
O370   O     0.97779   0.54046   0.48516   0.00000  Uiso   1.00
O371   O     0.87294   0.56012   0.25000   0.00000  Uiso   1.00
O372   O     0.77441   0.49998   0.32549   0.00000  Uiso   1.00
O373   O     0.85360   0.49999   0.32549   0.00000  Uiso   1.00
O374   O     0.79373   0.43988   0.24999   0.00000  Uiso   1.00
O375   O     0.87292   0.43989   0.24999   0.00000  Uiso   1.00
O376   O     0.81306   0.50001   0.17451   0.00000  Uiso   1.00
O377   O     0.89225   0.50002   0.17451   0.00000  Uiso   1.00
O378   O     0.93468   0.55679   0.30899   0.00000  Uiso   1.00
C379   C     0.16742   0.91250   0.24791   0.00000  Uiso   1.00
C380   C     0.12486   0.82921   0.40691   0.00000  Uiso   1.00
C381   C     0.21327   0.97841   0.23916   0.00000  Uiso   1.00
C382   C     0.14043   0.83384   0.35009   0.00000  Uiso   1.00
C383   C     0.21196   0.68742   0.24673   0.00000  Uiso   1.00
C384   C     0.16812   0.70927   0.25059   0.00000  Uiso   1.00
C385   C     0.12536   0.68778   0.25245   0.00000  Uiso   1.00
C386   C     0.12548   0.97879   0.25153   0.00000  Uiso   1.00
C387   C     0.16904   0.95705   0.24539   0.00000  Uiso   1.00
C388   C     0.30033   0.86134   0.27990   0.00000  Uiso   1.00
C389   C     0.01685   0.86103   0.27987   0.00000  Uiso   1.00
C390   C     0.14964   0.82317   0.48627   0.00000  Uiso   1.00
C391   C     0.03203   0.80557   0.21958   0.00000  Uiso   1.00
C392   C     0.31629   0.80636   0.21952   0.00000  Uiso   1.00
C393   C     0.16672   0.75403   0.25082   0.00000  Uiso   1.00
C394   C     0.19297   0.83411   0.14996   0.00000  Uiso   1.00
C395   C     0.26525   0.85959   0.01162   0.00000  Uiso   1.00
C396   C     0.20866   0.83730   0.09290   0.00000  Uiso   1.00
C397   C     0.08321   0.80606   0.42907   0.00000  Uiso   1.00
C398   C     0.07630   0.78898   0.47727   0.00000  Uiso   1.00
C399   C     0.11073   0.79466   0.00428   0.00000  Uiso   1.00
C400   C     0.29411   0.85792   0.08836   0.00000  Uiso   1.00
C401   C     0.15583   0.84064   0.43704   0.00000  Uiso   1.00
C402   C     0.25531   0.70674   0.25383   0.00000  Uiso   1.00
C403   C     0.10857   0.76589   0.04469   0.00000  Uiso   1.00
C404   C     0.26073   0.95798   0.22275   0.00000  Uiso   1.00
C405   C     0.18398   0.83397   0.01355   0.00000  Uiso   1.00
C406   C     0.22764   0.85467   0.48767   0.00000  Uiso   1.00
C407   C     0.23058   0.87359   0.44098   0.00000  Uiso   1.00
C408   C     0.19350   0.86880   0.41815   0.00000  Uiso   1.00
C409   C     0.17401   0.82864   0.06695   0.00000  Uiso   1.00
C410   C     0.25566   0.85083   0.06434   0.00000  Uiso   1.00
Cu411  Cu    0.11978   0.83333   0.25000   0.00000  Uiso   1.00
Cu412  Cu    0.21355   0.83334   0.25000   0.00000  Uiso   1.00
H413   H     0.09131   0.70365   0.25589   0.00000  Uiso   1.00
H414   H     0.28562   0.90886   0.32669   0.00000  Uiso   1.00
H415   H     0.09474   0.78105   0.18327   0.00000  Uiso   1.00
H416   H     0.31845   0.86568   0.44795   0.00000  Uiso   1.00
H417   H     0.09131   0.96311   0.25544   0.00000  Uiso   1.00
H418   H     0.02951   0.88303   0.30362   0.00000  Uiso   1.00
H419   H     0.30394   0.78497   0.19484   0.00000  Uiso   1.00
H420   H     0.25994   0.89428   0.42340   0.00000  Uiso   1.00
H421   H     0.13761   0.82083   0.08982   0.00000  Uiso   1.00
H422   H     0.05839   0.79769   0.40701   0.00000  Uiso   1.00
H423   H     0.04607   0.76818   0.49136   0.00000  Uiso   1.00
H424   H     0.19469   0.88703   0.38499   0.00000  Uiso   1.00
N425   N     0.04931   0.83332   0.24998   0.00000  Uiso   1.00
N426   N     0.28402   0.83335   0.24999   0.00000  Uiso   1.00
N427   N     0.32498   0.86360   0.10736   0.00000  Uiso   1.00
N428   N     0.29004   0.72124   0.26014   0.00000  Uiso   1.00
N429   N     0.10680   0.74256   0.07674   0.00000  Uiso   1.00
N430   N     0.29865   0.94207   0.20934   0.00000  Uiso   1.00
O431   O     0.12708   0.89345   0.25000   0.00000  Uiso   1.00
O432   O     0.06025   0.77518   0.18883   0.00000  Uiso   1.00
O433   O     0.31112   0.87379   0.48516   0.00000  Uiso   1.00
O434   O     0.20627   0.89346   0.25000   0.00000  Uiso   1.00
O435   O     0.10775   0.83332   0.32549   0.00000  Uiso   1.00
O436   O     0.18694   0.83333   0.32549   0.00000  Uiso   1.00
O437   O     0.12706   0.77321   0.24999   0.00000  Uiso   1.00
O438   O     0.20625   0.77322   0.24999   0.00000  Uiso   1.00
O439   O     0.14640   0.83334   0.17451   0.00000  Uiso   1.00
O440   O     0.22559   0.83335   0.17451   0.00000  Uiso   1.00
O441   O     0.26802   0.89013   0.30899   0.00000  Uiso   1.00
C442   C     0.50076   0.91250   0.24791   0.00000  Uiso   1.00
C443   C     0.45819   0.82921   0.40691   0.00000  Uiso   1.00
C444   C     0.54661   0.97841   0.23916   0.00000  Uiso   1.00
C445   C     0.47376   0.83384   0.35009   0.00000  Uiso   1.00
C446   C     0.54529   0.68742   0.24673   0.00000  Uiso   1.00
C447   C     0.50146   0.70927   0.25059   0.00000  Uiso   1.00
C448   C     0.45869   0.68778   0.25245   0.00000  Uiso   1.00
C449   C     0.45881   0.97879   0.25153   0.00000  Uiso   1.00
C450   C     0.50237   0.95705   0.24539   0.00000  Uiso   1.00
C451   C     0.63366   0.86134   0.27990   0.00000  Uiso   1.00
C452   C     0.35019   0.86103   0.27987   0.00000  Uiso   1.00
C453   C     0.48298   0.82317   0.48627   0.00000  Uiso   1.00
C454   C     0.36536   0.80557   0.21958   0.00000  Uiso   1.00
C455   C     0.64963   0.80636   0.21952   0.00000  Uiso   1.00
C456   C     0.50005   0.75403   0.25082   0.00000  Uiso   1.00
C457   C     0.52630   0.83411   0.14996   0.00000  Uiso   1.00
C458   C     0.59858   0.85959   0.01162   0.00000  Uiso   1.00
C459   C     0.54200   0.83730   0.09290   0.00000  Uiso   1.00
C460   C     0.41654   0.80606   0.42907   0.00000  Uiso   1.00
C461   C     0.40964   0.78898   0.47727   0.00000  Uiso   1.00
C462   C     0.44407   0.79466   0.00428   0.00000  Uiso   1.00
C463   C     0.62745   0.85792   0.08836   0.00000  Uiso   1.00
C464   C     0.48917   0.84064   0.43704   0.00000  Uiso   1.00
C465   C     0.58864   0.70674   0.25383   0.00000  Uiso   1.00
C466   C     0.44190   0.76589   0.04469   0.00000  Uiso   1.00
C467   C     0.59406   0.95798   0.22275   0.00000  Uiso   1.00
C468   C     0.51731   0.83397   0.01355   0.00000  Uiso   1.00
C469   C     0.56097   0.85467   0.48767   0.00000  Uiso   1.00
C470   C     0.56392   0.87359   0.44098   0.00000  Uiso   1.00
C471   C     0.52683   0.86880   0.41815   0.00000  Uiso   1.00
C472   C     0.50735   0.82864   0.06695   0.00000  Uiso   1.00
C473   C     0.58900   0.85083   0.06434   0.00000  Uiso   1.00
Cu474  Cu    0.45311   0.83333   0.25000   0.00000  Uiso   1.00
Cu475  Cu    0.54689   0.83334   0.25000   0.00000  Uiso   1.00
H476   H     0.42465   0.70365   0.25589   0.00000  Uiso   1.00
H477   H     0.61895   0.90886   0.32669   0.00000  Uiso   1.00
H478   H     0.42807   0.78105   0.18327   0.00000  Uiso   1.00
H479   H     0.65178   0.86568   0.44795   0.00000  Uiso   1.00
H480   H     0.42464   0.96311   0.25544   0.00000  Uiso   1.00
H481   H     0.36284   0.88303   0.30362   0.00000  Uiso   1.00
H482   H     0.63727   0.78497   0.19484   0.00000  Uiso   1.00
H483   H     0.59327   0.89428   0.42340   0.00000  Uiso   1.00
H484   H     0.47095   0.82083   0.08982   0.00000  Uiso   1.00
H485   H     0.39172   0.79769   0.40701   0.00000  Uiso   1.00
H486   H     0.37940   0.76818   0.49136   0.00000  Uiso   1.00
H487   H     0.52802   0.88703   0.38499   0.00000  Uiso   1.00
N488   N     0.38265   0.83332   0.24998   0.00000  Uiso   1.00
N489   N     0.61735   0.83335   0.24999   0.00000  Uiso   1.00
N490   N     0.65832   0.86360   0.10736   0.00000  Uiso   1.00
N491   N     0.62337   0.72124   0.26014   0.00000  Uiso   1.00
N492   N     0.44013   0.74256   0.07674   0.00000  Uiso   1.00
N493   N     0.63198   0.94207   0.20934   0.00000  Uiso   1.00
O494   O     0.46042   0.89345   0.25000   0.00000  Uiso   1.00
O495   O     0.39359   0.77518   0.18883   0.00000  Uiso   1.00
O496   O     0.64446   0.87379   0.48516   0.00000  Uiso   1.00
O497   O     0.53961   0.89346   0.25000   0.00000  Uiso   1.00
O498   O     0.44108   0.83332   0.32549   0.00000  Uiso   1.00
O499   O     0.52027   0.83333   0.32549   0.00000  Uiso   1.00
O500   O     0.46039   0.77321   0.24999   0.00000  Uiso   1.00
O501   O     0.53958   0.77322   0.24999   0.00000  Uiso   1.00
O502   O     0.47973   0.83334   0.17451   0.00000  Uiso   1.00
O503   O     0.55892   0.83335   0.17451   0.00000  Uiso   1.00
O504   O     0.60135   0.89013   0.30899   0.00000  Uiso   1.00
C505   C     0.83409   0.91250   0.24791   0.00000  Uiso   1.00
C506   C     0.79153   0.82921   0.40691   0.00000  Uiso   1.00
C507   C     0.87994   0.97841   0.23916   0.00000  Uiso   1.00
C508   C     0.80710   0.83384   0.35009   0.00000  Uiso   1.00
C509   C     0.87862   0.68742   0.24673   0.00000  Uiso   1.00
C510   C     0.83479   0.70927   0.25059   0.00000  Uiso   1.00
C511   C     0.79202   0.68778   0.25245   0.00000  Uiso   1.00
C512   C     0.79215   0.97879   0.25153   0.00000  Uiso   1.00
C513   C     0.83571   0.95705   0.24539   0.00000  Uiso   1.00
C514   C     0.96700   0.86134   0.27990   0.00000  Uiso   1.00
C515   C     0.68352   0.86103   0.27987   0.00000  Uiso   1.00
C516   C     0.81631   0.82317   0.48627   0.00000  Uiso   1.00
C517   C     0.69869   0.80557   0.21958   0.00000  Uiso   1.00
C518   C     0.98296   0.80636   0.21952   0.00000  Uiso   1.00
C519   C     0.83338   0.75403   0.25082   0.00000  Uiso   1.00
C520   C     0.85963   0.83411   0.14996   0.00000  Uiso   1.00
C521   C     0.93191   0.85959   0.01162   0.00000  Uiso   1.00
C522   C     0.87533   0.83730   0.09290   0.00000  Uiso   1.00
C523   C     0.74987   0.80606   0.42907   0.00000  Uiso   1.00
C524   C     0.74297   0.78898   0.47727   0.00000  Uiso   1.00
C525   C     0.77740   0.79466   0.00428   0.00000  Uiso   1.00
C526   C     0.96078   0.85792   0.08836   0.00000  Uiso   1.00
C527   C     0.82250   0.84064   0.43704   0.00000  Uiso   1.00
C528   C     0.92198   0.70674   0.25383   0.00000  Uiso   1.00
C529   C     0.77523   0.76589   0.04469   0.00000  Uiso   1.00
C530   C     0.92739   0.95798   0.22275   0.00000  Uiso   1.00
C531   C     0.85064   0.83397   0.01355   0.00000  Uiso   1.00
C532   C     0.89430   0.85467   0.48767   0.00000  Uiso   1.00
C533   C     0.89725   0.87359   0.44098   0.00000  Uiso   1.00
C534   C     0.86016   0.86880   0.41815   0.00000  Uiso   1.00
C535   C     0.84068   0.82864   0.06695   0.00000  Uiso   1.00
C536   C     0.92233   0.85083   0.06434   0.00000  Uiso   1.00
Cu537  Cu    0.78645   0.83333   0.25000   0.00000  Uiso   1.00
Cu538  Cu    0.88022   0.83334   0.25000   0.00000  Uiso   1.00
H539   H     0.75798   0.70365   0.25589   0.00000  Uiso   1.00
H540   H     0.95229   0.90886   0.32669   0.00000  Uiso   1.00
H541   H     0.76140   0.78105   0.18327   0.00000  Uiso   1.00
H542   H     0.98512   0.86568   0.44795   0.00000  Uiso   1.00
H543   H     0.75798   0.96311   0.25544   0.00000  Uiso   1.00
H544   H     0.69617   0.88303   0.30362   0.00000  Uiso   1.00
H545   H     0.97060   0.78497   0.19484   0.00000  Uiso   1.00
H546   H     0.92660   0.89428   0.42340   0.00000  Uiso   1.00
H547   H     0.80428   0.82083   0.08982   0.00000  Uiso   1.00
H548   H     0.72505   0.79769   0.40701   0.00000  Uiso   1.00
H549   H     0.71274   0.76818   0.49136   0.00000  Uiso   1.00
H550   H     0.86135   0.88703   0.38499   0.00000  Uiso   1.00
N551   N     0.71598   0.83332   0.24998   0.00000  Uiso   1.00
N552   N     0.95069   0.83335   0.24999   0.00000  Uiso   1.00
N553   N     0.99165   0.86360   0.10736   0.00000  Uiso   1.00
N554   N     0.95670   0.72124   0.26014   0.00000  Uiso   1.00
N555   N     0.77346   0.74256   0.07674   0.00000  Uiso   1.00
N556   N     0.96532   0.94207   0.20934   0.00000  Uiso   1.00
O557   O     0.79375   0.89345   0.25000   0.00000  Uiso   1.00
O558   O     0.72692   0.77518   0.18883   0.00000  Uiso   1.00
O559   O     0.97779   0.87379   0.48516   0.00000  Uiso   1.00
O560   O     0.87294   0.89346   0.25000   0.00000  Uiso   1.00
O561   O     0.77441   0.83332   0.32549   0.00000  Uiso   1.00
O562   O     0.85360   0.83333   0.32549   0.00000  Uiso   1.00
O563   O     0.79373   0.77321   0.24999   0.00000  Uiso   1.00
O564   O     0.87292   0.77322   0.24999   0.00000  Uiso   1.00
O565   O     0.81306   0.83334   0.17451   0.00000  Uiso   1.00
O566   O     0.89225   0.83335   0.17451   0.00000  Uiso   1.00
O567   O     0.93468   0.89013   0.30899   0.00000  Uiso   1.00
C568   C     0.16742   0.24583   0.74791   0.00000  Uiso   1.00
C569   C     0.12486   0.16254   0.90691   0.00000  Uiso   1.00
C570   C     0.21327   0.31174   0.73916   0.00000  Uiso   1.00
C571   C     0.14043   0.16717   0.85009   0.00000  Uiso   1.00
C572   C     0.21196   0.02076   0.74673   0.00000  Uiso   1.00
C573   C     0.16812   0.04260   0.75059   0.00000  Uiso   1.00
C574   C     0.12536   0.02111   0.75245   0.00000  Uiso   1.00
C575   C     0.12548   0.31212   0.75153   0.00000  Uiso   1.00
C576   C     0.16904   0.29039   0.74539   0.00000  Uiso   1.00
C577   C     0.30033   0.19467   0.77990   0.00000  Uiso   1.00
C578   C     0.01685   0.19437   0.77987   0.00000  Uiso   1.00
C579   C     0.14964   0.15650   0.98627   0.00000  Uiso   1.00
C580   C     0.03203   0.13891   0.71958   0.00000  Uiso   1.00
C581   C     0.31629   0.13969   0.71952   0.00000  Uiso   1.00
C582   C     0.16672   0.08736   0.75082   0.00000  Uiso   1.00
C583   C     0.19297   0.16745   0.64996   0.00000  Uiso   1.00
C584   C     0.26525   0.19292   0.51162   0.00000  Uiso   1.00
C585   C     0.20866   0.17063   0.59290   0.00000  Uiso   1.00
C586   C     0.08321   0.13939   0.92907   0.00000  Uiso   1.00
C587   C     0.07630   0.12231   0.97727   0.00000  Uiso   1.00
C588   C     0.11073   0.12800   0.50428   0.00000  Uiso   1.00
C589   C     0.29411   0.19126   0.58836   0.00000  Uiso   1.00
C590   C     0.15583   0.17398   0.93704   0.00000  Uiso   1.00
C591   C     0.25531   0.04007   0.75383   0.00000  Uiso   1.00
C592   C     0.10857   0.09922   0.54469   0.00000  Uiso   1.00
C593   C     0.26073   0.29131   0.72275   0.00000  Uiso   1.00
C594   C     0.18398   0.16730   0.51355   0.00000  Uiso   1.00
C595   C     0.22764   0.18800   0.98767   0.00000  Uiso   1.00
C596   C     0.23058   0.20692   0.94098   0.00000  Uiso   1.00
C597   C     0.19350   0.20213   0.91815   0.00000  Uiso   1.00
C598   C     0.17401   0.16197   0.56695   0.00000  Uiso   1.00
C599   C     0.25566   0.18417   0.56434   0.00000  Uiso   1.00
Cu600  Cu    0.11978   0.16666   0.75000   0.00000  Uiso   1.00
Cu601  Cu    0.21355   0.16667   0.75000   0.00000  Uiso   1.00
H602   H     0.09131   0.03698   0.75589   0.00000  Uiso   1.00
H603   H     0.28562   0.24219   0.82669   0.00000  Uiso   1.00
H604   H     0.09474   0.11438   0.68327   0.00000  Uiso   1.00
H605   H     0.31845   0.19901   0.94795   0.00000  Uiso   1.00
H606   H     0.09131   0.29644   0.75544   0.00000  Uiso   1.00
H607   H     0.02951   0.21636   0.80362   0.00000  Uiso   1.00
H608   H     0.30394   0.11830   0.69484   0.00000  Uiso   1.00
H609   H     0.25994   0.22761   0.92340   0.00000  Uiso   1.00
H610   H     0.13761   0.15416   0.58982   0.00000  Uiso   1.00
H611   H     0.05839   0.13103   0.90701   0.00000  Uiso   1.00
H612   H     0.04607   0.10152   0.99136   0.00000  Uiso   1.00
H613   H     0.19469   0.22037   0.88499   0.00000  Uiso   1.00
N614   N     0.04931   0.16666   0.74998   0.00000  Uiso   1.00
N615   N     0.28402   0.16669   0.74999   0.00000  Uiso   1.00
N616   N     0.32498   0.19693   0.60736   0.00000  Uiso   1.00
N617   N     0.29004   0.05457   0.76014   0.00000  Uiso   1.00
N618   N     0.10680   0.07589   0.57674   0.00000  Uiso   1.00
N619   N     0.29865   0.27540   0.70934   0.00000  Uiso   1.00
O620   O     0.12708   0.22678   0.75000   0.00000  Uiso   1.00
O621   O     0.06025   0.10851   0.68883   0.00000  Uiso   1.00
O622   O     0.31112   0.20713   0.98516   0.00000  Uiso   1.00
O623   O     0.20627   0.22679   0.75000   0.00000  Uiso   1.00
O624   O     0.10775   0.16665   0.82549   0.00000  Uiso   1.00
O625   O     0.18694   0.16666   0.82549   0.00000  Uiso   1.00
O626   O     0.12706   0.10654   0.74999   0.00000  Uiso   1.00
O627   O     0.20625   0.10655   0.74999   0.00000  Uiso   1.00
O628   O     0.14640   0.16667   0.67451   0.00000  Uiso   1.00
O629   O     0.22559   0.16668   0.67451   0.00000  Uiso   1.00
O630   O     0.26802   0.22346   0.80899   0.00000  Uiso   1.00
C631   C     0.50076   0.24583   0.74791   0.00000  Uiso   1.00
C632   C     0.45819   0.16254   0.90691   0.00000  Uiso   1.00
C633   C     0.54661   0.31174   0.73916   0.00000  Uiso   1.00
C634   C     0.47376   0.16717   0.85009   0.00000  Uiso   1.00
C635   C     0.54529   0.02076   0.74673   0.00000  Uiso   1.00
C636   C     0.50146   0.04260   0.75059   0.00000  Uiso   1.00
C637   C     0.45869   0.02111   0.75245   0.00000  Uiso   1.00
C638   C     0.45881   0.31212   0.75153   0.00000  Uiso   1.00
C639   C     0.50237   0.29039   0.74539   0.00000  Uiso   1.00
C640   C     0.63366   0.19467   0.77990   0.00000  Uiso   1.00
C641   C     0.35019   0.19437   0.77987   0.00000  Uiso   1.00
C642   C     0.48298   0.15650   0.98627   0.00000  Uiso   1.00
C643   C     0.36536   0.13891   0.71958   0.00000  Uiso   1.00
C644   C     0.64963   0.13969   0.71952   0.00000  Uiso   1.00
C645   C     0.50005   0.08736   0.75082   0.00000  Uiso   1.00
C646   C     0.52630   0.16745   0.64996   0.00000  Uiso   1.00
C647   C     0.59858   0.19292   0.51162   0.00000  Uiso   1.00
C648   C     0.54200   0.17063   0.59290   0.00000  Uiso   1.00
C649   C     0.41654   0.13939   0.92907   0.00000  Uiso   1.00
C650   C     0.40964   0.12231   0.97727   0.00000  Uiso   1.00
C651   C     0.44407   0.12800   0.50428   0.00000  Uiso   1.00
C652   C     0.62745   0.19126   0.58836   0.00000  Uiso   1.00
C653   C     0.48917   0.17398   0.93704   0.00000  Uiso   1.00
C654   C     0.58864   0.04007   0.75383   0.00000  Uiso   1.00
C655   C     0.44190   0.09922   0.54469   0.00000  Uiso   1.00
C656   C     0.59406   0.29131   0.72275   0.00000  Uiso   1.00
C657   C     0.51731   0.16730   0.51355   0.00000  Uiso   1.00
C658   C     0.56097   0.18800   0.98767   0.00000  Uiso   1.00
C659   C     0.56392   0.20692   0.94098   0.00000  Uiso   1.00
C660   C     0.52683   0.20213   0.91815   0.00000  Uiso   1.00
C661   C     0.50735   0.16197   0.56695   0.00000  Uiso   1.00
C662   C     0.58900   0.18417   0.56434   0.00000  Uiso   1.00
Cu663  Cu    0.45311   0.16666   0.75000   0.00000  Uiso   1.00
Cu664  Cu    0.54689   0.16667   0.75000   0.00000  Uiso   1.00
H665   H     0.42465   0.03698   0.75589   0.00000  Uiso   1.00
H666   H     0.61895   0.24219   0.82669   0.00000  Uiso   1.00
H667   H     0.42807   0.11438   0.68327   0.00000  Uiso   1.00
H668   H     0.65178   0.19901   0.94795   0.00000  Uiso   1.00
H669   H     0.42464   0.29644   0.75544   0.00000  Uiso   1.00
H670   H     0.36284   0.21636   0.80362   0.00000  Uiso   1.00
H671   H     0.63727   0.11830   0.69484   0.00000  Uiso   1.00
H672   H     0.59327   0.22761   0.92340   0.00000  Uiso   1.00
H673   H     0.47095   0.15416   0.58982   0.00000  Uiso   1.00
H674   H     0.39172   0.13103   0.90701   0.00000  Uiso   1.00
H675   H     0.37940   0.10152   0.99136   0.00000  Uiso   1.00
H676   H     0.52802   0.22037   0.88499   0.00000  Uiso   1.00
N677   N     0.38265   0.16666   0.74998   0.00000  Uiso   1.00
N678   N     0.61735   0.16669   0.74999   0.00000  Uiso   1.00
N679   N     0.65832   0.19693   0.60736   0.00000  Uiso   1.00
N680   N     0.62337   0.05457   0.76014   0.00000  Uiso   1.00
N681   N     0.44013   0.07589   0.57674   0.00000  Uiso   1.00
N682   N     0.63198   0.27540   0.70934   0.00000  Uiso   1.00
O683   O     0.46042   0.22678   0.75000   0.00000  Uiso   1.00
O684   O     0.39359   0.10851   0.68883   0.00000  Uiso   1.00
O685   O     0.64446   0.20713   0.98516   0.00000  Uiso   1.00
O686   O     0.53961   0.22679   0.75000   0.00000  Uiso   1.00
O687   O     0.44108   0.16665   0.82549   0.00000  Uiso   1.00
O688   O     0.52027   0.16666   0.82549   0.00000  Uiso   1.00
O689   O     0.46039   0.10654   0.74999   0.00000  Uiso   1.00
O690   O     0.53958   0.10655   0.74999   0.00000  Uiso   1.00
O691   O     0.47973   0.16667   0.67451   0.00000  Uiso   1.00
O692   O     0.55892   0.16668   0.67451   0.00000  Uiso   1.00
O693   O     0.60135   0.22346   0.80899   0.00000  Uiso   1.00
C694   C     0.83409   0.24583   0.74791   0.00000  Uiso   1.00
C695   C     0.79153   0.16254   0.90691   0.00000  Uiso   1.00
C696   C     0.87994   0.31174   0.73916   0.00000  Uiso   1.00
C697   C     0.80710   0.16717   0.85009   0.00000  Uiso   1.00
C698   C     0.87862   0.02076   0.74673   0.00000  Uiso   1.00
C699   C     0.83479   0.04260   0.75059   0.00000  Uiso   1.00
C700   C     0.79202   0.02111   0.75245   0.00000  Uiso   1.00
C701   C     0.79215   0.31212   0.75153   0.00000  Uiso   1.00
C702   C     0.83571   0.29039   0.74539   0.00000  Uiso   1.00
C703   C     0.96700   0.19467   0.77990   0.00000  Uiso   1.00
C704   C     0.68352   0.19437   0.77987   0.00000  Uiso   1.00
C705   C     0.81631   0.15650   0.98627   0.00000  Uiso   1.00
C706   C     0.69869   0.13891   0.71958   0.00000  Uiso   1.00
C707   C     0.98296   0.13969   0.71952   0.00000  Uiso   1.00
C708   C     0.83338   0.08736   0.75082   0.00000  Uiso   1.00
C709   C     0.85963   0.16745   0.64996   0.00000  Uiso   1.00
C710   C     0.93191   0.19292   0.51162   0.00000  Uiso   1.00
C711   C     0.87533   0.17063   0.59290   0.00000  Uiso   1.00
C712   C     0.74987   0.13939   0.92907   0.00000  Uiso   1.00
C713   C     0.74297   0.12231   0.97727   0.00000  Uiso   1.00
C714   C     0.77740   0.12800   0.50428   0.00000  Uiso   1.00
C715   C     0.96078   0.19126   0.58836   0.00000  Uiso   1.00
C716   C     0.82250   0.17398   0.93704   0.00000  Uiso   1.00
C717   C     0.92198   0.04007   0.75383   0.00000  Uiso   1.00
C718   C     0.77523   0.09922   0.54469   0.00000  Uiso   1.00
C719   C     0.92739   0.29131   0.72275   0.00000  Uiso   1.00
C720   C     0.85064   0.16730   0.51355   0.00000  Uiso   1.00
C721   C     0.89430   0.18800   0.98767   0.00000  Uiso   1.00
C722   C     0.89725   0.20692   0.94098   0.00000  Uiso   1.00
C723   C     0.86016   0.20213   0.91815   0.00000  Uiso   1.00
C724   C     0.84068   0.16197   0.56695   0.00000  Uiso   1.00
C725   C     0.92233   0.18417   0.56434   0.00000  Uiso   1.00
Cu726  Cu    0.78645   0.16666   0.75000   0.00000  Uiso   1.00
Cu727  Cu    0.88022   0.16667   0.75000   0.00000  Uiso   1.00
H728   H     0.75798   0.03698   0.75589   0.00000  Uiso   1.00
H729   H     0.95229   0.24219   0.82669   0.00000  Uiso   1.00
H730   H     0.76140   0.11438   0.68327   0.00000  Uiso   1.00
H731   H     0.98512   0.19901   0.94795   0.00000  Uiso   1.00
H732   H     0.75798   0.29644   0.75544   0.00000  Uiso   1.00
H733   H     0.69617   0.21636   0.80362   0.00000  Uiso   1.00
H734   H     0.97060   0.11830   0.69484   0.00000  Uiso   1.00
H735   H     0.92660   0.22761   0.92340   0.00000  Uiso   1.00
H736   H     0.80428   0.15416   0.58982   0.00000  Uiso   1.00
H737   H     0.72505   0.13103   0.90701   0.00000  Uiso   1.00
H738   H     0.71274   0.10152   0.99136   0.00000  Uiso   1.00
H739   H     0.86135   0.22037   0.88499   0.00000  Uiso   1.00
N740   N     0.71598   0.16666   0.74998   0.00000  Uiso   1.00
N741   N     0.95069   0.16669   0.74999   0.00000  Uiso   1.00
N742   N     0.99165   0.19693   0.60736   0.00000  Uiso   1.00
N743   N     0.95670   0.05457   0.76014   0.00000  Uiso   1.00
N744   N     0.77346   0.07589   0.57674   0.00000  Uiso   1.00
N745   N     0.96532   0.27540   0.70934   0.00000  Uiso   1.00
O746   O     0.79375   0.22678   0.75000   0.00000  Uiso   1.00
O747   O     0.72692   0.10851   0.68883   0.00000  Uiso   1.00
O748   O     0.97779   0.20713   0.98516   0.00000  Uiso   1.00
O749   O     0.87294   0.22679   0.75000   0.00000  Uiso   1.00
O750   O     0.77441   0.16665   0.82549   0.00000  Uiso   1.00
O751   O     0.85360   0.16666   0.82549   0.00000  Uiso   1.00
O752   O     0.79373   0.10654   0.74999   0.00000  Uiso   1.00
O753   O     0.87292   0.10655   0.74999   0.00000  Uiso   1.00
O754   O     0.81306   0.16667   0.67451   0.00000  Uiso   1.00
O755   O     0.89225   0.16668   0.67451   0.00000  Uiso   1.00
O756   O     0.93468   0.22346   0.80899   0.00000  Uiso   1.00
C757   C     0.16742   0.57916   0.74791   0.00000  Uiso   1.00
C758   C     0.12486   0.49587   0.90691   0.00000  Uiso   1.00
C759   C     0.21327   0.64507   0.73916   0.00000  Uiso   1.00
C760   C     0.14043   0.50051   0.85009   0.00000  Uiso   1.00
C761   C     0.21196   0.35409   0.74673   0.00000  Uiso   1.00
C762   C     0.16812   0.37594   0.75059   0.00000  Uiso   1.00
C763   C     0.12536   0.35444   0.75245   0.00000  Uiso   1.00
C764   C     0.12548   0.64546   0.75153   0.00000  Uiso   1.00
C765   C     0.16904   0.62372   0.74539   0.00000  Uiso   1.00
C766   C     0.30033   0.52801   0.77990   0.00000  Uiso   1.00
C767   C     0.01685   0.52770   0.77987   0.00000  Uiso   1.00
C768   C     0.14964   0.48984   0.98627   0.00000  Uiso   1.00
C769   C     0.03203   0.47224   0.71958   0.00000  Uiso   1.00
C770   C     0.31629   0.47302   0.71952   0.00000  Uiso   1.00
C771   C     0.16672   0.42070   0.75082   0.00000  Uiso   1.00
C772   C     0.19297   0.50078   0.64996   0.00000  Uiso   1.00
C773   C     0.26525   0.52626   0.51162   0.00000  Uiso   1.00
C774   C     0.20866   0.50397   0.59290   0.00000  Uiso   1.00
C775   C     0.08321   0.47273   0.92907   0.00000  Uiso   1.00
C776   C     0.07630   0.45565   0.97727   0.00000  Uiso   1.00
C777   C     0.11073   0.46133   0.50428   0.00000  Uiso   1.00
C778   C     0.29411   0.52459   0.58836   0.00000  Uiso   1.00
C779   C     0.15583   0.50731   0.93704   0.00000  Uiso   1.00
C780   C     0.25531   0.37340   0.75383   0.00000  Uiso   1.00
C781   C     0.10857   0.43256   0.54469   0.00000  Uiso   1.00
C782   C     0.26073   0.62465   0.72275   0.00000  Uiso   1.00
C783   C     0.18398   0.50063   0.51355   0.00000  Uiso   1.00
C784   C     0.22764   0.52134   0.98767   0.00000  Uiso   1.00
C785   C     0.23058   0.54025   0.94098   0.00000  Uiso   1.00
C786   C     0.19350   0.53547   0.91815   0.00000  Uiso   1.00
C787   C     0.17401   0.49530   0.56695   0.00000  Uiso   1.00
C788   C     0.25566   0.51750   0.56434   0.00000  Uiso   1.00
Cu789  Cu    0.11978   0.49999   0.75000   0.00000  Uiso   1.00
Cu790  Cu    0.21355   0.50001   0.75000   0.00000  Uiso   1.00
H791   H     0.09131   0.37032   0.75589   0.00000  Uiso   1.00
H792   H     0.28562   0.57552   0.82669   0.00000  Uiso   1.00
H793   H     0.09474   0.44771   0.68327   0.00000  Uiso   1.00
H794   H     0.31845   0.53234   0.94795   0.00000  Uiso   1.00
H795   H     0.09131   0.62978   0.75544   0.00000  Uiso   1.00
H796   H     0.02951   0.54969   0.80362   0.00000  Uiso   1.00
H797   H     0.30394   0.45164   0.69484   0.00000  Uiso   1.00
H798   H     0.25994   0.56095   0.92340   0.00000  Uiso   1.00
H799   H     0.13761   0.48749   0.58982   0.00000  Uiso   1.00
H800   H     0.05839   0.46436   0.90701   0.00000  Uiso   1.00
H801   H     0.04607   0.43485   0.99136   0.00000  Uiso   1.00
H802   H     0.19469   0.55370   0.88499   0.00000  Uiso   1.00
N803   N     0.04931   0.49999   0.74998   0.00000  Uiso   1.00
N804   N     0.28402   0.50002   0.74999   0.00000  Uiso   1.00
N805   N     0.32498   0.53026   0.60736   0.00000  Uiso   1.00
N806   N     0.29004   0.38791   0.76014   0.00000  Uiso   1.00
N807   N     0.10680   0.40923   0.57674   0.00000  Uiso   1.00
N808   N     0.29865   0.60874   0.70934   0.00000  Uiso   1.00
O809   O     0.12708   0.56011   0.75000   0.00000  Uiso   1.00
O810   O     0.06025   0.44185   0.68883   0.00000  Uiso   1.00
O811   O     0.31112   0.54046   0.98516   0.00000  Uiso   1.00
O812   O     0.20627   0.56012   0.75000   0.00000  Uiso   1.00
O813   O     0.10775   0.49998   0.82549   0.00000  Uiso   1.00
O814   O     0.18694   0.49999   0.82549   0.00000  Uiso   1.00
O815   O     0.12706   0.43988   0.74999   0.00000  Uiso   1.00
O816   O     0.20625   0.43989   0.74999   0.00000  Uiso   1.00
O817   O     0.14640   0.50001   0.67451   0.00000  Uiso   1.00
O818   O     0.22559   0.50002   0.67451   0.00000  Uiso   1.00
O819   O     0.26802   0.55679   0.80899   0.00000  Uiso   1.00
C820   C     0.50076   0.57916   0.74791   0.00000  Uiso   1.00
C821   C     0.45819   0.49587   0.90691   0.00000  Uiso   1.00
C822   C     0.54661   0.64507   0.73916   0.00000  Uiso   1.00
C823   C     0.47376   0.50051   0.85009   0.00000  Uiso   1.00
C824   C     0.54529   0.35409   0.74673   0.00000  Uiso   1.00
C825   C     0.50146   0.37594   0.75059   0.00000  Uiso   1.00
C826   C     0.45869   0.35444   0.75245   0.00000  Uiso   1.00
C827   C     0.45881   0.64546   0.75153   0.00000  Uiso   1.00
C828   C     0.50237   0.62372   0.74539   0.00000  Uiso   1.00
C829   C     0.63366   0.52801   0.77990   0.00000  Uiso   1.00
C830   C     0.35019   0.52770   0.77987   0.00000  Uiso   1.00
C831   C     0.48298   0.48984   0.98627   0.00000  Uiso   1.00
C832   C     0.36536   0.47224   0.71958   0.00000  Uiso   1.00
C833   C     0.64963   0.47302   0.71952   0.00000  Uiso   1.00
C834   C     0.50005   0.42070   0.75082   0.00000  Uiso   1.00
C835   C     0.52630   0.50078   0.64996   0.00000  Uiso   1.00
C836   C     0.59858   0.52626   0.51162   0.00000  Uiso   1.00
C837   C     0.54200   0.50397   0.59290   0.00000  Uiso   1.00
C838   C     0.41654   0.47273   0.92907   0.00000  Uiso   1.00
C839   C     0.40964   0.45565   0.97727   0.00000  Uiso   1.00
C840   C     0.44407   0.46133   0.50428   0.00000  Uiso   1.00
C841   C     0.62745   0.52459   0.58836   0.00000  Uiso   1.00
C842   C     0.48917   0.50731   0.93704   0.00000  Uiso   1.00
C843   C     0.58864   0.37340   0.75383   0.00000  Uiso   1.00
C844   C     0.44190   0.43256   0.54469   0.00000  Uiso   1.00
C845   C     0.59406   0.62465   0.72275   0.00000  Uiso   1.00
C846   C     0.51731   0.50063   0.51355   0.00000  Uiso   1.00
C847   C     0.56097   0.52134   0.98767   0.00000  Uiso   1.00
C848   C     0.56392   0.54025   0.94098   0.00000  Uiso   1.00
C849   C     0.52683   0.53547   0.91815   0.00000  Uiso   1.00
C850   C     0.50735   0.49530   0.56695   0.00000  Uiso   1.00
C851   C     0.58900   0.51750   0.56434   0.00000  Uiso   1.00
Cu852  Cu    0.45311   0.49999   0.75000   0.00000  Uiso   1.00
Cu853  Cu    0.54689   0.50001   0.75000   0.00000  Uiso   1.00
H854   H     0.42465   0.37032   0.75589   0.00000  Uiso   1.00
H855   H     0.61895   0.57552   0.82669   0.00000  Uiso   1.00
H856   H     0.42807   0.44771   0.68327   0.00000  Uiso   1.00
H857   H     0.65178   0.53234   0.94795   0.00000  Uiso   1.00
H858   H     0.42464   0.62978   0.75544   0.00000  Uiso   1.00
H859   H     0.36284   0.54969   0.80362   0.00000  Uiso   1.00
H860   H     0.63727   0.45164   0.69484   0.00000  Uiso   1.00
H861   H     0.59327   0.56095   0.92340   0.00000  Uiso   1.00
H862   H     0.47095   0.48749   0.58982   0.00000  Uiso   1.00
H863   H     0.39172   0.46436   0.90701   0.00000  Uiso   1.00
H864   H     0.37940   0.43485   0.99136   0.00000  Uiso   1.00
H865   H     0.52802   0.55370   0.88499   0.00000  Uiso   1.00
N866   N     0.38265   0.49999   0.74998   0.00000  Uiso   1.00
N867   N     0.61735   0.50002   0.74999   0.00000  Uiso   1.00
N868   N     0.65832   0.53026   0.60736   0.00000  Uiso   1.00
N869   N     0.62337   0.38791   0.76014   0.00000  Uiso   1.00
N870   N     0.44013   0.40923   0.57674   0.00000  Uiso   1.00
N871   N     0.63198   0.60874   0.70934   0.00000  Uiso   1.00
O872   O     0.46042   0.56011   0.75000   0.00000  Uiso   1.00
O873   O     0.39359   0.44185   0.68883   0.00000  Uiso   1.00
O874   O     0.64446   0.54046   0.98516   0.00000  Uiso   1.00
O875   O     0.53961   0.56012   0.75000   0.00000  Uiso   1.00
O876   O     0.44108   0.49998   0.82549   0.00000  Uiso   1.00
O877   O     0.52027   0.49999   0.82549   0.00000  Uiso   1.00
O878   O     0.46039   0.43988   0.74999   0.00000  Uiso   1.00
O879   O     0.53958   0.43989   0.74999   0.00000  Uiso   1.00
O880   O     0.47973   0.50001   0.67451   0.00000  Uiso   1.00
O881   O     0.55892   0.50002   0.67451   0.00000  Uiso   1.00
O882   O     0.60135   0.55679   0.80899   0.00000  Uiso   1.00
C883   C     0.83409   0.57916   0.74791   0.00000  Uiso   1.00
C884   C     0.79153   0.49587   0.90691   0.00000  Uiso   1.00
C885   C     0.87994   0.64507   0.73916   0.00000  Uiso   1.00
C886   C     0.80710   0.50051   0.85009   0.00000  Uiso   1.00
C887   C     0.87862   0.35409   0.74673   0.00000  Uiso   1.00
C888   C     0.83479   0.37594   0.75059   0.00000  Uiso   1.00
C889   C     0.79202   0.35444   0.75245   0.00000  Uiso   1.00
C890   C     0.79215   0.64546   0.75153   0.00000  Uiso   1.00
C891   C     0.83571   0.62372   0.74539   0.00000  Uiso   1.00
C892   C     0.96700   0.52801   0.77990   0.00000  Uiso   1.00
C893   C     0.68352   0.52770   0.77987   0.00000  Uiso   1.00
C894   C     0.81631   0.48984   0.98627   0.00000  Uiso   1.00
C895   C     0.69869   0.47224   0.71958   0.00000  Uiso   1.00
C896   C     0.98296   0.47302   0.71952   0.00000  Uiso   1.00
C897   C     0.83338   0.42070   0.75082   0.00000  Uiso   1.00
C898   C     0.85963   0.50078   0.64996   0.00000  Uiso   1.00
C899   C     0.93191   0.52626   0.51162   0.00000  Uiso   1.00
C900   C     0.87533   0.50397   0.59290   0.00000  Uiso   1.00
C901   C     0.74987   0.47273   0.92907   0.00000  Uiso   1.00
C902   C     0.74297   0.45565   0.97727   0.00000  Uiso   1.00
C903   C     0.77740   0.46133   0.50428   0.00000  Uiso   1.00
C904   C     0.96078   0.52459   0.58836   0.00000  Uiso   1.00
C905   C     0.82250   0.50731   0.93704   0.00000  Uiso   1.00
C906   C     0.92198   0.37340   0.75383   0.00000  Uiso   1.00
C907   C     0.77523   0.43256   0.54469   0.00000  Uiso   1.00
C908   C     0.92739   0.62465   0.72275   0.00000  Uiso   1.00
C909   C     0.85064   0.50063   0.51355   0.00000  Uiso   1.00
C910   C     0.89430   0.52134   0.98767   0.00000  Uiso   1.00
C911   C     0.89725   0.54025   0.94098   0.00000  Uiso   1.00
C912   C     0.86016   0.53547   0.91815   0.00000  Uiso   1.00
C913   C     0.84068   0.49530   0.56695   0.00000  Uiso   1.00
C914   C     0.92233   0.51750   0.56434   0.00000  Uiso   1.00
Cu915  Cu    0.78645   0.49999   0.75000   0.00000  Uiso   1.00
Cu916  Cu    0.88022   0.50001   0.75000   0.00000  Uiso   1.00
H917   H     0.75798   0.37032   0.75589   0.00000  Uiso   1.00
H918   H     0.95229   0.57552   0.82669   0.00000  Uiso   1.00
H919   H     0.76140   0.44771   0.68327   0.00000  Uiso   1.00
H920   H     0.98512   0.53234   0.94795   0.00000  Uiso   1.00
H921   H     0.75798   0.62978   0.75544   0.00000  Uiso   1.00
H922   H     0.69617   0.54969   0.80362   0.00000  Uiso   1.00
H923   H     0.97060   0.45164   0.69484   0.00000  Uiso   1.00
H924   H     0.92660   0.56095   0.92340   0.00000  Uiso   1.00
H925   H     0.80428   0.48749   0.58982   0.00000  Uiso   1.00
H926   H     0.72505   0.46436   0.90701   0.00000  Uiso   1.00
H927   H     0.71274   0.43485   0.99136   0.00000  Uiso   1.00
H928   H     0.86135   0.55370   0.88499   0.00000  Uiso   1.00
N929   N     0.71598   0.49999   0.74998   0.00000  Uiso   1.00
N930   N     0.95069   0.50002   0.74999   0.00000  Uiso   1.00
N931   N     0.99165   0.53026   0.60736   0.00000  Uiso   1.00
N932   N     0.95670   0.38791   0.76014   0.00000  Uiso   1.00
N933   N     0.77346   0.40923   0.57674   0.00000  Uiso   1.00
N934   N     0.96532   0.60874   0.70934   0.00000  Uiso   1.00
O935   O     0.79375   0.56011   0.75000   0.00000  Uiso   1.00
O936   O     0.72692   0.44185   0.68883   0.00000  Uiso   1.00
O937   O     0.97779   0.54046   0.98516   0.00000  Uiso   1.00
O938   O     0.87294   0.56012   0.75000   0.00000  Uiso   1.00
O939   O     0.77441   0.49998   0.82549   0.00000  Uiso   1.00
O940   O     0.85360   0.49999   0.82549   0.00000  Uiso   1.00
O941   O     0.79373   0.43988   0.74999   0.00000  Uiso   1.00
O942   O     0.87292   0.43989   0.74999   0.00000  Uiso   1.00
O943   O     0.81306   0.50001   0.67451   0.00000  Uiso   1.00
O944   O     0.89225   0.50002   0.67451   0.00000  Uiso   1.00
O945   O     0.93468   0.55679   0.80899   0.00000  Uiso   1.00
C946   C     0.16742   0.91250   0.74791   0.00000  Uiso   1.00
C947   C     0.12486   0.82921   0.90691   0.00000  Uiso   1.00
C948   C     0.21327   0.97841   0.73916   0.00000  Uiso   1.00
C949   C     0.14043   0.83384   0.85009   0.00000  Uiso   1.00
C950   C     0.21196   0.68742   0.74673   0.00000  Uiso   1.00
C951   C     0.16812   0.70927   0.75059   0.00000  Uiso   1.00
C952   C     0.12536   0.68778   0.75245   0.00000  Uiso   1.00
C953   C     0.12548   0.97879   0.75153   0.00000  Uiso   1.00
C954   C     0.16904   0.95705   0.74539   0.00000  Uiso   1.00
C955   C     0.30033   0.86134   0.77990   0.00000  Uiso   1.00
C956   C     0.01685   0.86103   0.77987   0.00000  Uiso   1.00
C957   C     0.14964   0.82317   0.98627   0.00000  Uiso   1.00
C958   C     0.03203   0.80557   0.71958   0.00000  Uiso   1.00
C959   C     0.31629   0.80636   0.71952   0.00000  Uiso   1.00
C960   C     0.16672   0.75403   0.75082   0.00000  Uiso   1.00
C961   C     0.19297   0.83411   0.64996   0.00000  Uiso   1.00
C962   C     0.26525   0.85959   0.51162   0.00000  Uiso   1.00
C963   C     0.20866   0.83730   0.59290   0.00000  Uiso   1.00
C964   C     0.08321   0.80606   0.92907   0.00000  Uiso   1.00
C965   C     0.07630   0.78898   0.97727   0.00000  Uiso   1.00
C966   C     0.11073   0.79466   0.50428   0.00000  Uiso   1.00
C967   C     0.29411   0.85792   0.58836   0.00000  Uiso   1.00
C968   C     0.15583   0.84064   0.93704   0.00000  Uiso   1.00
C969   C     0.25531   0.70674   0.75383   0.00000  Uiso   1.00
C970   C     0.10857   0.76589   0.54469   0.00000  Uiso   1.00
C971   C     0.26073   0.95798   0.72275   0.00000  Uiso   1.00
C972   C     0.18398   0.83397   0.51355   0.00000  Uiso   1.00
C973   C     0.22764   0.85467   0.98767   0.00000  Uiso   1.00
C974   C     0.23058   0.87359   0.94098   0.00000  Uiso   1.00
C975   C     0.19350   0.86880   0.91815   0.00000  Uiso   1.00
C976   C     0.17401   0.82864   0.56695   0.00000  Uiso   1.00
C977   C     0.25566   0.85083   0.56434   0.00000  Uiso   1.00
Cu978  Cu    0.11978   0.83333   0.75000   0.00000  Uiso   1.00
Cu979  Cu    0.21355   0.83334   0.75000   0.00000  Uiso   1.00
H980   H     0.09131   0.70365   0.75589   0.00000  Uiso   1.00
H981   H     0.28562   0.90886   0.82669   0.00000  Uiso   1.00
H982   H     0.09474   0.78105   0.68327   0.00000  Uiso   1.00
H983   H     0.31845   0.86568   0.94795   0.00000  Uiso   1.00
H984   H     0.09131   0.96311   0.75544   0.00000  Uiso   1.00
H985   H     0.02951   0.88303   0.80362   0.00000  Uiso   1.00
H986   H     0.30394   0.78497   0.69484   0.00000  Uiso   1.00
H987   H     0.25994   0.89428   0.92340   0.00000  Uiso   1.00
H988   H     0.13761   0.82083   0.58982   0.00000  Uiso   1.00
H989   H     0.05839   0.79769   0.90701   0.00000  Uiso   1.00
H990   H     0.04607   0.76818   0.99136   0.00000  Uiso   1.00
H991   H     0.19469   0.88703   0.88499   0.00000  Uiso   1.00
N992   N     0.04931   0.83332   0.74998   0.00000  Uiso   1.00
N993   N     0.28402   0.83335   0.74999   0.00000  Uiso   1.00
N994   N     0.32498   0.86360   0.60736   0.00000  Uiso   1.00
N995   N     0.29004   0.72124   0.76014   0.00000  Uiso   1.00
N996   N     0.10680   0.74256   0.57674   0.00000  Uiso   1.00
N997   N     0.29865   0.94207   0.70934   0.00000  Uiso   1.00
O998   O     0.12708   0.89345   0.75000   0.00000  Uiso   1.00
O999   O     0.06025   0.77518   0.68883   0.00000  Uiso   1.00
O1000  O     0.31112   0.87379   0.98516   0.00000  Uiso   1.00
O1001  O     0.20627   0.89346   0.75000   0.00000  Uiso   1.00
O1002  O     0.10775   0.83332   0.82549   0.00000  Uiso   1.00
O1003  O     0.18694   0.83333   0.82549   0.00000  Uiso   1.00
O1004  O     0.12706   0.77321   0.74999   0.00000  Uiso   1.00
O1005  O     0.20625   0.77322   0.74999   0.00000  Uiso   1.00
O1006  O     0.14640   0.83334   0.67451   0.00000  Uiso   1.00
O1007  O     0.22559   0.83335   0.67451   0.00000  Uiso   1.00
O1008  O     0.26802   0.89013   0.80899   0.00000  Uiso   1.00
C1009  C     0.50076   0.91250   0.74791   0.00000  Uiso   1.00
C1010  C     0.45819   0.82921   0.90691   0.00000  Uiso   1.00
C1011  C     0.54661   0.97841   0.73916   0.00000  Uiso   1.00
C1012  C     0.47376   0.83384   0.85009   0.00000  Uiso   1.00
C1013  C     0.54529   0.68742   0.74673   0.00000  Uiso   1.00
C1014  C     0.50146   0.70927   0.75059   0.00000  Uiso   1.00
C1015  C     0.45869   0.68778   0.75245   0.00000  Uiso   1.00
C1016  C     0.45881   0.97879   0.75153   0.00000  Uiso   1.00
C1017  C     0.50237   0.95705   0.74539   0.00000  Uiso   1.00
C1018  C     0.63366   0.86134   0.77990   0.00000  Uiso   1.00
C1019  C     0.35019   0.86103   0.77987   0.00000  Uiso   1.00
C1020  C     0.48298   0.82317   0.98627   0.00000  Uiso   1.00
C1021  C     0.36536   0.80557   0.71958   0.00000  Uiso   1.00
C1022  C     0.64963   0.80636   0.71952   0.00000  Uiso   1.00
C1023  C     0.50005   0.75403   0.75082   0.00000  Uiso   1.00
C1024  C     0.52630   0.83411   0.64996   0.00000  Uiso   1.00
C1025  C     0.59858   0.85959   0.51162   0.00000  Uiso   1.00
C1026  C     0.54200   0.83730   0.59290   0.00000  Uiso   1.00
C1027  C     0.41654   0.80606   0.92907   0.00000  Uiso   1.00
C1028  C     0.40964   0.78898   0.97727   0.00000  Uiso   1.00
C1029  C     0.44407   0.79466   0.50428   0.00000  Uiso   1.00
C1030  C     0.62745   0.85792   0.58836   0.00000  Uiso   1.00
C1031  C     0.48917   0.84064   0.93704   0.00000  Uiso   1.00
C1032  C     0.58864   0.70674   0.75383   0.00000  Uiso   1.00
C1033  C     0.44190   0.76589   0.54469   0.00000  Uiso   1.00
C1034  C     0.59406   0.95798   0.72275   0.00000  Uiso   1.00
C1035  C     0.51731   0.83397   0.51355   0.00000  Uiso   1.00
C1036  C     0.56097   0.85467   0.98767   0.00000  Uiso   1.00
C1037  C     0.56392   0.87359   0.94098   0.00000  Uiso   1.00
C1038  C     0.52683   0.86880   0.91815   0.00000  Uiso   1.00
C1039  C     0.50735   0.82864   0.56695   0.00000  Uiso   1.00
C1040  C     0.58900   0.85083   0.56434   0.00000  Uiso   1.00
Cu1041 Cu    0.45311   0.83333   0.75000   0.00000  Uiso   1.00
Cu1042 Cu    0.54689   0.83334   0.75000   0.00000  Uiso   1.00
H1043  H     0.42465   0.70365   0.75589   0.00000  Uiso   1.00
H1044  H     0.61895   0.90886   0.82669   0.00000  Uiso   1.00
H1045  H     0.42807   0.78105   0.68327   0.00000  Uiso   1.00
H1046  H     0.65178   0.86568   0.94795   0.00000  Uiso   1.00
H1047  H     0.42464   0.96311   0.75544   0.00000  Uiso   1.00
H1048  H     0.36284   0.88303   0.80362   0.00000  Uiso   1.00
H1049  H     0.63727   0.78497   0.69484   0.00000  Uiso   1.00
H1050  H     0.59327   0.89428   0.92340   0.00000  Uiso   1.00
H1051  H     0.47095   0.82083   0.58982   0.00000  Uiso   1.00
H1052  H     0.39172   0.79769   0.90701   0.00000  Uiso   1.00
H1053  H     0.37940   0.76818   0.99136   0.00000  Uiso   1.00
H1054  H     0.52802   0.88703   0.88499   0.00000  Uiso   1.00
N1055  N     0.38265   0.83332   0.74998   0.00000  Uiso   1.00
N1056  N     0.61735   0.83335   0.74999   0.00000  Uiso   1.00
N1057  N     0.65832   0.86360   0.60736   0.00000  Uiso   1.00
N1058  N     0.62337   0.72124   0.76014   0.00000  Uiso   1.00
N1059  N     0.44013   0.74256   0.57674   0.00000  Uiso   1.00
N1060  N     0.63198   0.94207   0.70934   0.00000  Uiso   1.00
O1061  O     0.46042   0.89345   0.75000   0.00000  Uiso   1.00
O1062  O     0.39359   0.77518   0.68883   0.00000  Uiso   1.00
O1063  O     0.64446   0.87379   0.98516   0.00000  Uiso   1.00
O1064  O     0.53961   0.89346   0.75000   0.00000  Uiso   1.00
O1065  O     0.44108   0.83332   0.82549   0.00000  Uiso   1.00
O1066  O     0.52027   0.83333   0.82549   0.00000  Uiso   1.00
O1067  O     0.46039   0.77321   0.74999   0.00000  Uiso   1.00
O1068  O     0.53958   0.77322   0.74999   0.00000  Uiso   1.00
O1069  O     0.47973   0.83334   0.67451   0.00000  Uiso   1.00
O1070  O     0.55892   0.83335   0.67451   0.00000  Uiso   1.00
O1071  O     0.60135   0.89013   0.80899   0.00000  Uiso   1.00
C1072  C     0.83409   0.91250   0.74791   0.00000  Uiso   1.00
C1073  C     0.79153   0.82921   0.90691   0.00000  Uiso   1.00
C1074  C     0.87994   0.97841   0.73916   0.00000  Uiso   1.00
C1075  C     0.80710   0.83384   0.85009   0.00000  Uiso   1.00
C1076  C     0.87862   0.68742   0.74673   0.00000  Uiso   1.00
C1077  C     0.83479   0.70927   0.75059   0.00000  Uiso   1.00
C1078  C     0.79202   0.68778   0.75245   0.00000  Uiso   1.00
C1079  C     0.79215   0.97879   0.75153   0.00000  Uiso   1.00
C1080  C     0.83571   0.95705   0.74539   0.00000  Uiso   1.00
C1081  C     0.96700   0.86134   0.77990   0.00000  Uiso   1.00
C1082  C     0.68352   0.86103   0.77987   0.00000  Uiso   1.00
C1083  C     0.81631   0.82317   0.98627   0.00000  Uiso   1.00
C1084  C     0.69869   0.80557   0.71958   0.00000  Uiso   1.00
C1085  C     0.98296   0.80636   0.71952   0.00000  Uiso   1.00
C1086  C     0.83338   0.75403   0.75082   0.00000  Uiso   1.00
C1087  C     0.85963   0.83411   0.64996   0.00000  Uiso   1.00
C1088  C     0.93191   0.85959   0.51162   0.00000  Uiso   1.00
C1089  C     0.87533   0.83730   0.59290   0.00000  Uiso   1.00
C1090  C     0.74987   0.80606   0.92907   0.00000  Uiso   1.00
C1091  C     0.74297   0.78898   0.97727   0.00000  Uiso   1.00
C1092  C     0.77740   0.79466   0.50428   0.00000  Uiso   1.00
C1093  C     0.96078   0.85792   0.58836   0.00000  Uiso   1.00
C1094  C     0.82250   0.84064   0.93704   0.00000  Uiso   1.00
C1095  C     0.92198   0.70674   0.75383   0.00000  Uiso   1.00
C1096  C     0.77523   0.76589   0.54469   0.00000  Uiso   1.00
C1097  C     0.92739   0.95798   0.72275   0.00000  Uiso   1.00
C1098  C     0.85064   0.83397   0.51355   0.00000  Uiso   1.00
C1099  C     0.89430   0.85467   0.98767   0.00000  Uiso   1.00
C1100  C     0.89725   0.87359   0.94098   0.00000  Uiso   1.00
C1101  C     0.86016   0.86880   0.91815   0.00000  Uiso   1.00
C1102  C     0.84068   0.82864   0.56695   0.00000  Uiso   1.00
C1103  C     0.92233   0.85083   0.56434   0.00000  Uiso   1.00
Cu1104 Cu    0.78645   0.83333   0.75000   0.00000  Uiso   1.00
Cu1105 Cu    0.88022   0.83334   0.75000   0.00000  Uiso   1.00
H1106  H     0.75798   0.70365   0.75589   0.00000  Uiso   1.00
H1107  H     0.95229   0.90886   0.82669   0.00000  Uiso   1.00
H1108  H     0.76140   0.78105   0.68327   0.00000  Uiso   1.00
H1109  H     0.98512   0.86568   0.94795   0.00000  Uiso   1.00
H1110  H     0.75798   0.96311   0.75544   0.00000  Uiso   1.00
H1111  H     0.69617   0.88303   0.80362   0.00000  Uiso   1.00
H1112  H     0.97060   0.78497   0.69484   0.00000  Uiso   1.00
H1113  H     0.92660   0.89428   0.92340   0.00000  Uiso   1.00
H1114  H     0.80428   0.82083   0.58982   0.00000  Uiso   1.00
H1115  H     0.72505   0.79769   0.90701   0.00000  Uiso   1.00
H1116  H     0.71274   0.76818   0.99136   0.00000  Uiso   1.00
H1117  H     0.86135   0.88703   0.88499   0.00000  Uiso   1.00
N1118  N     0.71598   0.83332   0.74998   0.00000  Uiso   1.00
N1119  N     0.95069   0.83335   0.74999   0.00000  Uiso   1.00
N1120  N     0.99165   0.86360   0.60736   0.00000  Uiso   1.00
N1121  N     0.95670   0.72124   0.76014   0.00000  Uiso   1.00
N1122  N     0.77346   0.74256   0.57674   0.00000  Uiso   1.00
N1123  N     0.96532   0.94207   0.70934   0.00000  Uiso   1.00
O1124  O     0.79375   0.89345   0.75000   0.00000  Uiso   1.00
O1125  O     0.72692   0.77518   0.68883   0.00000  Uiso   1.00
O1126  O     0.97779   0.87379   0.98516   0.00000  Uiso   1.00
O1127  O     0.87294   0.89346   0.75000   0.00000  Uiso   1.00
O1128  O     0.77441   0.83332   0.82549   0.00000  Uiso   1.00
O1129  O     0.85360   0.83333   0.82549   0.00000  Uiso   1.00
O1130  O     0.79373   0.77321   0.74999   0.00000  Uiso   1.00
O1131  O     0.87292   0.77322   0.74999   0.00000  Uiso   1.00
O1132  O     0.81306   0.83334   0.67451   0.00000  Uiso   1.00
O1133  O     0.89225   0.83335   0.67451   0.00000  Uiso   1.00
O1134  O     0.93468   0.89013   0.80899   0.00000  Uiso   1.00
loop_
_geom_bond_atom_site_label_1
_geom_bond_atom_site_label_2
_geom_bond_distance
_geom_bond_site_symmetry_2
_ccdc_geom_bond_type
C1     C9      1.462   .     S
C1     O56     1.292   .     A
C1     O53     1.300   .     A
C2     C4      1.474   .     S
C2     C19     1.399   .     A
C2     C23     1.412   .     A
C3     C9      1.415   .     A
C3     C26     1.456   .     S
C3     C194    1.395   .     S
C4     O57     1.296   .     A
C4     O58     1.301   .     A
C5     C24     1.453   .     S
C5     C6      1.420   .     A
C5     C381    1.395   1_545 S
C6     C7      1.401   .     A
C6     C15     1.465   .     S
C7     H35     1.083   .     S
C7     C386    1.385   1_545 S
C8     H39     1.083   .     S
C8     C9      1.401   .     A
C8     C196    1.385   .     S
C10    O63     1.375   .     S
C10    N48     1.374   .     A
C10    C74     1.428   .     S
C11    N47     1.362   .     A
C11    H40     1.082   .     S
C11    C136    1.428   1_455 S
C12    C23     1.421   .     A
C12    C588    1.432   .     S
C12    C594    1.430   .     S
C13    N47     1.393   .     A
C13    O54     1.375   .     S
C13    C140    1.406   1_455 S
C14    H41     1.082   .     S
C14    N48     1.350   .     A
C14    C76     1.406   .     S
C15    O60     1.289   .     A
C15    O59     1.304   .     A
C16    O62     1.295   .     A
C16    O61     1.303   .     A
C16    C18     1.475   .     S
C17    C32     1.402   .     A
C17    C595    1.417   1_554 S
C17    O622    1.383   1_554 S
C18    C32     1.416   .     A
C18    C31     1.397   .     A
C19    C20     1.387   .     A
C19    H44     1.083   .     S
C20    H45     1.084   .     S
C20    C588    1.397   .     S
C21    C25     1.445   .     S
C21    C579    1.432   1_554 S
C21    C587    1.397   1_554 S
C22    C32     1.448   .     S
C22    N49     1.158   .     T
C23    C30     1.404   .     A
C24    N50     1.157   .     T
C25    N51     1.157   .     T
C26    N52     1.158   .     T
C27    C31     1.397   .     A
C27    C579    1.430   1_554 S
C27    C595    1.421   1_554 S
C28    C29     1.397   .     A
C28    C584    1.417   .     S
C28    C594    1.421   .     S
C29    C30     1.382   .     A
C29    H42     1.082   .     S
C30    H46     1.079   .     S
C31    H43     1.077   .     S
Cu33   Cu34    2.686   .     S
Cu33   O59     1.979   .     S
Cu33   O57     1.959   .     S
Cu33   O53     1.979   .     S
Cu33   N47     2.018   .     S
Cu33   O61     1.949   .     S
Cu34   O56     1.979   .     S
Cu34   O60     1.979   .     S
Cu34   O62     1.959   .     S
Cu34   N48     2.018   .     S
Cu34   O58     1.949   .     S
H36    O63     0.992   .     S
H37    O54     0.974   .     S
H38    O55     0.990   .     S
O55    C584    1.383   .     S
C64    C72     1.462   .     S
C64    O119    1.292   .     A
C64    O116    1.300   .     A
C65    C67     1.474   .     S
C65    C82     1.399   .     A
C65    C86     1.412   .     A
C66    C72     1.415   .     A
C66    C89     1.456   .     S
C66    C257    1.395   .     S
C67    O120    1.296   .     A
C67    O121    1.301   .     A
C68    C87     1.453   .     S
C68    C69     1.420   .     A
C68    C444    1.395   1_545 S
C69    C70     1.401   .     A
C69    C78     1.465   .     S
C70    H98     1.083   .     S
C70    C449    1.385   1_545 S
C71    H102    1.083   .     S
C71    C72     1.401   .     A
C71    C259    1.385   .     S
C73    O126    1.375   .     S
C73    N111    1.374   .     A
C73    C137    1.428   .     S
C74    N110    1.362   .     A
C74    H103    1.082   .     S
C75    C86     1.421   .     A
C75    C651    1.432   .     S
C75    C657    1.430   .     S
C76    N110    1.393   .     A
C76    O117    1.375   .     S
C77    H104    1.082   .     S
C77    N111    1.350   .     A
C77    C139    1.406   .     S
C78    O123    1.289   .     A
C78    O122    1.304   .     A
C79    O125    1.295   .     A
C79    O124    1.303   .     A
C79    C81     1.475   .     S
C80    C95     1.402   .     A
C80    C658    1.417   1_554 S
C80    O685    1.383   1_554 S
C81    C95     1.416   .     A
C81    C94     1.397   .     A
C82    C83     1.387   .     A
C82    H107    1.083   .     S
C83    H108    1.084   .     S
C83    C651    1.397   .     S
C84    C88     1.445   .     S
C84    C642    1.432   1_554 S
C84    C650    1.397   1_554 S
C85    C95     1.448   .     S
C85    N112    1.158   .     T
C86    C93     1.404   .     A
C87    N113    1.157   .     T
C88    N114    1.157   .     T
C89    N115    1.158   .     T
C90    C94     1.397   .     A
C90    C642    1.430   1_554 S
C90    C658    1.421   1_554 S
C91    C92     1.397   .     A
C91    C647    1.417   .     S
C91    C657    1.421   .     S
C92    C93     1.382   .     A
C92    H105    1.082   .     S
C93    H109    1.079   .     S
C94    H106    1.077   .     S
Cu96   Cu97    2.686   .     S
Cu96   O122    1.979   .     S
Cu96   O120    1.959   .     S
Cu96   O116    1.979   .     S
Cu96   N110    2.018   .     S
Cu96   O124    1.949   .     S
Cu97   O119    1.979   .     S
Cu97   O123    1.979   .     S
Cu97   O125    1.959   .     S
Cu97   N111    2.018   .     S
Cu97   O121    1.949   .     S
H99    O126    0.992   .     S
H100   O117    0.974   .     S
H101   O118    0.990   .     S
O118   C647    1.383   .     S
C127   C135    1.462   .     S
C127   O182    1.292   .     A
C127   O179    1.300   .     A
C128   C130    1.474   .     S
C128   C145    1.399   .     A
C128   C149    1.412   .     A
C129   C135    1.415   .     A
C129   C152    1.456   .     S
C129   C320    1.395   .     S
C130   O183    1.296   .     A
C130   O184    1.301   .     A
C131   C150    1.453   .     S
C131   C132    1.420   .     A
C131   C507    1.395   1_545 S
C132   C133    1.401   .     A
C132   C141    1.465   .     S
C133   H161    1.083   .     S
C133   C512    1.385   1_545 S
C134   H165    1.083   .     S
C134   C135    1.401   .     A
C134   C322    1.385   .     S
C136   O189    1.375   .     S
C136   N174    1.374   .     A
C136   C11     1.428   1_655 S
C137   N173    1.362   .     A
C137   H166    1.082   .     S
C138   C149    1.421   .     A
C138   C714    1.432   .     S
C138   C720    1.430   .     S
C139   N173    1.393   .     A
C139   O180    1.375   .     S
C140   H167    1.082   .     S
C140   N174    1.350   .     A
C140   C13     1.406   1_655 S
C141   O186    1.289   .     A
C141   O185    1.304   .     A
C142   O188    1.295   .     A
C142   O187    1.303   .     A
C142   C144    1.475   .     S
C143   C158    1.402   .     A
C143   C721    1.417   1_554 S
C143   O748    1.383   1_554 S
C144   C158    1.416   .     A
C144   C157    1.397   .     A
C145   C146    1.387   .     A
C145   H170    1.083   .     S
C146   H171    1.084   .     S
C146   C714    1.397   .     S
C147   C151    1.445   .     S
C147   C705    1.432   1_554 S
C147   C713    1.397   1_554 S
C148   C158    1.448   .     S
C148   N175    1.158   .     T
C149   C156    1.404   .     A
C150   N176    1.157   .     T
C151   N177    1.157   .     T
C152   N178    1.158   .     T
C153   C157    1.397   .     A
C153   C705    1.430   1_554 S
C153   C721    1.421   1_554 S
C154   C155    1.397   .     A
C154   C710    1.417   .     S
C154   C720    1.421   .     S
C155   C156    1.382   .     A
C155   H168    1.082   .     S
C156   H172    1.079   .     S
C157   H169    1.077   .     S
Cu159  Cu160   2.686   .     S
Cu159  O185    1.979   .     S
Cu159  O183    1.959   .     S
Cu159  O179    1.979   .     S
Cu159  N173    2.018   .     S
Cu159  O187    1.949   .     S
Cu160  O182    1.979   .     S
Cu160  O186    1.979   .     S
Cu160  O188    1.959   .     S
Cu160  N174    2.018   .     S
Cu160  O184    1.949   .     S
H162   O189    0.992   .     S
H163   O180    0.974   .     S
H164   O181    0.990   .     S
O181   C710    1.383   .     S
C190   C198    1.462   .     S
C190   O245    1.292   .     A
C190   O242    1.300   .     A
C191   C193    1.474   .     S
C191   C208    1.399   .     A
C191   C212    1.412   .     A
C192   C198    1.415   .     A
C192   C215    1.456   .     S
C192   C383    1.395   .     S
C193   O246    1.296   .     A
C193   O247    1.301   .     A
C194   C213    1.453   .     S
C194   C195    1.420   .     A
C195   C196    1.401   .     A
C195   C204    1.465   .     S
C196   H224    1.083   .     S
C197   H228    1.083   .     S
C197   C198    1.401   .     A
C197   C385    1.385   .     S
C199   O252    1.375   .     S
C199   N237    1.374   .     A
C199   C263    1.428   .     S
C200   N236    1.362   .     A
C200   H229    1.082   .     S
C200   C325    1.428   1_455 S
C201   C212    1.421   .     A
C201   C777    1.432   .     S
C201   C783    1.430   .     S
C202   N236    1.393   .     A
C202   O243    1.375   .     S
C202   C329    1.406   1_455 S
C203   H230    1.082   .     S
C203   N237    1.350   .     A
C203   C265    1.406   .     S
C204   O249    1.289   .     A
C204   O248    1.304   .     A
C205   O251    1.295   .     A
C205   O250    1.303   .     A
C205   C207    1.475   .     S
C206   C221    1.402   .     A
C206   C784    1.417   1_554 S
C206   O811    1.383   1_554 S
C207   C221    1.416   .     A
C207   C220    1.397   .     A
C208   C209    1.387   .     A
C208   H233    1.083   .     S
C209   H234    1.084   .     S
C209   C777    1.397   .     S
C210   C214    1.445   .     S
C210   C768    1.432   1_554 S
C210   C776    1.397   1_554 S
C211   C221    1.448   .     S
C211   N238    1.158   .     T
C212   C219    1.404   .     A
C213   N239    1.157   .     T
C214   N240    1.157   .     T
C215   N241    1.158   .     T
C216   C220    1.397   .     A
C216   C768    1.430   1_554 S
C216   C784    1.421   1_554 S
C217   C218    1.397   .     A
C217   C773    1.417   .     S
C217   C783    1.421   .     S
C218   C219    1.382   .     A
C218   H231    1.082   .     S
C219   H235    1.079   .     S
C220   H232    1.077   .     S
Cu222  Cu223   2.686   .     S
Cu222  O248    1.979   .     S
Cu222  O246    1.959   .     S
Cu222  O242    1.979   .     S
Cu222  N236    2.018   .     S
Cu222  O250    1.949   .     S
Cu223  O245    1.979   .     S
Cu223  O249    1.979   .     S
Cu223  O251    1.959   .     S
Cu223  N237    2.018   .     S
Cu223  O247    1.949   .     S
H225   O252    0.992   .     S
H226   O243    0.974   .     S
H227   O244    0.990   .     S
O244   C773    1.383   .     S
C253   C261    1.462   .     S
C253   O308    1.292   .     A
C253   O305    1.300   .     A
C254   C256    1.474   .     S
C254   C271    1.399   .     A
C254   C275    1.412   .     A
C255   C261    1.415   .     A
C255   C278    1.456   .     S
C255   C446    1.395   .     S
C256   O309    1.296   .     A
C256   O310    1.301   .     A
C257   C276    1.453   .     S
C257   C258    1.420   .     A
C258   C259    1.401   .     A
C258   C267    1.465   .     S
C259   H287    1.083   .     S
C260   H291    1.083   .     S
C260   C261    1.401   .     A
C260   C448    1.385   .     S
C262   O315    1.375   .     S
C262   N300    1.374   .     A
C262   C326    1.428   .     S
C263   N299    1.362   .     A
C263   H292    1.082   .     S
C264   C275    1.421   .     A
C264   C840    1.432   .     S
C264   C846    1.430   .     S
C265   N299    1.393   .     A
C265   O306    1.375   .     S
C266   H293    1.082   .     S
C266   N300    1.350   .     A
C266   C328    1.406   .     S
C267   O312    1.289   .     A
C267   O311    1.304   .     A
C268   O314    1.295   .     A
C268   O313    1.303   .     A
C268   C270    1.475   .     S
C269   C284    1.402   .     A
C269   C847    1.417   1_554 S
C269   O874    1.383   1_554 S
C270   C284    1.416   .     A
C270   C283    1.397   .     A
C271   C272    1.387   .     A
C271   H296    1.083   .     S
C272   H297    1.084   .     S
C272   C840    1.397   .     S
C273   C277    1.445   .     S
C273   C831    1.432   1_554 S
C273   C839    1.397   1_554 S
C274   C284    1.448   .     S
C274   N301    1.158   .     T
C275   C282    1.404   .     A
C276   N302    1.157   .     T
C277   N303    1.157   .     T
C278   N304    1.158   .     T
C279   C283    1.397   .     A
C279   C831    1.430   1_554 S
C279   C847    1.421   1_554 S
C280   C281    1.397   .     A
C280   C836    1.417   .     S
C280   C846    1.421   .     S
C281   C282    1.382   .     A
C281   H294    1.082   .     S
C282   H298    1.079   .     S
C283   H295    1.077   .     S
Cu285  Cu286   2.686   .     S
Cu285  O311    1.979   .     S
Cu285  O309    1.959   .     S
Cu285  O305    1.979   .     S
Cu285  N299    2.018   .     S
Cu285  O313    1.949   .     S
Cu286  O308    1.979   .     S
Cu286  O312    1.979   .     S
Cu286  O314    1.959   .     S
Cu286  N300    2.018   .     S
Cu286  O310    1.949   .     S
H288   O315    0.992   .     S
H289   O306    0.974   .     S
H290   O307    0.990   .     S
O307   C836    1.383   .     S
C316   C324    1.462   .     S
C316   O371    1.292   .     A
C316   O368    1.300   .     A
C317   C319    1.474   .     S
C317   C334    1.399   .     A
C317   C338    1.412   .     A
C318   C324    1.415   .     A
C318   C341    1.456   .     S
C318   C509    1.395   .     S
C319   O372    1.296   .     A
C319   O373    1.301   .     A
C320   C339    1.453   .     S
C320   C321    1.420   .     A
C321   C322    1.401   .     A
C321   C330    1.465   .     S
C322   H350    1.083   .     S
C323   H354    1.083   .     S
C323   C324    1.401   .     A
C323   C511    1.385   .     S
C325   O378    1.375   .     S
C325   N363    1.374   .     A
C325   C200    1.428   1_655 S
C326   N362    1.362   .     A
C326   H355    1.082   .     S
C327   C338    1.421   .     A
C327   C903    1.432   .     S
C327   C909    1.430   .     S
C328   N362    1.393   .     A
C328   O369    1.375   .     S
C329   H356    1.082   .     S
C329   N363    1.350   .     A
C329   C202    1.406   1_655 S
C330   O375    1.289   .     A
C330   O374    1.304   .     A
C331   O377    1.295   .     A
C331   O376    1.303   .     A
C331   C333    1.475   .     S
C332   C347    1.402   .     A
C332   C910    1.417   1_554 S
C332   O937    1.383   1_554 S
C333   C347    1.416   .     A
C333   C346    1.397   .     A
C334   C335    1.387   .     A
C334   H359    1.083   .     S
C335   H360    1.084   .     S
C335   C903    1.397   .     S
C336   C340    1.445   .     S
C336   C894    1.432   1_554 S
C336   C902    1.397   1_554 S
C337   C347    1.448   .     S
C337   N364    1.158   .     T
C338   C345    1.404   .     A
C339   N365    1.157   .     T
C340   N366    1.157   .     T
C341   N367    1.158   .     T
C342   C346    1.397   .     A
C342   C894    1.430   1_554 S
C342   C910    1.421   1_554 S
C343   C344    1.397   .     A
C343   C899    1.417   .     S
C343   C909    1.421   .     S
C344   C345    1.382   .     A
C344   H357    1.082   .     S
C345   H361    1.079   .     S
C346   H358    1.077   .     S
Cu348  Cu349   2.686   .     S
Cu348  O374    1.979   .     S
Cu348  O372    1.959   .     S
Cu348  O368    1.979   .     S
Cu348  N362    2.018   .     S
Cu348  O376    1.949   .     S
Cu349  O371    1.979   .     S
Cu349  O375    1.979   .     S
Cu349  O377    1.959   .     S
Cu349  N363    2.018   .     S
Cu349  O373    1.949   .     S
H351   O378    0.992   .     S
H352   O369    0.974   .     S
H353   O370    0.990   .     S
O370   C899    1.383   .     S
C379   C387    1.462   .     S
C379   O434    1.292   .     A
C379   O431    1.300   .     A
C380   C382    1.474   .     S
C380   C397    1.399   .     A
C380   C401    1.412   .     A
C381   C387    1.415   .     A
C381   C404    1.456   .     S
C381   C5      1.395   1_565 S
C382   O435    1.296   .     A
C382   O436    1.301   .     A
C383   C402    1.453   .     S
C383   C384    1.420   .     A
C384   C385    1.401   .     A
C384   C393    1.465   .     S
C385   H413    1.083   .     S
C386   H417    1.083   .     S
C386   C387    1.401   .     A
C386   C7      1.385   1_565 S
C388   O441    1.375   .     S
C388   N426    1.374   .     A
C388   C452    1.428   .     S
C389   N425    1.362   .     A
C389   H418    1.082   .     S
C389   C514    1.428   1_455 S
C390   C401    1.421   .     A
C390   C966    1.432   .     S
C390   C972    1.430   .     S
C391   N425    1.393   .     A
C391   O432    1.375   .     S
C391   C518    1.406   1_455 S
C392   H419    1.082   .     S
C392   N426    1.350   .     A
C392   C454    1.406   .     S
C393   O438    1.289   .     A
C393   O437    1.304   .     A
C394   O440    1.295   .     A
C394   O439    1.303   .     A
C394   C396    1.475   .     S
C395   C410    1.402   .     A
C395   C973    1.417   1_554 S
C395   O1000   1.383   1_554 S
C396   C410    1.416   .     A
C396   C409    1.397   .     A
C397   C398    1.387   .     A
C397   H422    1.083   .     S
C398   H423    1.084   .     S
C398   C966    1.397   .     S
C399   C403    1.445   .     S
C399   C957    1.432   1_554 S
C399   C965    1.397   1_554 S
C400   C410    1.448   .     S
C400   N427    1.158   .     T
C401   C408    1.404   .     A
C402   N428    1.157   .     T
C403   N429    1.157   .     T
C404   N430    1.158   .     T
C405   C409    1.397   .     A
C405   C957    1.430   1_554 S
C405   C973    1.421   1_554 S
C406   C407    1.397   .     A
C406   C962    1.417   .     S
C406   C972    1.421   .     S
C407   C408    1.382   .     A
C407   H420    1.082   .     S
C408   H424    1.079   .     S
C409   H421    1.077   .     S
Cu411  Cu412   2.686   .     S
Cu411  O437    1.979   .     S
Cu411  O435    1.959   .     S
Cu411  O431    1.979   .     S
Cu411  N425    2.018   .     S
Cu411  O439    1.949   .     S
Cu412  O434    1.979   .     S
Cu412  O438    1.979   .     S
Cu412  O440    1.959   .     S
Cu412  N426    2.018   .     S
Cu412  O436    1.949   .     S
H414   O441    0.992   .     S
H415   O432    0.974   .     S
H416   O433    0.990   .     S
O433   C962    1.383   .     S
C442   C450    1.462   .     S
C442   O497    1.292   .     A
C442   O494    1.300   .     A
C443   C445    1.474   .     S
C443   C460    1.399   .     A
C443   C464    1.412   .     A
C444   C450    1.415   .     A
C444   C467    1.456   .     S
C444   C68     1.395   1_565 S
C445   O498    1.296   .     A
C445   O499    1.301   .     A
C446   C465    1.453   .     S
C446   C447    1.420   .     A
C447   C448    1.401   .     A
C447   C456    1.465   .     S
C448   H476    1.083   .     S
C449   H480    1.083   .     S
C449   C450    1.401   .     A
C449   C70     1.385   1_565 S
C451   O504    1.375   .     S
C451   N489    1.374   .     A
C451   C515    1.428   .     S
C452   N488    1.362   .     A
C452   H481    1.082   .     S
C453   C464    1.421   .     A
C453   C1029   1.432   .     S
C453   C1035   1.430   .     S
C454   N488    1.393   .     A
C454   O495    1.375   .     S
C455   H482    1.082   .     S
C455   N489    1.350   .     A
C455   C517    1.406   .     S
C456   O501    1.289   .     A
C456   O500    1.304   .     A
C457   O503    1.295   .     A
C457   O502    1.303   .     A
C457   C459    1.475   .     S
C458   C473    1.402   .     A
C458   C1036   1.417   1_554 S
C458   O1063   1.383   1_554 S
C459   C473    1.416   .     A
C459   C472    1.397   .     A
C460   C461    1.387   .     A
C460   H485    1.083   .     S
C461   H486    1.084   .     S
C461   C1029   1.397   .     S
C462   C466    1.445   .     S
C462   C1020   1.432   1_554 S
C462   C1028   1.397   1_554 S
C463   C473    1.448   .     S
C463   N490    1.158   .     T
C464   C471    1.404   .     A
C465   N491    1.157   .     T
C466   N492    1.157   .     T
C467   N493    1.158   .     T
C468   C472    1.397   .     A
C468   C1020   1.430   1_554 S
C468   C1036   1.421   1_554 S
C469   C470    1.397   .     A
C469   C1025   1.417   .     S
C469   C1035   1.421   .     S
C470   C471    1.382   .     A
C470   H483    1.082   .     S
C471   H487    1.079   .     S
C472   H484    1.077   .     S
Cu474  Cu475   2.686   .     S
Cu474  O500    1.979   .     S
Cu474  O498    1.959   .     S
Cu474  O494    1.979   .     S
Cu474  N488    2.018   .     S
Cu474  O502    1.949   .     S
Cu475  O497    1.979   .     S
Cu475  O501    1.979   .     S
Cu475  O503    1.959   .     S
Cu475  N489    2.018   .     S
Cu475  O499    1.949   .     S
H477   O504    0.992   .     S
H478   O495    0.974   .     S
H479   O496    0.990   .     S
O496   C1025   1.383   .     S
C505   C513    1.462   .     S
C505   O560    1.292   .     A
C505   O557    1.300   .     A
C506   C508    1.474   .     S
C506   C523    1.399   .     A
C506   C527    1.412   .     A
C507   C513    1.415   .     A
C507   C530    1.456   .     S
C507   C131    1.395   1_565 S
C508   O561    1.296   .     A
C508   O562    1.301   .     A
C509   C528    1.453   .     S
C509   C510    1.420   .     A
C510   C511    1.401   .     A
C510   C519    1.465   .     S
C511   H539    1.083   .     S
C512   H543    1.083   .     S
C512   C513    1.401   .     A
C512   C133    1.385   1_565 S
C514   O567    1.375   .     S
C514   N552    1.374   .     A
C514   C389    1.428   1_655 S
C515   N551    1.362   .     A
C515   H544    1.082   .     S
C516   C527    1.421   .     A
C516   C1092   1.432   .     S
C516   C1098   1.430   .     S
C517   N551    1.393   .     A
C517   O558    1.375   .     S
C518   H545    1.082   .     S
C518   N552    1.350   .     A
C518   C391    1.406   1_655 S
C519   O564    1.289   .     A
C519   O563    1.304   .     A
C520   O566    1.295   .     A
C520   O565    1.303   .     A
C520   C522    1.475   .     S
C521   C536    1.402   .     A
C521   C1099   1.417   1_554 S
C521   O1126   1.383   1_554 S
C522   C536    1.416   .     A
C522   C535    1.397   .     A
C523   C524    1.387   .     A
C523   H548    1.083   .     S
C524   H549    1.084   .     S
C524   C1092   1.397   .     S
C525   C529    1.445   .     S
C525   C1083   1.432   1_554 S
C525   C1091   1.397   1_554 S
C526   C536    1.448   .     S
C526   N553    1.158   .     T
C527   C534    1.404   .     A
C528   N554    1.157   .     T
C529   N555    1.157   .     T
C530   N556    1.158   .     T
C531   C535    1.397   .     A
C531   C1083   1.430   1_554 S
C531   C1099   1.421   1_554 S
C532   C533    1.397   .     A
C532   C1088   1.417   .     S
C532   C1098   1.421   .     S
C533   C534    1.382   .     A
C533   H546    1.082   .     S
C534   H550    1.079   .     S
C535   H547    1.077   .     S
Cu537  Cu538   2.686   .     S
Cu537  O563    1.979   .     S
Cu537  O561    1.959   .     S
Cu537  O557    1.979   .     S
Cu537  N551    2.018   .     S
Cu537  O565    1.949   .     S
Cu538  O560    1.979   .     S
Cu538  O564    1.979   .     S
Cu538  O566    1.959   .     S
Cu538  N552    2.018   .     S
Cu538  O562    1.949   .     S
H540   O567    0.992   .     S
H541   O558    0.974   .     S
H542   O559    0.990   .     S
O559   C1088   1.383   .     S
C568   C576    1.462   .     S
C568   O623    1.292   .     A
C568   O620    1.300   .     A
C569   C571    1.474   .     S
C569   C586    1.399   .     A
C569   C590    1.412   .     A
C570   C576    1.415   .     A
C570   C593    1.456   .     S
C570   C761    1.395   .     S
C571   O624    1.296   .     A
C571   O625    1.301   .     A
C572   C591    1.453   .     S
C572   C573    1.420   .     A
C572   C948    1.395   1_545 S
C573   C574    1.401   .     A
C573   C582    1.465   .     S
C574   H602    1.083   .     S
C574   C953    1.385   1_545 S
C575   H606    1.083   .     S
C575   C576    1.401   .     A
C575   C763    1.385   .     S
C577   O630    1.375   .     S
C577   N615    1.374   .     A
C577   C641    1.428   .     S
C578   N614    1.362   .     A
C578   H607    1.082   .     S
C578   C703    1.428   1_455 S
C579   C590    1.421   .     A
C579   C21     1.432   1_556 S
C579   C27     1.430   1_556 S
C580   N614    1.393   .     A
C580   O621    1.375   .     S
C580   C707    1.406   1_455 S
C581   H608    1.082   .     S
C581   N615    1.350   .     A
C581   C643    1.406   .     S
C582   O627    1.289   .     A
C582   O626    1.304   .     A
C583   O629    1.295   .     A
C583   O628    1.303   .     A
C583   C585    1.475   .     S
C584   C599    1.402   .     A
C585   C599    1.416   .     A
C585   C598    1.397   .     A
C586   C587    1.387   .     A
C586   H611    1.083   .     S
C587   H612    1.084   .     S
C587   C21     1.397   1_556 S
C588   C592    1.445   .     S
C589   C599    1.448   .     S
C589   N616    1.158   .     T
C590   C597    1.404   .     A
C591   N617    1.157   .     T
C592   N618    1.157   .     T
C593   N619    1.158   .     T
C594   C598    1.397   .     A
C595   C596    1.397   .     A
C595   C17     1.417   1_556 S
C595   C27     1.421   1_556 S
C596   C597    1.382   .     A
C596   H609    1.082   .     S
C597   H613    1.079   .     S
C598   H610    1.077   .     S
Cu600  Cu601   2.686   .     S
Cu600  O626    1.979   .     S
Cu600  O624    1.959   .     S
Cu600  O620    1.979   .     S
Cu600  N614    2.018   .     S
Cu600  O628    1.949   .     S
Cu601  O623    1.979   .     S
Cu601  O627    1.979   .     S
Cu601  O629    1.959   .     S
Cu601  N615    2.018   .     S
Cu601  O625    1.949   .     S
H603   O630    0.992   .     S
H604   O621    0.974   .     S
H605   O622    0.990   .     S
O622   C17     1.383   1_556 S
C631   C639    1.462   .     S
C631   O686    1.292   .     A
C631   O683    1.300   .     A
C632   C634    1.474   .     S
C632   C649    1.399   .     A
C632   C653    1.412   .     A
C633   C639    1.415   .     A
C633   C656    1.456   .     S
C633   C824    1.395   .     S
C634   O687    1.296   .     A
C634   O688    1.301   .     A
C635   C654    1.453   .     S
C635   C636    1.420   .     A
C635   C1011   1.395   1_545 S
C636   C637    1.401   .     A
C636   C645    1.465   .     S
C637   H665    1.083   .     S
C637   C1016   1.385   1_545 S
C638   H669    1.083   .     S
C638   C639    1.401   .     A
C638   C826    1.385   .     S
C640   O693    1.375   .     S
C640   N678    1.374   .     A
C640   C704    1.428   .     S
C641   N677    1.362   .     A
C641   H670    1.082   .     S
C642   C653    1.421   .     A
C642   C84     1.432   1_556 S
C642   C90     1.430   1_556 S
C643   N677    1.393   .     A
C643   O684    1.375   .     S
C644   H671    1.082   .     S
C644   N678    1.350   .     A
C644   C706    1.406   .     S
C645   O690    1.289   .     A
C645   O689    1.304   .     A
C646   O692    1.295   .     A
C646   O691    1.303   .     A
C646   C648    1.475   .     S
C647   C662    1.402   .     A
C648   C662    1.416   .     A
C648   C661    1.397   .     A
C649   C650    1.387   .     A
C649   H674    1.083   .     S
C650   H675    1.084   .     S
C650   C84     1.397   1_556 S
C651   C655    1.445   .     S
C652   C662    1.448   .     S
C652   N679    1.158   .     T
C653   C660    1.404   .     A
C654   N680    1.157   .     T
C655   N681    1.157   .     T
C656   N682    1.158   .     T
C657   C661    1.397   .     A
C658   C659    1.397   .     A
C658   C80     1.417   1_556 S
C658   C90     1.421   1_556 S
C659   C660    1.382   .     A
C659   H672    1.082   .     S
C660   H676    1.079   .     S
C661   H673    1.077   .     S
Cu663  Cu664   2.686   .     S
Cu663  O689    1.979   .     S
Cu663  O687    1.959   .     S
Cu663  O683    1.979   .     S
Cu663  N677    2.018   .     S
Cu663  O691    1.949   .     S
Cu664  O686    1.979   .     S
Cu664  O690    1.979   .     S
Cu664  O692    1.959   .     S
Cu664  N678    2.018   .     S
Cu664  O688    1.949   .     S
H666   O693    0.992   .     S
H667   O684    0.974   .     S
H668   O685    0.990   .     S
O685   C80     1.383   1_556 S
C694   C702    1.462   .     S
C694   O749    1.292   .     A
C694   O746    1.300   .     A
C695   C697    1.474   .     S
C695   C712    1.399   .     A
C695   C716    1.412   .     A
C696   C702    1.415   .     A
C696   C719    1.456   .     S
C696   C887    1.395   .     S
C697   O750    1.296   .     A
C697   O751    1.301   .     A
C698   C717    1.453   .     S
C698   C699    1.420   .     A
C698   C1074   1.395   1_545 S
C699   C700    1.401   .     A
C699   C708    1.465   .     S
C700   H728    1.083   .     S
C700   C1079   1.385   1_545 S
C701   H732    1.083   .     S
C701   C702    1.401   .     A
C701   C889    1.385   .     S
C703   O756    1.375   .     S
C703   N741    1.374   .     A
C703   C578    1.428   1_655 S
C704   N740    1.362   .     A
C704   H733    1.082   .     S
C705   C716    1.421   .     A
C705   C147    1.432   1_556 S
C705   C153    1.430   1_556 S
C706   N740    1.393   .     A
C706   O747    1.375   .     S
C707   H734    1.082   .     S
C707   N741    1.350   .     A
C707   C580    1.406   1_655 S
C708   O753    1.289   .     A
C708   O752    1.304   .     A
C709   O755    1.295   .     A
C709   O754    1.303   .     A
C709   C711    1.475   .     S
C710   C725    1.402   .     A
C711   C725    1.416   .     A
C711   C724    1.397   .     A
C712   C713    1.387   .     A
C712   H737    1.083   .     S
C713   H738    1.084   .     S
C713   C147    1.397   1_556 S
C714   C718    1.445   .     S
C715   C725    1.448   .     S
C715   N742    1.158   .     T
C716   C723    1.404   .     A
C717   N743    1.157   .     T
C718   N744    1.157   .     T
C719   N745    1.158   .     T
C720   C724    1.397   .     A
C721   C722    1.397   .     A
C721   C143    1.417   1_556 S
C721   C153    1.421   1_556 S
C722   C723    1.382   .     A
C722   H735    1.082   .     S
C723   H739    1.079   .     S
C724   H736    1.077   .     S
Cu726  Cu727   2.686   .     S
Cu726  O752    1.979   .     S
Cu726  O750    1.959   .     S
Cu726  O746    1.979   .     S
Cu726  N740    2.018   .     S
Cu726  O754    1.949   .     S
Cu727  O749    1.979   .     S
Cu727  O753    1.979   .     S
Cu727  O755    1.959   .     S
Cu727  N741    2.018   .     S
Cu727  O751    1.949   .     S
H729   O756    0.992   .     S
H730   O747    0.974   .     S
H731   O748    0.990   .     S
O748   C143    1.383   1_556 S
C757   C765    1.462   .     S
C757   O812    1.292   .     A
C757   O809    1.300   .     A
C758   C760    1.474   .     S
C758   C775    1.399   .     A
C758   C779    1.412   .     A
C759   C765    1.415   .     A
C759   C782    1.456   .     S
C759   C950    1.395   .     S
C760   O813    1.296   .     A
C760   O814    1.301   .     A
C761   C780    1.453   .     S
C761   C762    1.420   .     A
C762   C763    1.401   .     A
C762   C771    1.465   .     S
C763   H791    1.083   .     S
C764   H795    1.083   .     S
C764   C765    1.401   .     A
C764   C952    1.385   .     S
C766   O819    1.375   .     S
C766   N804    1.374   .     A
C766   C830    1.428   .     S
C767   N803    1.362   .     A
C767   H796    1.082   .     S
C767   C892    1.428   1_455 S
C768   C779    1.421   .     A
C768   C210    1.432   1_556 S
C768   C216    1.430   1_556 S
C769   N803    1.393   .     A
C769   O810    1.375   .     S
C769   C896    1.406   1_455 S
C770   H797    1.082   .     S
C770   N804    1.350   .     A
C770   C832    1.406   .     S
C771   O816    1.289   .     A
C771   O815    1.304   .     A
C772   O818    1.295   .     A
C772   O817    1.303   .     A
C772   C774    1.475   .     S
C773   C788    1.402   .     A
C774   C788    1.416   .     A
C774   C787    1.397   .     A
C775   C776    1.387   .     A
C775   H800    1.083   .     S
C776   H801    1.084   .     S
C776   C210    1.397   1_556 S
C777   C781    1.445   .     S
C778   C788    1.448   .     S
C778   N805    1.158   .     T
C779   C786    1.404   .     A
C780   N806    1.157   .     T
C781   N807    1.157   .     T
C782   N808    1.158   .     T
C783   C787    1.397   .     A
C784   C785    1.397   .     A
C784   C206    1.417   1_556 S
C784   C216    1.421   1_556 S
C785   C786    1.382   .     A
C785   H798    1.082   .     S
C786   H802    1.079   .     S
C787   H799    1.077   .     S
Cu789  Cu790   2.686   .     S
Cu789  O815    1.979   .     S
Cu789  O813    1.959   .     S
Cu789  O809    1.979   .     S
Cu789  N803    2.018   .     S
Cu789  O817    1.949   .     S
Cu790  O812    1.979   .     S
Cu790  O816    1.979   .     S
Cu790  O818    1.959   .     S
Cu790  N804    2.018   .     S
Cu790  O814    1.949   .     S
H792   O819    0.992   .     S
H793   O810    0.974   .     S
H794   O811    0.990   .     S
O811   C206    1.383   1_556 S
C820   C828    1.462   .     S
C820   O875    1.292   .     A
C820   O872    1.300   .     A
C821   C823    1.474   .     S
C821   C838    1.399   .     A
C821   C842    1.412   .     A
C822   C828    1.415   .     A
C822   C845    1.456   .     S
C822   C1013   1.395   .     S
C823   O876    1.296   .     A
C823   O877    1.301   .     A
C824   C843    1.453   .     S
C824   C825    1.420   .     A
C825   C826    1.401   .     A
C825   C834    1.465   .     S
C826   H854    1.083   .     S
C827   H858    1.083   .     S
C827   C828    1.401   .     A
C827   C1015   1.385   .     S
C829   O882    1.375   .     S
C829   N867    1.374   .     A
C829   C893    1.428   .     S
C830   N866    1.362   .     A
C830   H859    1.082   .     S
C831   C842    1.421   .     A
C831   C273    1.432   1_556 S
C831   C279    1.430   1_556 S
C832   N866    1.393   .     A
C832   O873    1.375   .     S
C833   H860    1.082   .     S
C833   N867    1.350   .     A
C833   C895    1.406   .     S
C834   O879    1.289   .     A
C834   O878    1.304   .     A
C835   O881    1.295   .     A
C835   O880    1.303   .     A
C835   C837    1.475   .     S
C836   C851    1.402   .     A
C837   C851    1.416   .     A
C837   C850    1.397   .     A
C838   C839    1.387   .     A
C838   H863    1.083   .     S
C839   H864    1.084   .     S
C839   C273    1.397   1_556 S
C840   C844    1.445   .     S
C841   C851    1.448   .     S
C841   N868    1.158   .     T
C842   C849    1.404   .     A
C843   N869    1.157   .     T
C844   N870    1.157   .     T
C845   N871    1.158   .     T
C846   C850    1.397   .     A
C847   C848    1.397   .     A
C847   C269    1.417   1_556 S
C847   C279    1.421   1_556 S
C848   C849    1.382   .     A
C848   H861    1.082   .     S
C849   H865    1.079   .     S
C850   H862    1.077   .     S
Cu852  Cu853   2.686   .     S
Cu852  O878    1.979   .     S
Cu852  O876    1.959   .     S
Cu852  O872    1.979   .     S
Cu852  N866    2.018   .     S
Cu852  O880    1.949   .     S
Cu853  O875    1.979   .     S
Cu853  O879    1.979   .     S
Cu853  O881    1.959   .     S
Cu853  N867    2.018   .     S
Cu853  O877    1.949   .     S
H855   O882    0.992   .     S
H856   O873    0.974   .     S
H857   O874    0.990   .     S
O874   C269    1.383   1_556 S
C883   C891    1.462   .     S
C883   O938    1.292   .     A
C883   O935    1.300   .     A
C884   C886    1.474   .     S
C884   C901    1.399   .     A
C884   C905    1.412   .     A
C885   C891    1.415   .     A
C885   C908    1.456   .     S
C885   C1076   1.395   .     S
C886   O939    1.296   .     A
C886   O940    1.301   .     A
C887   C906    1.453   .     S
C887   C888    1.420   .     A
C888   C889    1.401   .     A
C888   C897    1.465   .     S
C889   H917    1.083   .     S
C890   H921    1.083   .     S
C890   C891    1.401   .     A
C890   C1078   1.385   .     S
C892   O945    1.375   .     S
C892   N930    1.374   .     A
C892   C767    1.428   1_655 S
C893   N929    1.362   .     A
C893   H922    1.082   .     S
C894   C905    1.421   .     A
C894   C336    1.432   1_556 S
C894   C342    1.430   1_556 S
C895   N929    1.393   .     A
C895   O936    1.375   .     S
C896   H923    1.082   .     S
C896   N930    1.350   .     A
C896   C769    1.406   1_655 S
C897   O942    1.289   .     A
C897   O941    1.304   .     A
C898   O944    1.295   .     A
C898   O943    1.303   .     A
C898   C900    1.475   .     S
C899   C914    1.402   .     A
C900   C914    1.416   .     A
C900   C913    1.397   .     A
C901   C902    1.387   .     A
C901   H926    1.083   .     S
C902   H927    1.084   .     S
C902   C336    1.397   1_556 S
C903   C907    1.445   .     S
C904   C914    1.448   .     S
C904   N931    1.158   .     T
C905   C912    1.404   .     A
C906   N932    1.157   .     T
C907   N933    1.157   .     T
C908   N934    1.158   .     T
C909   C913    1.397   .     A
C910   C911    1.397   .     A
C910   C332    1.417   1_556 S
C910   C342    1.421   1_556 S
C911   C912    1.382   .     A
C911   H924    1.082   .     S
C912   H928    1.079   .     S
C913   H925    1.077   .     S
Cu915  Cu916   2.686   .     S
Cu915  O941    1.979   .     S
Cu915  O939    1.959   .     S
Cu915  O935    1.979   .     S
Cu915  N929    2.018   .     S
Cu915  O943    1.949   .     S
Cu916  O938    1.979   .     S
Cu916  O942    1.979   .     S
Cu916  O944    1.959   .     S
Cu916  N930    2.018   .     S
Cu916  O940    1.949   .     S
H918   O945    0.992   .     S
H919   O936    0.974   .     S
H920   O937    0.990   .     S
O937   C332    1.383   1_556 S
C946   C954    1.462   .     S
C946   O1001   1.292   .     A
C946   O998    1.300   .     A
C947   C949    1.474   .     S
C947   C964    1.399   .     A
C947   C968    1.412   .     A
C948   C954    1.415   .     A
C948   C971    1.456   .     S
C948   C572    1.395   1_565 S
C949   O1002   1.296   .     A
C949   O1003   1.301   .     A
C950   C969    1.453   .     S
C950   C951    1.420   .     A
C951   C952    1.401   .     A
C951   C960    1.465   .     S
C952   H980    1.083   .     S
C953   H984    1.083   .     S
C953   C954    1.401   .     A
C953   C574    1.385   1_565 S
C955   O1008   1.375   .     S
C955   N993    1.374   .     A
C955   C1019   1.428   .     S
C956   N992    1.362   .     A
C956   H985    1.082   .     S
C956   C1081   1.428   1_455 S
C957   C968    1.421   .     A
C957   C399    1.432   1_556 S
C957   C405    1.430   1_556 S
C958   N992    1.393   .     A
C958   O999    1.375   .     S
C958   C1085   1.406   1_455 S
C959   H986    1.082   .     S
C959   N993    1.350   .     A
C959   C1021   1.406   .     S
C960   O1005   1.289   .     A
C960   O1004   1.304   .     A
C961   O1007   1.295   .     A
C961   O1006   1.303   .     A
C961   C963    1.475   .     S
C962   C977    1.402   .     A
C963   C977    1.416   .     A
C963   C976    1.397   .     A
C964   C965    1.387   .     A
C964   H989    1.083   .     S
C965   H990    1.084   .     S
C965   C399    1.397   1_556 S
C966   C970    1.445   .     S
C967   C977    1.448   .     S
C967   N994    1.158   .     T
C968   C975    1.404   .     A
C969   N995    1.157   .     T
C970   N996    1.157   .     T
C971   N997    1.158   .     T
C972   C976    1.397   .     A
C973   C974    1.397   .     A
C973   C395    1.417   1_556 S
C973   C405    1.421   1_556 S
C974   C975    1.382   .     A
C974   H987    1.082   .     S
C975   H991    1.079   .     S
C976   H988    1.077   .     S
Cu978  Cu979   2.686   .     S
Cu978  O1004   1.979   .     S
Cu978  O1002   1.959   .     S
Cu978  O998    1.979   .     S
Cu978  N992    2.018   .     S
Cu978  O1006   1.949   .     S
Cu979  O1001   1.979   .     S
Cu979  O1005   1.979   .     S
Cu979  O1007   1.959   .     S
Cu979  N993    2.018   .     S
Cu979  O1003   1.949   .     S
H981   O1008   0.992   .     S
H982   O999    0.974   .     S
H983   O1000   0.990   .     S
O1000  C395    1.383   1_556 S
C1009  C1017   1.462   .     S
C1009  O1064   1.292   .     A
C1009  O1061   1.300   .     A
C1010  C1012   1.474   .     S
C1010  C1027   1.399   .     A
C1010  C1031   1.412   .     A
C1011  C1017   1.415   .     A
C1011  C1034   1.456   .     S
C1011  C635    1.395   1_565 S
C1012  O1065   1.296   .     A
C1012  O1066   1.301   .     A
C1013  C1032   1.453   .     S
C1013  C1014   1.420   .     A
C1014  C1015   1.401   .     A
C1014  C1023   1.465   .     S
C1015  H1043   1.083   .     S
C1016  H1047   1.083   .     S
C1016  C1017   1.401   .     A
C1016  C637    1.385   1_565 S
C1018  O1071   1.375   .     S
C1018  N1056   1.374   .     A
C1018  C1082   1.428   .     S
C1019  N1055   1.362   .     A
C1019  H1048   1.082   .     S
C1020  C1031   1.421   .     A
C1020  C462    1.432   1_556 S
C1020  C468    1.430   1_556 S
C1021  N1055   1.393   .     A
C1021  O1062   1.375   .     S
C1022  H1049   1.082   .     S
C1022  N1056   1.350   .     A
C1022  C1084   1.406   .     S
C1023  O1068   1.289   .     A
C1023  O1067   1.304   .     A
C1024  O1070   1.295   .     A
C1024  O1069   1.303   .     A
C1024  C1026   1.475   .     S
C1025  C1040   1.402   .     A
C1026  C1040   1.416   .     A
C1026  C1039   1.397   .     A
C1027  C1028   1.387   .     A
C1027  H1052   1.083   .     S
C1028  H1053   1.084   .     S
C1028  C462    1.397   1_556 S
C1029  C1033   1.445   .     S
C1030  C1040   1.448   .     S
C1030  N1057   1.158   .     T
C1031  C1038   1.404   .     A
C1032  N1058   1.157   .     T
C1033  N1059   1.157   .     T
C1034  N1060   1.158   .     T
C1035  C1039   1.397   .     A
C1036  C1037   1.397   .     A
C1036  C458    1.417   1_556 S
C1036  C468    1.421   1_556 S
C1037  C1038   1.382   .     A
C1037  H1050   1.082   .     S
C1038  H1054   1.079   .     S
C1039  H1051   1.077   .     S
Cu1041 Cu1042  2.686   .     S
Cu1041 O1067   1.979   .     S
Cu1041 O1065   1.959   .     S
Cu1041 O1061   1.979   .     S
Cu1041 N1055   2.018   .     S
Cu1041 O1069   1.949   .     S
Cu1042 O1064   1.979   .     S
Cu1042 O1068   1.979   .     S
Cu1042 O1070   1.959   .     S
Cu1042 N1056   2.018   .     S
Cu1042 O1066   1.949   .     S
H1044  O1071   0.992   .     S
H1045  O1062   0.974   .     S
H1046  O1063   0.990   .     S
O1063  C458    1.383   1_556 S
C1072  C1080   1.462   .     S
C1072  O1127   1.292   .     A
C1072  O1124   1.300   .     A
C1073  C1075   1.474   .     S
C1073  C1090   1.399   .     A
C1073  C1094   1.412   .     A
C1074  C1080   1.415   .     A
C1074  C1097   1.456   .     S
C1074  C698    1.395   1_565 S
C1075  O1128   1.296   .     A
C1075  O1129   1.301   .     A
C1076  C1095   1.453   .     S
C1076  C1077   1.420   .     A
C1077  C1078   1.401   .     A
C1077  C1086   1.465   .     S
C1078  H1106   1.083   .     S
C1079  H1110   1.083   .     S
C1079  C1080   1.401   .     A
C1079  C700    1.385   1_565 S
C1081  O1134   1.375   .     S
C1081  N1119   1.374   .     A
C1081  C956    1.428   1_655 S
C1082  N1118   1.362   .     A
C1082  H1111   1.082   .     S
C1083  C1094   1.421   .     A
C1083  C525    1.432   1_556 S
C1083  C531    1.430   1_556 S
C1084  N1118   1.393   .     A
C1084  O1125   1.375   .     S
C1085  H1112   1.082   .     S
C1085  N1119   1.350   .     A
C1085  C958    1.406   1_655 S
C1086  O1131   1.289   .     A
C1086  O1130   1.304   .     A
C1087  O1133   1.295   .     A
C1087  O1132   1.303   .     A
C1087  C1089   1.475   .     S
C1088  C1103   1.402   .     A
C1089  C1103   1.416   .     A
C1089  C1102   1.397   .     A
C1090  C1091   1.387   .     A
C1090  H1115   1.083   .     S
C1091  H1116   1.084   .     S
C1091  C525    1.397   1_556 S
C1092  C1096   1.445   .     S
C1093  C1103   1.448   .     S
C1093  N1120   1.158   .     T
C1094  C1101   1.404   .     A
C1095  N1121   1.157   .     T
C1096  N1122   1.157   .     T
C1097  N1123   1.158   .     T
C1098  C1102   1.397   .     A
C1099  C1100   1.397   .     A
C1099  C521    1.417   1_556 S
C1099  C531    1.421   1_556 S
C1100  C1101   1.382   .     A
C1100  H1113   1.082   .     S
C1101  H1117   1.079   .     S
C1102  H1114   1.077   .     S
Cu1104 Cu1105  2.686   .     S
Cu1104 O1130   1.979   .     S
Cu1104 O1128   1.959   .     S
Cu1104 O1124   1.979   .     S
Cu1104 N1118   2.018   .     S
Cu1104 O1132   1.949   .     S
Cu1105 O1127   1.979   .     S
Cu1105 O1131   1.979   .     S
Cu1105 O1133   1.959   .     S
Cu1105 N1119   2.018   .     S
Cu1105 O1129   1.949   .     S
H1107  O1134   0.992   .     S
H1108  O1125   0.974   .     S
H1109  O1126   0.990   .     S
O1126  C521    1.383   1_556 S
