data_str_m2_o2_o5_pcu_sym.13
_audit_creation_date              2020-01-03
_audit_creation_method            'Materials Studio'
_symmetry_space_group_name_H-M    'P1'
_symmetry_Int_Tables_number       1
_symmetry_cell_setting            triclinic
loop_
_symmetry_equiv_pos_as_xyz
  x,y,z
_cell_length_a                    30.2845
_cell_length_b                    27.6922
_cell_length_c                    27.2591
_cell_angle_alpha                 90.0000
_cell_angle_beta                  89.9969
_cell_angle_gamma                 90.0000
loop_
_atom_site_label
_atom_site_type_symbol
_atom_site_fract_x
_atom_site_fract_y
_atom_site_fract_z
_atom_site_U_iso_or_equiv
_atom_site_adp_type
_atom_site_occupancy
C1     C     0.16492   0.25000   0.16667   0.00000  Uiso   1.00
C2     C     0.27879   0.44605   0.19795   0.00000  Uiso   1.00
C3     C     0.25000   0.25000   0.07349   0.00000  Uiso   1.00
C4     C     0.25000   0.25000   0.25984   0.00000  Uiso   1.00
C5     C     0.25000   0.02733   0.16667   0.00000  Uiso   1.00
C6     C     0.25000   0.47267   0.16667   0.00000  Uiso   1.00
C7     C     0.25000   0.25000   0.02183   0.00000  Uiso   1.00
C8     C     0.25000   0.25000   0.31150   0.00000  Uiso   1.00
C9     C     0.04761   0.29129   0.18154   0.00000  Uiso   1.00
C10    C     0.45239   0.20871   0.18153   0.00000  Uiso   1.00
C11    C     0.45239   0.29129   0.15179   0.00000  Uiso   1.00
C12    C     0.33508   0.25000   0.16666   0.00000  Uiso   1.00
C13    C     0.04761   0.20871   0.15180   0.00000  Uiso   1.00
C14    C     0.09351   0.29140   0.18119   0.00000  Uiso   1.00
C15    C     0.40649   0.20860   0.18118   0.00000  Uiso   1.00
C16    C     0.40649   0.29140   0.15214   0.00000  Uiso   1.00
C17    C     0.09351   0.20860   0.15215   0.00000  Uiso   1.00
C18    C     0.11670   0.25000   0.16667   0.00000  Uiso   1.00
C19    C     0.38330   0.25000   0.16666   0.00000  Uiso   1.00
C20    C     0.02428   0.25000   0.16667   0.00000  Uiso   1.00
C21    C     0.47572   0.25000   0.16667   0.00000  Uiso   1.00
C22    C     0.22212   0.10480   0.19691   0.00000  Uiso   1.00
C23    C     0.22212   0.39520   0.13643   0.00000  Uiso   1.00
C24    C     0.27788   0.10480   0.13642   0.00000  Uiso   1.00
C25    C     0.27788   0.39520   0.19691   0.00000  Uiso   1.00
C26    C     0.22121   0.05395   0.19795   0.00000  Uiso   1.00
C27    C     0.22121   0.44605   0.13538   0.00000  Uiso   1.00
C28    C     0.27879   0.05395   0.13538   0.00000  Uiso   1.00
Cu29   Cu    0.25000   0.29822   0.16667   0.00000  Uiso   1.00
Cu30   Cu    0.25000   0.20179   0.16667   0.00000  Uiso   1.00
H31    H     0.20020   0.12490   0.22071   0.00000  Uiso   1.00
H32    H     0.38918   0.17637   0.19292   0.00000  Uiso   1.00
H33    H     0.38918   0.32363   0.14040   0.00000  Uiso   1.00
H34    H     0.11082   0.17637   0.14041   0.00000  Uiso   1.00
H35    H     0.19418   0.49691   0.22780   0.00000  Uiso   1.00
H36    H     0.19418   0.00309   0.10554   0.00000  Uiso   1.00
H37    H     0.30582   0.49691   0.10552   0.00000  Uiso   1.00
H38    H     0.30582   0.00310   0.22780   0.00000  Uiso   1.00
H39    H     0.20020   0.37510   0.11263   0.00000  Uiso   1.00
H40    H     0.29980   0.12490   0.11263   0.00000  Uiso   1.00
H41    H     0.29980   0.37510   0.22070   0.00000  Uiso   1.00
H42    H     0.03041   0.32330   0.19401   0.00000  Uiso   1.00
H43    H     0.46959   0.17670   0.19400   0.00000  Uiso   1.00
H44    H     0.46959   0.32330   0.13933   0.00000  Uiso   1.00
H45    H     0.03041   0.17670   0.13933   0.00000  Uiso   1.00
H46    H     0.11082   0.32363   0.19293   0.00000  Uiso   1.00
N47    N     0.25000   0.12935   0.16667   0.00000  Uiso   1.00
N48    N     0.25000   0.37066   0.16667   0.00000  Uiso   1.00
O49    O     0.18573   0.29072   0.16667   0.00000  Uiso   1.00
O50    O     0.19182   0.46756   0.10336   0.00000  Uiso   1.00
O51    O     0.30818   0.03244   0.10335   0.00000  Uiso   1.00
O52    O     0.30818   0.46756   0.22998   0.00000  Uiso   1.00
O53    O     0.31427   0.20929   0.16666   0.00000  Uiso   1.00
O54    O     0.31427   0.29072   0.16666   0.00000  Uiso   1.00
O55    O     0.18573   0.20929   0.16667   0.00000  Uiso   1.00
O56    O     0.25000   0.29071   0.09613   0.00000  Uiso   1.00
O57    O     0.25000   0.20929   0.23720   0.00000  Uiso   1.00
O58    O     0.25000   0.29071   0.23720   0.00000  Uiso   1.00
O59    O     0.25000   0.20929   0.09613   0.00000  Uiso   1.00
O60    O     0.19182   0.03244   0.22998   0.00000  Uiso   1.00
C61    C     0.66492   0.25000   0.16667   0.00000  Uiso   1.00
C62    C     0.77879   0.44605   0.19795   0.00000  Uiso   1.00
C63    C     0.75000   0.25000   0.07349   0.00000  Uiso   1.00
C64    C     0.75000   0.25000   0.25984   0.00000  Uiso   1.00
C65    C     0.75000   0.02733   0.16667   0.00000  Uiso   1.00
C66    C     0.75000   0.47267   0.16667   0.00000  Uiso   1.00
C67    C     0.75000   0.25000   0.02183   0.00000  Uiso   1.00
C68    C     0.75000   0.25000   0.31150   0.00000  Uiso   1.00
C69    C     0.54761   0.29129   0.18154   0.00000  Uiso   1.00
C70    C     0.95239   0.20871   0.18153   0.00000  Uiso   1.00
C71    C     0.95239   0.29129   0.15179   0.00000  Uiso   1.00
C72    C     0.83508   0.25000   0.16666   0.00000  Uiso   1.00
C73    C     0.54761   0.20871   0.15180   0.00000  Uiso   1.00
C74    C     0.59351   0.29140   0.18119   0.00000  Uiso   1.00
C75    C     0.90649   0.20860   0.18118   0.00000  Uiso   1.00
C76    C     0.90649   0.29140   0.15214   0.00000  Uiso   1.00
C77    C     0.59351   0.20860   0.15215   0.00000  Uiso   1.00
C78    C     0.61670   0.25000   0.16667   0.00000  Uiso   1.00
C79    C     0.88330   0.25000   0.16666   0.00000  Uiso   1.00
C80    C     0.52428   0.25000   0.16667   0.00000  Uiso   1.00
C81    C     0.97572   0.25000   0.16667   0.00000  Uiso   1.00
C82    C     0.72212   0.10480   0.19691   0.00000  Uiso   1.00
C83    C     0.72212   0.39520   0.13643   0.00000  Uiso   1.00
C84    C     0.77788   0.10480   0.13642   0.00000  Uiso   1.00
C85    C     0.77788   0.39520   0.19691   0.00000  Uiso   1.00
C86    C     0.72121   0.05395   0.19795   0.00000  Uiso   1.00
C87    C     0.72121   0.44605   0.13538   0.00000  Uiso   1.00
C88    C     0.77879   0.05395   0.13538   0.00000  Uiso   1.00
Cu89   Cu    0.75000   0.29822   0.16667   0.00000  Uiso   1.00
Cu90   Cu    0.75000   0.20179   0.16667   0.00000  Uiso   1.00
H91    H     0.70020   0.12490   0.22071   0.00000  Uiso   1.00
H92    H     0.88918   0.17637   0.19292   0.00000  Uiso   1.00
H93    H     0.88918   0.32363   0.14040   0.00000  Uiso   1.00
H94    H     0.61082   0.17637   0.14041   0.00000  Uiso   1.00
H95    H     0.69418   0.49691   0.22780   0.00000  Uiso   1.00
H96    H     0.69418   0.00309   0.10554   0.00000  Uiso   1.00
H97    H     0.80582   0.49691   0.10552   0.00000  Uiso   1.00
H98    H     0.80582   0.00310   0.22780   0.00000  Uiso   1.00
H99    H     0.70020   0.37510   0.11263   0.00000  Uiso   1.00
H100   H     0.79980   0.12490   0.11263   0.00000  Uiso   1.00
H101   H     0.79980   0.37510   0.22070   0.00000  Uiso   1.00
H102   H     0.53041   0.32330   0.19401   0.00000  Uiso   1.00
H103   H     0.96959   0.17670   0.19400   0.00000  Uiso   1.00
H104   H     0.96959   0.32330   0.13933   0.00000  Uiso   1.00
H105   H     0.53041   0.17670   0.13933   0.00000  Uiso   1.00
H106   H     0.61082   0.32363   0.19293   0.00000  Uiso   1.00
N107   N     0.75000   0.12935   0.16667   0.00000  Uiso   1.00
N108   N     0.75000   0.37066   0.16667   0.00000  Uiso   1.00
O109   O     0.68573   0.29072   0.16667   0.00000  Uiso   1.00
O110   O     0.69182   0.46756   0.10336   0.00000  Uiso   1.00
O111   O     0.80818   0.03244   0.10335   0.00000  Uiso   1.00
O112   O     0.80818   0.46756   0.22998   0.00000  Uiso   1.00
O113   O     0.81427   0.20929   0.16666   0.00000  Uiso   1.00
O114   O     0.81427   0.29072   0.16666   0.00000  Uiso   1.00
O115   O     0.68573   0.20929   0.16667   0.00000  Uiso   1.00
O116   O     0.75000   0.29071   0.09613   0.00000  Uiso   1.00
O117   O     0.75000   0.20929   0.23720   0.00000  Uiso   1.00
O118   O     0.75000   0.29071   0.23720   0.00000  Uiso   1.00
O119   O     0.75000   0.20929   0.09613   0.00000  Uiso   1.00
O120   O     0.69182   0.03244   0.22998   0.00000  Uiso   1.00
C121   C     0.16492   0.75000   0.16667   0.00000  Uiso   1.00
C122   C     0.27879   0.94605   0.19795   0.00000  Uiso   1.00
C123   C     0.25000   0.75000   0.07349   0.00000  Uiso   1.00
C124   C     0.25000   0.75000   0.25984   0.00000  Uiso   1.00
C125   C     0.25000   0.52733   0.16667   0.00000  Uiso   1.00
C126   C     0.25000   0.97267   0.16667   0.00000  Uiso   1.00
C127   C     0.25000   0.75000   0.02183   0.00000  Uiso   1.00
C128   C     0.25000   0.75000   0.31150   0.00000  Uiso   1.00
C129   C     0.04761   0.79129   0.18154   0.00000  Uiso   1.00
C130   C     0.45239   0.70871   0.18153   0.00000  Uiso   1.00
C131   C     0.45239   0.79129   0.15179   0.00000  Uiso   1.00
C132   C     0.33508   0.75000   0.16666   0.00000  Uiso   1.00
C133   C     0.04761   0.70871   0.15180   0.00000  Uiso   1.00
C134   C     0.09351   0.79140   0.18119   0.00000  Uiso   1.00
C135   C     0.40649   0.70860   0.18118   0.00000  Uiso   1.00
C136   C     0.40649   0.79140   0.15214   0.00000  Uiso   1.00
C137   C     0.09351   0.70860   0.15215   0.00000  Uiso   1.00
C138   C     0.11670   0.75000   0.16667   0.00000  Uiso   1.00
C139   C     0.38330   0.75000   0.16666   0.00000  Uiso   1.00
C140   C     0.02428   0.75000   0.16667   0.00000  Uiso   1.00
C141   C     0.47572   0.75000   0.16667   0.00000  Uiso   1.00
C142   C     0.22212   0.60480   0.19691   0.00000  Uiso   1.00
C143   C     0.22212   0.89520   0.13643   0.00000  Uiso   1.00
C144   C     0.27788   0.60480   0.13642   0.00000  Uiso   1.00
C145   C     0.27788   0.89520   0.19691   0.00000  Uiso   1.00
C146   C     0.22121   0.55395   0.19795   0.00000  Uiso   1.00
C147   C     0.22121   0.94605   0.13538   0.00000  Uiso   1.00
C148   C     0.27879   0.55395   0.13538   0.00000  Uiso   1.00
Cu149  Cu    0.25000   0.79822   0.16667   0.00000  Uiso   1.00
Cu150  Cu    0.25000   0.70179   0.16667   0.00000  Uiso   1.00
H151   H     0.20020   0.62490   0.22071   0.00000  Uiso   1.00
H152   H     0.38918   0.67637   0.19292   0.00000  Uiso   1.00
H153   H     0.38918   0.82363   0.14040   0.00000  Uiso   1.00
H154   H     0.11082   0.67637   0.14041   0.00000  Uiso   1.00
H155   H     0.19418   0.99691   0.22780   0.00000  Uiso   1.00
H156   H     0.19418   0.50309   0.10554   0.00000  Uiso   1.00
H157   H     0.30582   0.99691   0.10552   0.00000  Uiso   1.00
H158   H     0.30582   0.50310   0.22780   0.00000  Uiso   1.00
H159   H     0.20020   0.87510   0.11263   0.00000  Uiso   1.00
H160   H     0.29980   0.62490   0.11263   0.00000  Uiso   1.00
H161   H     0.29980   0.87510   0.22070   0.00000  Uiso   1.00
H162   H     0.03041   0.82330   0.19401   0.00000  Uiso   1.00
H163   H     0.46959   0.67670   0.19400   0.00000  Uiso   1.00
H164   H     0.46959   0.82330   0.13933   0.00000  Uiso   1.00
H165   H     0.03041   0.67670   0.13933   0.00000  Uiso   1.00
H166   H     0.11082   0.82363   0.19293   0.00000  Uiso   1.00
N167   N     0.25000   0.62935   0.16667   0.00000  Uiso   1.00
N168   N     0.25000   0.87066   0.16667   0.00000  Uiso   1.00
O169   O     0.18573   0.79072   0.16667   0.00000  Uiso   1.00
O170   O     0.19182   0.96756   0.10336   0.00000  Uiso   1.00
O171   O     0.30818   0.53244   0.10335   0.00000  Uiso   1.00
O172   O     0.30818   0.96756   0.22998   0.00000  Uiso   1.00
O173   O     0.31427   0.70929   0.16666   0.00000  Uiso   1.00
O174   O     0.31427   0.79072   0.16666   0.00000  Uiso   1.00
O175   O     0.18573   0.70929   0.16667   0.00000  Uiso   1.00
O176   O     0.25000   0.79071   0.09613   0.00000  Uiso   1.00
O177   O     0.25000   0.70929   0.23720   0.00000  Uiso   1.00
O178   O     0.25000   0.79071   0.23720   0.00000  Uiso   1.00
O179   O     0.25000   0.70929   0.09613   0.00000  Uiso   1.00
O180   O     0.19182   0.53244   0.22998   0.00000  Uiso   1.00
C181   C     0.66492   0.75000   0.16667   0.00000  Uiso   1.00
C182   C     0.77879   0.94605   0.19795   0.00000  Uiso   1.00
C183   C     0.75000   0.75000   0.07349   0.00000  Uiso   1.00
C184   C     0.75000   0.75000   0.25984   0.00000  Uiso   1.00
C185   C     0.75000   0.52733   0.16667   0.00000  Uiso   1.00
C186   C     0.75000   0.97267   0.16667   0.00000  Uiso   1.00
C187   C     0.75000   0.75000   0.02183   0.00000  Uiso   1.00
C188   C     0.75000   0.75000   0.31150   0.00000  Uiso   1.00
C189   C     0.54761   0.79129   0.18154   0.00000  Uiso   1.00
C190   C     0.95239   0.70871   0.18153   0.00000  Uiso   1.00
C191   C     0.95239   0.79129   0.15179   0.00000  Uiso   1.00
C192   C     0.83508   0.75000   0.16666   0.00000  Uiso   1.00
C193   C     0.54761   0.70871   0.15180   0.00000  Uiso   1.00
C194   C     0.59351   0.79140   0.18119   0.00000  Uiso   1.00
C195   C     0.90649   0.70860   0.18118   0.00000  Uiso   1.00
C196   C     0.90649   0.79140   0.15214   0.00000  Uiso   1.00
C197   C     0.59351   0.70860   0.15215   0.00000  Uiso   1.00
C198   C     0.61670   0.75000   0.16667   0.00000  Uiso   1.00
C199   C     0.88330   0.75000   0.16666   0.00000  Uiso   1.00
C200   C     0.52428   0.75000   0.16667   0.00000  Uiso   1.00
C201   C     0.97572   0.75000   0.16667   0.00000  Uiso   1.00
C202   C     0.72212   0.60480   0.19691   0.00000  Uiso   1.00
C203   C     0.72212   0.89520   0.13643   0.00000  Uiso   1.00
C204   C     0.77788   0.60480   0.13642   0.00000  Uiso   1.00
C205   C     0.77788   0.89520   0.19691   0.00000  Uiso   1.00
C206   C     0.72121   0.55395   0.19795   0.00000  Uiso   1.00
C207   C     0.72121   0.94605   0.13538   0.00000  Uiso   1.00
C208   C     0.77879   0.55395   0.13538   0.00000  Uiso   1.00
Cu209  Cu    0.75000   0.79822   0.16667   0.00000  Uiso   1.00
Cu210  Cu    0.75000   0.70179   0.16667   0.00000  Uiso   1.00
H211   H     0.70020   0.62490   0.22071   0.00000  Uiso   1.00
H212   H     0.88918   0.67637   0.19292   0.00000  Uiso   1.00
H213   H     0.88918   0.82363   0.14040   0.00000  Uiso   1.00
H214   H     0.61082   0.67637   0.14041   0.00000  Uiso   1.00
H215   H     0.69418   0.99691   0.22780   0.00000  Uiso   1.00
H216   H     0.69418   0.50309   0.10554   0.00000  Uiso   1.00
H217   H     0.80582   0.99691   0.10552   0.00000  Uiso   1.00
H218   H     0.80582   0.50310   0.22780   0.00000  Uiso   1.00
H219   H     0.70020   0.87510   0.11263   0.00000  Uiso   1.00
H220   H     0.79980   0.62490   0.11263   0.00000  Uiso   1.00
H221   H     0.79980   0.87510   0.22070   0.00000  Uiso   1.00
H222   H     0.53041   0.82330   0.19401   0.00000  Uiso   1.00
H223   H     0.96959   0.67670   0.19400   0.00000  Uiso   1.00
H224   H     0.96959   0.82330   0.13933   0.00000  Uiso   1.00
H225   H     0.53041   0.67670   0.13933   0.00000  Uiso   1.00
H226   H     0.61082   0.82363   0.19293   0.00000  Uiso   1.00
N227   N     0.75000   0.62935   0.16667   0.00000  Uiso   1.00
N228   N     0.75000   0.87066   0.16667   0.00000  Uiso   1.00
O229   O     0.68573   0.79072   0.16667   0.00000  Uiso   1.00
O230   O     0.69182   0.96756   0.10336   0.00000  Uiso   1.00
O231   O     0.80818   0.53244   0.10335   0.00000  Uiso   1.00
O232   O     0.80818   0.96756   0.22998   0.00000  Uiso   1.00
O233   O     0.81427   0.70929   0.16666   0.00000  Uiso   1.00
O234   O     0.81427   0.79072   0.16666   0.00000  Uiso   1.00
O235   O     0.68573   0.70929   0.16667   0.00000  Uiso   1.00
O236   O     0.75000   0.79071   0.09613   0.00000  Uiso   1.00
O237   O     0.75000   0.70929   0.23720   0.00000  Uiso   1.00
O238   O     0.75000   0.79071   0.23720   0.00000  Uiso   1.00
O239   O     0.75000   0.70929   0.09613   0.00000  Uiso   1.00
O240   O     0.69182   0.53244   0.22998   0.00000  Uiso   1.00
C241   C     0.16492   0.25000   0.50000   0.00000  Uiso   1.00
C242   C     0.27879   0.44605   0.53128   0.00000  Uiso   1.00
C243   C     0.25000   0.25000   0.40683   0.00000  Uiso   1.00
C244   C     0.25000   0.25000   0.59317   0.00000  Uiso   1.00
C245   C     0.25000   0.02733   0.50000   0.00000  Uiso   1.00
C246   C     0.25000   0.47267   0.50000   0.00000  Uiso   1.00
C247   C     0.25000   0.25000   0.35516   0.00000  Uiso   1.00
C248   C     0.25000   0.25000   0.64484   0.00000  Uiso   1.00
C249   C     0.04761   0.29129   0.51487   0.00000  Uiso   1.00
C250   C     0.45239   0.20871   0.51487   0.00000  Uiso   1.00
C251   C     0.45239   0.29129   0.48513   0.00000  Uiso   1.00
C252   C     0.33508   0.25000   0.50000   0.00000  Uiso   1.00
C253   C     0.04761   0.20871   0.48513   0.00000  Uiso   1.00
C254   C     0.09351   0.29140   0.51452   0.00000  Uiso   1.00
C255   C     0.40649   0.20860   0.51452   0.00000  Uiso   1.00
C256   C     0.40649   0.29140   0.48548   0.00000  Uiso   1.00
C257   C     0.09351   0.20860   0.48548   0.00000  Uiso   1.00
C258   C     0.11670   0.25000   0.50000   0.00000  Uiso   1.00
C259   C     0.38330   0.25000   0.50000   0.00000  Uiso   1.00
C260   C     0.02428   0.25000   0.50000   0.00000  Uiso   1.00
C261   C     0.47572   0.25000   0.50000   0.00000  Uiso   1.00
C262   C     0.22212   0.10480   0.53024   0.00000  Uiso   1.00
C263   C     0.22212   0.39520   0.46976   0.00000  Uiso   1.00
C264   C     0.27788   0.10480   0.46976   0.00000  Uiso   1.00
C265   C     0.27788   0.39520   0.53024   0.00000  Uiso   1.00
C266   C     0.22121   0.05395   0.53129   0.00000  Uiso   1.00
C267   C     0.22121   0.44605   0.46872   0.00000  Uiso   1.00
C268   C     0.27879   0.05395   0.46871   0.00000  Uiso   1.00
Cu269  Cu    0.25000   0.29822   0.50000   0.00000  Uiso   1.00
Cu270  Cu    0.25000   0.20179   0.50000   0.00000  Uiso   1.00
H271   H     0.20020   0.12490   0.55404   0.00000  Uiso   1.00
H272   H     0.38918   0.17637   0.52626   0.00000  Uiso   1.00
H273   H     0.38918   0.32363   0.47374   0.00000  Uiso   1.00
H274   H     0.11082   0.17637   0.47374   0.00000  Uiso   1.00
H275   H     0.19418   0.49691   0.56114   0.00000  Uiso   1.00
H276   H     0.19418   0.00309   0.43887   0.00000  Uiso   1.00
H277   H     0.30582   0.49691   0.43886   0.00000  Uiso   1.00
H278   H     0.30582   0.00310   0.56113   0.00000  Uiso   1.00
H279   H     0.20020   0.37510   0.44597   0.00000  Uiso   1.00
H280   H     0.29980   0.12490   0.44596   0.00000  Uiso   1.00
H281   H     0.29980   0.37510   0.55403   0.00000  Uiso   1.00
H282   H     0.03041   0.32330   0.52734   0.00000  Uiso   1.00
H283   H     0.46959   0.17670   0.52734   0.00000  Uiso   1.00
H284   H     0.46959   0.32330   0.47266   0.00000  Uiso   1.00
H285   H     0.03041   0.17670   0.47266   0.00000  Uiso   1.00
H286   H     0.11082   0.32363   0.52626   0.00000  Uiso   1.00
N287   N     0.25000   0.12935   0.50000   0.00000  Uiso   1.00
N288   N     0.25000   0.37066   0.50000   0.00000  Uiso   1.00
O289   O     0.18573   0.29072   0.50000   0.00000  Uiso   1.00
O290   O     0.19182   0.46756   0.43669   0.00000  Uiso   1.00
O291   O     0.30818   0.03244   0.43668   0.00000  Uiso   1.00
O292   O     0.30818   0.46756   0.56331   0.00000  Uiso   1.00
O293   O     0.31427   0.20929   0.50000   0.00000  Uiso   1.00
O294   O     0.31427   0.29072   0.50000   0.00000  Uiso   1.00
O295   O     0.18573   0.20929   0.50000   0.00000  Uiso   1.00
O296   O     0.25000   0.29071   0.42946   0.00000  Uiso   1.00
O297   O     0.25000   0.20929   0.57054   0.00000  Uiso   1.00
O298   O     0.25000   0.29071   0.57054   0.00000  Uiso   1.00
O299   O     0.25000   0.20929   0.42946   0.00000  Uiso   1.00
O300   O     0.19182   0.03244   0.56332   0.00000  Uiso   1.00
C301   C     0.66492   0.25000   0.50000   0.00000  Uiso   1.00
C302   C     0.77879   0.44605   0.53128   0.00000  Uiso   1.00
C303   C     0.75000   0.25000   0.40683   0.00000  Uiso   1.00
C304   C     0.75000   0.25000   0.59317   0.00000  Uiso   1.00
C305   C     0.75000   0.02733   0.50000   0.00000  Uiso   1.00
C306   C     0.75000   0.47267   0.50000   0.00000  Uiso   1.00
C307   C     0.75000   0.25000   0.35516   0.00000  Uiso   1.00
C308   C     0.75000   0.25000   0.64484   0.00000  Uiso   1.00
C309   C     0.54761   0.29129   0.51487   0.00000  Uiso   1.00
C310   C     0.95239   0.20871   0.51487   0.00000  Uiso   1.00
C311   C     0.95239   0.29129   0.48513   0.00000  Uiso   1.00
C312   C     0.83508   0.25000   0.50000   0.00000  Uiso   1.00
C313   C     0.54761   0.20871   0.48513   0.00000  Uiso   1.00
C314   C     0.59351   0.29140   0.51452   0.00000  Uiso   1.00
C315   C     0.90649   0.20860   0.51452   0.00000  Uiso   1.00
C316   C     0.90649   0.29140   0.48548   0.00000  Uiso   1.00
C317   C     0.59351   0.20860   0.48548   0.00000  Uiso   1.00
C318   C     0.61670   0.25000   0.50000   0.00000  Uiso   1.00
C319   C     0.88330   0.25000   0.50000   0.00000  Uiso   1.00
C320   C     0.52428   0.25000   0.50000   0.00000  Uiso   1.00
C321   C     0.97572   0.25000   0.50000   0.00000  Uiso   1.00
C322   C     0.72212   0.10480   0.53024   0.00000  Uiso   1.00
C323   C     0.72212   0.39520   0.46976   0.00000  Uiso   1.00
C324   C     0.77788   0.10480   0.46976   0.00000  Uiso   1.00
C325   C     0.77788   0.39520   0.53024   0.00000  Uiso   1.00
C326   C     0.72121   0.05395   0.53129   0.00000  Uiso   1.00
C327   C     0.72121   0.44605   0.46872   0.00000  Uiso   1.00
C328   C     0.77879   0.05395   0.46871   0.00000  Uiso   1.00
Cu329  Cu    0.75000   0.29822   0.50000   0.00000  Uiso   1.00
Cu330  Cu    0.75000   0.20179   0.50000   0.00000  Uiso   1.00
H331   H     0.70020   0.12490   0.55404   0.00000  Uiso   1.00
H332   H     0.88918   0.17637   0.52626   0.00000  Uiso   1.00
H333   H     0.88918   0.32363   0.47374   0.00000  Uiso   1.00
H334   H     0.61082   0.17637   0.47374   0.00000  Uiso   1.00
H335   H     0.69418   0.49691   0.56114   0.00000  Uiso   1.00
H336   H     0.69418   0.00309   0.43887   0.00000  Uiso   1.00
H337   H     0.80582   0.49691   0.43886   0.00000  Uiso   1.00
H338   H     0.80582   0.00310   0.56113   0.00000  Uiso   1.00
H339   H     0.70020   0.37510   0.44597   0.00000  Uiso   1.00
H340   H     0.79980   0.12490   0.44596   0.00000  Uiso   1.00
H341   H     0.79980   0.37510   0.55403   0.00000  Uiso   1.00
H342   H     0.53041   0.32330   0.52734   0.00000  Uiso   1.00
H343   H     0.96959   0.17670   0.52734   0.00000  Uiso   1.00
H344   H     0.96959   0.32330   0.47266   0.00000  Uiso   1.00
H345   H     0.53041   0.17670   0.47266   0.00000  Uiso   1.00
H346   H     0.61082   0.32363   0.52626   0.00000  Uiso   1.00
N347   N     0.75000   0.12935   0.50000   0.00000  Uiso   1.00
N348   N     0.75000   0.37066   0.50000   0.00000  Uiso   1.00
O349   O     0.68573   0.29072   0.50000   0.00000  Uiso   1.00
O350   O     0.69182   0.46756   0.43669   0.00000  Uiso   1.00
O351   O     0.80818   0.03244   0.43668   0.00000  Uiso   1.00
O352   O     0.80818   0.46756   0.56331   0.00000  Uiso   1.00
O353   O     0.81427   0.20929   0.50000   0.00000  Uiso   1.00
O354   O     0.81427   0.29072   0.50000   0.00000  Uiso   1.00
O355   O     0.68573   0.20929   0.50000   0.00000  Uiso   1.00
O356   O     0.75000   0.29071   0.42946   0.00000  Uiso   1.00
O357   O     0.75000   0.20929   0.57054   0.00000  Uiso   1.00
O358   O     0.75000   0.29071   0.57054   0.00000  Uiso   1.00
O359   O     0.75000   0.20929   0.42946   0.00000  Uiso   1.00
O360   O     0.69182   0.03244   0.56332   0.00000  Uiso   1.00
C361   C     0.16492   0.75000   0.50000   0.00000  Uiso   1.00
C362   C     0.27879   0.94605   0.53128   0.00000  Uiso   1.00
C363   C     0.25000   0.75000   0.40683   0.00000  Uiso   1.00
C364   C     0.25000   0.75000   0.59317   0.00000  Uiso   1.00
C365   C     0.25000   0.52733   0.50000   0.00000  Uiso   1.00
C366   C     0.25000   0.97267   0.50000   0.00000  Uiso   1.00
C367   C     0.25000   0.75000   0.35516   0.00000  Uiso   1.00
C368   C     0.25000   0.75000   0.64484   0.00000  Uiso   1.00
C369   C     0.04761   0.79129   0.51487   0.00000  Uiso   1.00
C370   C     0.45239   0.70871   0.51487   0.00000  Uiso   1.00
C371   C     0.45239   0.79129   0.48513   0.00000  Uiso   1.00
C372   C     0.33508   0.75000   0.50000   0.00000  Uiso   1.00
C373   C     0.04761   0.70871   0.48513   0.00000  Uiso   1.00
C374   C     0.09351   0.79140   0.51452   0.00000  Uiso   1.00
C375   C     0.40649   0.70860   0.51452   0.00000  Uiso   1.00
C376   C     0.40649   0.79140   0.48548   0.00000  Uiso   1.00
C377   C     0.09351   0.70860   0.48548   0.00000  Uiso   1.00
C378   C     0.11670   0.75000   0.50000   0.00000  Uiso   1.00
C379   C     0.38330   0.75000   0.50000   0.00000  Uiso   1.00
C380   C     0.02428   0.75000   0.50000   0.00000  Uiso   1.00
C381   C     0.47572   0.75000   0.50000   0.00000  Uiso   1.00
C382   C     0.22212   0.60480   0.53024   0.00000  Uiso   1.00
C383   C     0.22212   0.89520   0.46976   0.00000  Uiso   1.00
C384   C     0.27788   0.60480   0.46976   0.00000  Uiso   1.00
C385   C     0.27788   0.89520   0.53024   0.00000  Uiso   1.00
C386   C     0.22121   0.55395   0.53129   0.00000  Uiso   1.00
C387   C     0.22121   0.94605   0.46872   0.00000  Uiso   1.00
C388   C     0.27879   0.55395   0.46871   0.00000  Uiso   1.00
Cu389  Cu    0.25000   0.79822   0.50000   0.00000  Uiso   1.00
Cu390  Cu    0.25000   0.70179   0.50000   0.00000  Uiso   1.00
H391   H     0.20020   0.62490   0.55404   0.00000  Uiso   1.00
H392   H     0.38918   0.67637   0.52626   0.00000  Uiso   1.00
H393   H     0.38918   0.82363   0.47374   0.00000  Uiso   1.00
H394   H     0.11082   0.67637   0.47374   0.00000  Uiso   1.00
H395   H     0.19418   0.99691   0.56114   0.00000  Uiso   1.00
H396   H     0.19418   0.50309   0.43887   0.00000  Uiso   1.00
H397   H     0.30582   0.99691   0.43886   0.00000  Uiso   1.00
H398   H     0.30582   0.50310   0.56113   0.00000  Uiso   1.00
H399   H     0.20020   0.87510   0.44597   0.00000  Uiso   1.00
H400   H     0.29980   0.62490   0.44596   0.00000  Uiso   1.00
H401   H     0.29980   0.87510   0.55403   0.00000  Uiso   1.00
H402   H     0.03041   0.82330   0.52734   0.00000  Uiso   1.00
H403   H     0.46959   0.67670   0.52734   0.00000  Uiso   1.00
H404   H     0.46959   0.82330   0.47266   0.00000  Uiso   1.00
H405   H     0.03041   0.67670   0.47266   0.00000  Uiso   1.00
H406   H     0.11082   0.82363   0.52626   0.00000  Uiso   1.00
N407   N     0.25000   0.62935   0.50000   0.00000  Uiso   1.00
N408   N     0.25000   0.87066   0.50000   0.00000  Uiso   1.00
O409   O     0.18573   0.79072   0.50000   0.00000  Uiso   1.00
O410   O     0.19182   0.96756   0.43669   0.00000  Uiso   1.00
O411   O     0.30818   0.53244   0.43668   0.00000  Uiso   1.00
O412   O     0.30818   0.96756   0.56331   0.00000  Uiso   1.00
O413   O     0.31427   0.70929   0.50000   0.00000  Uiso   1.00
O414   O     0.31427   0.79072   0.50000   0.00000  Uiso   1.00
O415   O     0.18573   0.70929   0.50000   0.00000  Uiso   1.00
O416   O     0.25000   0.79071   0.42946   0.00000  Uiso   1.00
O417   O     0.25000   0.70929   0.57054   0.00000  Uiso   1.00
O418   O     0.25000   0.79071   0.57054   0.00000  Uiso   1.00
O419   O     0.25000   0.70929   0.42946   0.00000  Uiso   1.00
O420   O     0.19182   0.53244   0.56332   0.00000  Uiso   1.00
C421   C     0.66492   0.75000   0.50000   0.00000  Uiso   1.00
C422   C     0.77879   0.94605   0.53128   0.00000  Uiso   1.00
C423   C     0.75000   0.75000   0.40683   0.00000  Uiso   1.00
C424   C     0.75000   0.75000   0.59317   0.00000  Uiso   1.00
C425   C     0.75000   0.52733   0.50000   0.00000  Uiso   1.00
C426   C     0.75000   0.97267   0.50000   0.00000  Uiso   1.00
C427   C     0.75000   0.75000   0.35516   0.00000  Uiso   1.00
C428   C     0.75000   0.75000   0.64484   0.00000  Uiso   1.00
C429   C     0.54761   0.79129   0.51487   0.00000  Uiso   1.00
C430   C     0.95239   0.70871   0.51487   0.00000  Uiso   1.00
C431   C     0.95239   0.79129   0.48513   0.00000  Uiso   1.00
C432   C     0.83508   0.75000   0.50000   0.00000  Uiso   1.00
C433   C     0.54761   0.70871   0.48513   0.00000  Uiso   1.00
C434   C     0.59351   0.79140   0.51452   0.00000  Uiso   1.00
C435   C     0.90649   0.70860   0.51452   0.00000  Uiso   1.00
C436   C     0.90649   0.79140   0.48548   0.00000  Uiso   1.00
C437   C     0.59351   0.70860   0.48548   0.00000  Uiso   1.00
C438   C     0.61670   0.75000   0.50000   0.00000  Uiso   1.00
C439   C     0.88330   0.75000   0.50000   0.00000  Uiso   1.00
C440   C     0.52428   0.75000   0.50000   0.00000  Uiso   1.00
C441   C     0.97572   0.75000   0.50000   0.00000  Uiso   1.00
C442   C     0.72212   0.60480   0.53024   0.00000  Uiso   1.00
C443   C     0.72212   0.89520   0.46976   0.00000  Uiso   1.00
C444   C     0.77788   0.60480   0.46976   0.00000  Uiso   1.00
C445   C     0.77788   0.89520   0.53024   0.00000  Uiso   1.00
C446   C     0.72121   0.55395   0.53129   0.00000  Uiso   1.00
C447   C     0.72121   0.94605   0.46872   0.00000  Uiso   1.00
C448   C     0.77879   0.55395   0.46871   0.00000  Uiso   1.00
Cu449  Cu    0.75000   0.79822   0.50000   0.00000  Uiso   1.00
Cu450  Cu    0.75000   0.70179   0.50000   0.00000  Uiso   1.00
H451   H     0.70020   0.62490   0.55404   0.00000  Uiso   1.00
H452   H     0.88918   0.67637   0.52626   0.00000  Uiso   1.00
H453   H     0.88918   0.82363   0.47374   0.00000  Uiso   1.00
H454   H     0.61082   0.67637   0.47374   0.00000  Uiso   1.00
H455   H     0.69418   0.99691   0.56114   0.00000  Uiso   1.00
H456   H     0.69418   0.50309   0.43887   0.00000  Uiso   1.00
H457   H     0.80582   0.99691   0.43886   0.00000  Uiso   1.00
H458   H     0.80582   0.50310   0.56113   0.00000  Uiso   1.00
H459   H     0.70020   0.87510   0.44597   0.00000  Uiso   1.00
H460   H     0.79980   0.62490   0.44596   0.00000  Uiso   1.00
H461   H     0.79980   0.87510   0.55403   0.00000  Uiso   1.00
H462   H     0.53041   0.82330   0.52734   0.00000  Uiso   1.00
H463   H     0.96959   0.67670   0.52734   0.00000  Uiso   1.00
H464   H     0.96959   0.82330   0.47266   0.00000  Uiso   1.00
H465   H     0.53041   0.67670   0.47266   0.00000  Uiso   1.00
H466   H     0.61082   0.82363   0.52626   0.00000  Uiso   1.00
N467   N     0.75000   0.62935   0.50000   0.00000  Uiso   1.00
N468   N     0.75000   0.87066   0.50000   0.00000  Uiso   1.00
O469   O     0.68573   0.79072   0.50000   0.00000  Uiso   1.00
O470   O     0.69182   0.96756   0.43669   0.00000  Uiso   1.00
O471   O     0.80818   0.53244   0.43668   0.00000  Uiso   1.00
O472   O     0.80818   0.96756   0.56331   0.00000  Uiso   1.00
O473   O     0.81427   0.70929   0.50000   0.00000  Uiso   1.00
O474   O     0.81427   0.79072   0.50000   0.00000  Uiso   1.00
O475   O     0.68573   0.70929   0.50000   0.00000  Uiso   1.00
O476   O     0.75000   0.79071   0.42946   0.00000  Uiso   1.00
O477   O     0.75000   0.70929   0.57054   0.00000  Uiso   1.00
O478   O     0.75000   0.79071   0.57054   0.00000  Uiso   1.00
O479   O     0.75000   0.70929   0.42946   0.00000  Uiso   1.00
O480   O     0.69182   0.53244   0.56332   0.00000  Uiso   1.00
C481   C     0.16492   0.25000   0.83334   0.00000  Uiso   1.00
C482   C     0.27879   0.44605   0.86462   0.00000  Uiso   1.00
C483   C     0.25000   0.25000   0.74016   0.00000  Uiso   1.00
C484   C     0.25000   0.25000   0.92651   0.00000  Uiso   1.00
C485   C     0.25000   0.02733   0.83333   0.00000  Uiso   1.00
C486   C     0.25000   0.47267   0.83333   0.00000  Uiso   1.00
C487   C     0.25000   0.25000   0.68850   0.00000  Uiso   1.00
C488   C     0.25000   0.25000   0.97817   0.00000  Uiso   1.00
C489   C     0.04761   0.29129   0.84821   0.00000  Uiso   1.00
C490   C     0.45239   0.20871   0.84820   0.00000  Uiso   1.00
C491   C     0.45239   0.29129   0.81846   0.00000  Uiso   1.00
C492   C     0.33508   0.25000   0.83333   0.00000  Uiso   1.00
C493   C     0.04761   0.20871   0.81847   0.00000  Uiso   1.00
C494   C     0.09351   0.29140   0.84786   0.00000  Uiso   1.00
C495   C     0.40649   0.20860   0.84785   0.00000  Uiso   1.00
C496   C     0.40649   0.29140   0.81881   0.00000  Uiso   1.00
C497   C     0.09351   0.20860   0.81882   0.00000  Uiso   1.00
C498   C     0.11670   0.25000   0.83334   0.00000  Uiso   1.00
C499   C     0.38330   0.25000   0.83333   0.00000  Uiso   1.00
C500   C     0.02428   0.25000   0.83333   0.00000  Uiso   1.00
C501   C     0.47572   0.25000   0.83333   0.00000  Uiso   1.00
C502   C     0.22212   0.10480   0.86358   0.00000  Uiso   1.00
C503   C     0.22212   0.39520   0.80309   0.00000  Uiso   1.00
C504   C     0.27788   0.10480   0.80309   0.00000  Uiso   1.00
C505   C     0.27788   0.39520   0.86357   0.00000  Uiso   1.00
C506   C     0.22121   0.05395   0.86462   0.00000  Uiso   1.00
C507   C     0.22121   0.44605   0.80205   0.00000  Uiso   1.00
C508   C     0.27879   0.05395   0.80205   0.00000  Uiso   1.00
Cu509  Cu    0.25000   0.29822   0.83333   0.00000  Uiso   1.00
Cu510  Cu    0.25000   0.20179   0.83333   0.00000  Uiso   1.00
H511   H     0.20020   0.12490   0.88737   0.00000  Uiso   1.00
H512   H     0.38918   0.17637   0.85959   0.00000  Uiso   1.00
H513   H     0.38918   0.32363   0.80707   0.00000  Uiso   1.00
H514   H     0.11082   0.17637   0.80708   0.00000  Uiso   1.00
H515   H     0.19418   0.49691   0.89447   0.00000  Uiso   1.00
H516   H     0.19418   0.00309   0.77220   0.00000  Uiso   1.00
H517   H     0.30582   0.49691   0.77219   0.00000  Uiso   1.00
H518   H     0.30582   0.00310   0.89446   0.00000  Uiso   1.00
H519   H     0.20020   0.37510   0.77930   0.00000  Uiso   1.00
H520   H     0.29980   0.12490   0.77930   0.00000  Uiso   1.00
H521   H     0.29980   0.37510   0.88737   0.00000  Uiso   1.00
H522   H     0.03041   0.32330   0.86067   0.00000  Uiso   1.00
H523   H     0.46959   0.17670   0.86067   0.00000  Uiso   1.00
H524   H     0.46959   0.32330   0.80599   0.00000  Uiso   1.00
H525   H     0.03041   0.17670   0.80600   0.00000  Uiso   1.00
H526   H     0.11082   0.32363   0.85960   0.00000  Uiso   1.00
N527   N     0.25000   0.12935   0.83333   0.00000  Uiso   1.00
N528   N     0.25000   0.37066   0.83333   0.00000  Uiso   1.00
O529   O     0.18573   0.29072   0.83334   0.00000  Uiso   1.00
O530   O     0.19182   0.46756   0.77002   0.00000  Uiso   1.00
O531   O     0.30818   0.03244   0.77002   0.00000  Uiso   1.00
O532   O     0.30818   0.46756   0.89664   0.00000  Uiso   1.00
O533   O     0.31427   0.20929   0.83333   0.00000  Uiso   1.00
O534   O     0.31427   0.29072   0.83333   0.00000  Uiso   1.00
O535   O     0.18573   0.20929   0.83334   0.00000  Uiso   1.00
O536   O     0.25000   0.29071   0.76280   0.00000  Uiso   1.00
O537   O     0.25000   0.20929   0.90387   0.00000  Uiso   1.00
O538   O     0.25000   0.29071   0.90387   0.00000  Uiso   1.00
O539   O     0.25000   0.20929   0.76280   0.00000  Uiso   1.00
O540   O     0.19182   0.03244   0.89665   0.00000  Uiso   1.00
C541   C     0.66492   0.25000   0.83334   0.00000  Uiso   1.00
C542   C     0.77879   0.44605   0.86462   0.00000  Uiso   1.00
C543   C     0.75000   0.25000   0.74016   0.00000  Uiso   1.00
C544   C     0.75000   0.25000   0.92651   0.00000  Uiso   1.00
C545   C     0.75000   0.02733   0.83333   0.00000  Uiso   1.00
C546   C     0.75000   0.47267   0.83333   0.00000  Uiso   1.00
C547   C     0.75000   0.25000   0.68850   0.00000  Uiso   1.00
C548   C     0.75000   0.25000   0.97817   0.00000  Uiso   1.00
C549   C     0.54761   0.29129   0.84821   0.00000  Uiso   1.00
C550   C     0.95239   0.20871   0.84820   0.00000  Uiso   1.00
C551   C     0.95239   0.29129   0.81846   0.00000  Uiso   1.00
C552   C     0.83508   0.25000   0.83333   0.00000  Uiso   1.00
C553   C     0.54761   0.20871   0.81847   0.00000  Uiso   1.00
C554   C     0.59351   0.29140   0.84786   0.00000  Uiso   1.00
C555   C     0.90649   0.20860   0.84785   0.00000  Uiso   1.00
C556   C     0.90649   0.29140   0.81881   0.00000  Uiso   1.00
C557   C     0.59351   0.20860   0.81882   0.00000  Uiso   1.00
C558   C     0.61670   0.25000   0.83334   0.00000  Uiso   1.00
C559   C     0.88330   0.25000   0.83333   0.00000  Uiso   1.00
C560   C     0.52428   0.25000   0.83333   0.00000  Uiso   1.00
C561   C     0.97572   0.25000   0.83333   0.00000  Uiso   1.00
C562   C     0.72212   0.10480   0.86358   0.00000  Uiso   1.00
C563   C     0.72212   0.39520   0.80309   0.00000  Uiso   1.00
C564   C     0.77788   0.10480   0.80309   0.00000  Uiso   1.00
C565   C     0.77788   0.39520   0.86357   0.00000  Uiso   1.00
C566   C     0.72121   0.05395   0.86462   0.00000  Uiso   1.00
C567   C     0.72121   0.44605   0.80205   0.00000  Uiso   1.00
C568   C     0.77879   0.05395   0.80205   0.00000  Uiso   1.00
Cu569  Cu    0.75000   0.29822   0.83333   0.00000  Uiso   1.00
Cu570  Cu    0.75000   0.20179   0.83333   0.00000  Uiso   1.00
H571   H     0.70020   0.12490   0.88737   0.00000  Uiso   1.00
H572   H     0.88918   0.17637   0.85959   0.00000  Uiso   1.00
H573   H     0.88918   0.32363   0.80707   0.00000  Uiso   1.00
H574   H     0.61082   0.17637   0.80708   0.00000  Uiso   1.00
H575   H     0.69418   0.49691   0.89447   0.00000  Uiso   1.00
H576   H     0.69418   0.00309   0.77220   0.00000  Uiso   1.00
H577   H     0.80582   0.49691   0.77219   0.00000  Uiso   1.00
H578   H     0.80582   0.00310   0.89446   0.00000  Uiso   1.00
H579   H     0.70020   0.37510   0.77930   0.00000  Uiso   1.00
H580   H     0.79980   0.12490   0.77930   0.00000  Uiso   1.00
H581   H     0.79980   0.37510   0.88737   0.00000  Uiso   1.00
H582   H     0.53041   0.32330   0.86067   0.00000  Uiso   1.00
H583   H     0.96959   0.17670   0.86067   0.00000  Uiso   1.00
H584   H     0.96959   0.32330   0.80599   0.00000  Uiso   1.00
H585   H     0.53041   0.17670   0.80600   0.00000  Uiso   1.00
H586   H     0.61082   0.32363   0.85960   0.00000  Uiso   1.00
N587   N     0.75000   0.12935   0.83333   0.00000  Uiso   1.00
N588   N     0.75000   0.37066   0.83333   0.00000  Uiso   1.00
O589   O     0.68573   0.29072   0.83334   0.00000  Uiso   1.00
O590   O     0.69182   0.46756   0.77002   0.00000  Uiso   1.00
O591   O     0.80818   0.03244   0.77002   0.00000  Uiso   1.00
O592   O     0.80818   0.46756   0.89664   0.00000  Uiso   1.00
O593   O     0.81427   0.20929   0.83333   0.00000  Uiso   1.00
O594   O     0.81427   0.29072   0.83333   0.00000  Uiso   1.00
O595   O     0.68573   0.20929   0.83334   0.00000  Uiso   1.00
O596   O     0.75000   0.29071   0.76280   0.00000  Uiso   1.00
O597   O     0.75000   0.20929   0.90387   0.00000  Uiso   1.00
O598   O     0.75000   0.29071   0.90387   0.00000  Uiso   1.00
O599   O     0.75000   0.20929   0.76280   0.00000  Uiso   1.00
O600   O     0.69182   0.03244   0.89665   0.00000  Uiso   1.00
C601   C     0.16492   0.75000   0.83334   0.00000  Uiso   1.00
C602   C     0.27879   0.94605   0.86462   0.00000  Uiso   1.00
C603   C     0.25000   0.75000   0.74016   0.00000  Uiso   1.00
C604   C     0.25000   0.75000   0.92651   0.00000  Uiso   1.00
C605   C     0.25000   0.52733   0.83333   0.00000  Uiso   1.00
C606   C     0.25000   0.97267   0.83333   0.00000  Uiso   1.00
C607   C     0.25000   0.75000   0.68850   0.00000  Uiso   1.00
C608   C     0.25000   0.75000   0.97817   0.00000  Uiso   1.00
C609   C     0.04761   0.79129   0.84821   0.00000  Uiso   1.00
C610   C     0.45239   0.70871   0.84820   0.00000  Uiso   1.00
C611   C     0.45239   0.79129   0.81846   0.00000  Uiso   1.00
C612   C     0.33508   0.75000   0.83333   0.00000  Uiso   1.00
C613   C     0.04761   0.70871   0.81847   0.00000  Uiso   1.00
C614   C     0.09351   0.79140   0.84786   0.00000  Uiso   1.00
C615   C     0.40649   0.70860   0.84785   0.00000  Uiso   1.00
C616   C     0.40649   0.79140   0.81881   0.00000  Uiso   1.00
C617   C     0.09351   0.70860   0.81882   0.00000  Uiso   1.00
C618   C     0.11670   0.75000   0.83334   0.00000  Uiso   1.00
C619   C     0.38330   0.75000   0.83333   0.00000  Uiso   1.00
C620   C     0.02428   0.75000   0.83333   0.00000  Uiso   1.00
C621   C     0.47572   0.75000   0.83333   0.00000  Uiso   1.00
C622   C     0.22212   0.60480   0.86358   0.00000  Uiso   1.00
C623   C     0.22212   0.89520   0.80309   0.00000  Uiso   1.00
C624   C     0.27788   0.60480   0.80309   0.00000  Uiso   1.00
C625   C     0.27788   0.89520   0.86357   0.00000  Uiso   1.00
C626   C     0.22121   0.55395   0.86462   0.00000  Uiso   1.00
C627   C     0.22121   0.94605   0.80205   0.00000  Uiso   1.00
C628   C     0.27879   0.55395   0.80205   0.00000  Uiso   1.00
Cu629  Cu    0.25000   0.79822   0.83333   0.00000  Uiso   1.00
Cu630  Cu    0.25000   0.70179   0.83333   0.00000  Uiso   1.00
H631   H     0.20020   0.62490   0.88737   0.00000  Uiso   1.00
H632   H     0.38918   0.67637   0.85959   0.00000  Uiso   1.00
H633   H     0.38918   0.82363   0.80707   0.00000  Uiso   1.00
H634   H     0.11082   0.67637   0.80708   0.00000  Uiso   1.00
H635   H     0.19418   0.99691   0.89447   0.00000  Uiso   1.00
H636   H     0.19418   0.50309   0.77220   0.00000  Uiso   1.00
H637   H     0.30582   0.99691   0.77219   0.00000  Uiso   1.00
H638   H     0.30582   0.50310   0.89446   0.00000  Uiso   1.00
H639   H     0.20020   0.87510   0.77930   0.00000  Uiso   1.00
H640   H     0.29980   0.62490   0.77930   0.00000  Uiso   1.00
H641   H     0.29980   0.87510   0.88737   0.00000  Uiso   1.00
H642   H     0.03041   0.82330   0.86067   0.00000  Uiso   1.00
H643   H     0.46959   0.67670   0.86067   0.00000  Uiso   1.00
H644   H     0.46959   0.82330   0.80599   0.00000  Uiso   1.00
H645   H     0.03041   0.67670   0.80600   0.00000  Uiso   1.00
H646   H     0.11082   0.82363   0.85960   0.00000  Uiso   1.00
N647   N     0.25000   0.62935   0.83333   0.00000  Uiso   1.00
N648   N     0.25000   0.87066   0.83333   0.00000  Uiso   1.00
O649   O     0.18573   0.79072   0.83334   0.00000  Uiso   1.00
O650   O     0.19182   0.96756   0.77002   0.00000  Uiso   1.00
O651   O     0.30818   0.53244   0.77002   0.00000  Uiso   1.00
O652   O     0.30818   0.96756   0.89664   0.00000  Uiso   1.00
O653   O     0.31427   0.70929   0.83333   0.00000  Uiso   1.00
O654   O     0.31427   0.79072   0.83333   0.00000  Uiso   1.00
O655   O     0.18573   0.70929   0.83334   0.00000  Uiso   1.00
O656   O     0.25000   0.79071   0.76280   0.00000  Uiso   1.00
O657   O     0.25000   0.70929   0.90387   0.00000  Uiso   1.00
O658   O     0.25000   0.79071   0.90387   0.00000  Uiso   1.00
O659   O     0.25000   0.70929   0.76280   0.00000  Uiso   1.00
O660   O     0.19182   0.53244   0.89665   0.00000  Uiso   1.00
C661   C     0.66492   0.75000   0.83334   0.00000  Uiso   1.00
C662   C     0.77879   0.94605   0.86462   0.00000  Uiso   1.00
C663   C     0.75000   0.75000   0.74016   0.00000  Uiso   1.00
C664   C     0.75000   0.75000   0.92651   0.00000  Uiso   1.00
C665   C     0.75000   0.52733   0.83333   0.00000  Uiso   1.00
C666   C     0.75000   0.97267   0.83333   0.00000  Uiso   1.00
C667   C     0.75000   0.75000   0.68850   0.00000  Uiso   1.00
C668   C     0.75000   0.75000   0.97817   0.00000  Uiso   1.00
C669   C     0.54761   0.79129   0.84821   0.00000  Uiso   1.00
C670   C     0.95239   0.70871   0.84820   0.00000  Uiso   1.00
C671   C     0.95239   0.79129   0.81846   0.00000  Uiso   1.00
C672   C     0.83508   0.75000   0.83333   0.00000  Uiso   1.00
C673   C     0.54761   0.70871   0.81847   0.00000  Uiso   1.00
C674   C     0.59351   0.79140   0.84786   0.00000  Uiso   1.00
C675   C     0.90649   0.70860   0.84785   0.00000  Uiso   1.00
C676   C     0.90649   0.79140   0.81881   0.00000  Uiso   1.00
C677   C     0.59351   0.70860   0.81882   0.00000  Uiso   1.00
C678   C     0.61670   0.75000   0.83334   0.00000  Uiso   1.00
C679   C     0.88330   0.75000   0.83333   0.00000  Uiso   1.00
C680   C     0.52428   0.75000   0.83333   0.00000  Uiso   1.00
C681   C     0.97572   0.75000   0.83333   0.00000  Uiso   1.00
C682   C     0.72212   0.60480   0.86358   0.00000  Uiso   1.00
C683   C     0.72212   0.89520   0.80309   0.00000  Uiso   1.00
C684   C     0.77788   0.60480   0.80309   0.00000  Uiso   1.00
C685   C     0.77788   0.89520   0.86357   0.00000  Uiso   1.00
C686   C     0.72121   0.55395   0.86462   0.00000  Uiso   1.00
C687   C     0.72121   0.94605   0.80205   0.00000  Uiso   1.00
C688   C     0.77879   0.55395   0.80205   0.00000  Uiso   1.00
Cu689  Cu    0.75000   0.79822   0.83333   0.00000  Uiso   1.00
Cu690  Cu    0.75000   0.70179   0.83333   0.00000  Uiso   1.00
H691   H     0.70020   0.62490   0.88737   0.00000  Uiso   1.00
H692   H     0.88918   0.67637   0.85959   0.00000  Uiso   1.00
H693   H     0.88918   0.82363   0.80707   0.00000  Uiso   1.00
H694   H     0.61082   0.67637   0.80708   0.00000  Uiso   1.00
H695   H     0.69418   0.99691   0.89447   0.00000  Uiso   1.00
H696   H     0.69418   0.50309   0.77220   0.00000  Uiso   1.00
H697   H     0.80582   0.99691   0.77219   0.00000  Uiso   1.00
H698   H     0.80582   0.50310   0.89446   0.00000  Uiso   1.00
H699   H     0.70020   0.87510   0.77930   0.00000  Uiso   1.00
H700   H     0.79980   0.62490   0.77930   0.00000  Uiso   1.00
H701   H     0.79980   0.87510   0.88737   0.00000  Uiso   1.00
H702   H     0.53041   0.82330   0.86067   0.00000  Uiso   1.00
H703   H     0.96959   0.67670   0.86067   0.00000  Uiso   1.00
H704   H     0.96959   0.82330   0.80599   0.00000  Uiso   1.00
H705   H     0.53041   0.67670   0.80600   0.00000  Uiso   1.00
H706   H     0.61082   0.82363   0.85960   0.00000  Uiso   1.00
N707   N     0.75000   0.62935   0.83333   0.00000  Uiso   1.00
N708   N     0.75000   0.87066   0.83333   0.00000  Uiso   1.00
O709   O     0.68573   0.79072   0.83334   0.00000  Uiso   1.00
O710   O     0.69182   0.96756   0.77002   0.00000  Uiso   1.00
O711   O     0.80818   0.53244   0.77002   0.00000  Uiso   1.00
O712   O     0.80818   0.96756   0.89664   0.00000  Uiso   1.00
O713   O     0.81427   0.70929   0.83333   0.00000  Uiso   1.00
O714   O     0.81427   0.79072   0.83333   0.00000  Uiso   1.00
O715   O     0.68573   0.70929   0.83334   0.00000  Uiso   1.00
O716   O     0.75000   0.79071   0.76280   0.00000  Uiso   1.00
O717   O     0.75000   0.70929   0.90387   0.00000  Uiso   1.00
O718   O     0.75000   0.79071   0.90387   0.00000  Uiso   1.00
O719   O     0.75000   0.70929   0.76280   0.00000  Uiso   1.00
O720   O     0.69182   0.53244   0.89665   0.00000  Uiso   1.00
loop_
_geom_bond_atom_site_label_1
_geom_bond_atom_site_label_2
_geom_bond_distance
_geom_bond_site_symmetry_2
_ccdc_geom_bond_type
C1     O55     1.292   .     A
C1     C18     1.460   .     S
C1     O49     1.292   .     A
C2     C6      1.425   .     A
C2     O52     1.382   .     S
C2     C25     1.409   .     A
C3     O59     1.285   .     A
C3     O56     1.285   .     A
C3     C7      1.408   .     S
C4     O57     1.285   .     A
C4     C8      1.408   .     S
C4     O58     1.285   .     A
C5     C28     1.425   .     A
C5     C26     1.425   .     A
C5     C126    1.514   1_545 S
C6     C27     1.425   .     A
C6     C125    1.514   .     S
C7     C488    1.190   1_554 S
C8     C247    1.190   .     S
C9     C14     1.390   .     A
C9     C20     1.404   .     A
C9     H42     1.083   .     S
C10    C15     1.390   .     A
C10    C21     1.404   .     A
C10    H43     1.083   .     S
C11    C16     1.390   .     A
C11    H44     1.083   .     S
C11    C21     1.404   .     A
C12    C19     1.460   .     S
C12    O54     1.292   .     A
C12    O53     1.292   .     A
C13    H45     1.083   .     S
C13    C17     1.390   .     A
C13    C20     1.404   .     A
C14    C18     1.402   .     A
C14    H46     1.083   .     S
C15    C19     1.402   .     A
C15    H32     1.083   .     S
C16    H33     1.083   .     S
C16    C19     1.402   .     A
C17    C18     1.402   .     A
C17    H34     1.083   .     S
C20    C81     1.471   1_455 S
C21    C80     1.471   .     S
C22    N47     1.362   .     A
C22    C26     1.409   .     A
C22    H31     1.082   .     S
C23    C27     1.409   .     A
C23    H39     1.082   .     S
C23    N48     1.362   .     A
C24    H40     1.082   .     S
C24    C28     1.409   .     A
C24    N47     1.362   .     A
C25    N48     1.362   .     A
C25    H41     1.082   .     S
C26    O60     1.382   .     S
C27    O50     1.382   .     S
C28    O51     1.382   .     S
Cu29   Cu30    2.670   .     S
Cu29   O56     1.934   .     S
Cu29   O49     1.957   .     S
Cu29   O54     1.957   .     S
Cu29   N48     2.006   .     S
Cu29   O58     1.934   .     S
Cu30   O59     1.934   .     S
Cu30   O53     1.957   .     S
Cu30   O57     1.934   .     S
Cu30   N47     2.006   .     S
Cu30   O55     1.957   .     S
H35    O180    0.988   .     S
H36    O170    0.988   1_545 S
H37    O171    0.988   .     S
H38    O172    0.988   1_545 S
O50    H156    0.988   .     S
O51    H157    0.988   1_545 S
O52    H158    0.988   .     S
O60    H155    0.988   1_545 S
C61    O115    1.292   .     A
C61    C78     1.460   .     S
C61    O109    1.292   .     A
C62    C66     1.425   .     A
C62    O112    1.382   .     S
C62    C85     1.409   .     A
C63    O119    1.285   .     A
C63    O116    1.285   .     A
C63    C67     1.408   .     S
C64    O117    1.285   .     A
C64    C68     1.408   .     S
C64    O118    1.285   .     A
C65    C88     1.425   .     A
C65    C86     1.425   .     A
C65    C186    1.514   1_545 S
C66    C87     1.425   .     A
C66    C185    1.514   .     S
C67    C548    1.190   1_554 S
C68    C307    1.190   .     S
C69    C74     1.390   .     A
C69    C80     1.404   .     A
C69    H102    1.083   .     S
C70    C75     1.390   .     A
C70    C81     1.404   .     A
C70    H103    1.083   .     S
C71    C76     1.390   .     A
C71    H104    1.083   .     S
C71    C81     1.404   .     A
C72    C79     1.460   .     S
C72    O114    1.292   .     A
C72    O113    1.292   .     A
C73    H105    1.083   .     S
C73    C77     1.390   .     A
C73    C80     1.404   .     A
C74    C78     1.402   .     A
C74    H106    1.083   .     S
C75    C79     1.402   .     A
C75    H92     1.083   .     S
C76    H93     1.083   .     S
C76    C79     1.402   .     A
C77    C78     1.402   .     A
C77    H94     1.083   .     S
C81    C20     1.471   1_655 S
C82    N107    1.362   .     A
C82    C86     1.409   .     A
C82    H91     1.082   .     S
C83    C87     1.409   .     A
C83    H99     1.082   .     S
C83    N108    1.362   .     A
C84    H100    1.082   .     S
C84    C88     1.409   .     A
C84    N107    1.362   .     A
C85    N108    1.362   .     A
C85    H101    1.082   .     S
C86    O120    1.382   .     S
C87    O110    1.382   .     S
C88    O111    1.382   .     S
Cu89   Cu90    2.670   .     S
Cu89   O116    1.934   .     S
Cu89   O109    1.957   .     S
Cu89   O114    1.957   .     S
Cu89   N108    2.006   .     S
Cu89   O118    1.934   .     S
Cu90   O119    1.934   .     S
Cu90   O113    1.957   .     S
Cu90   O117    1.934   .     S
Cu90   N107    2.006   .     S
Cu90   O115    1.957   .     S
H95    O240    0.988   .     S
H96    O230    0.988   1_545 S
H97    O231    0.988   .     S
H98    O232    0.988   1_545 S
O110   H216    0.988   .     S
O111   H217    0.988   1_545 S
O112   H218    0.988   .     S
O120   H215    0.988   1_545 S
C121   O175    1.292   .     A
C121   C138    1.460   .     S
C121   O169    1.292   .     A
C122   C126    1.425   .     A
C122   O172    1.382   .     S
C122   C145    1.409   .     A
C123   O179    1.285   .     A
C123   O176    1.285   .     A
C123   C127    1.408   .     S
C124   O177    1.285   .     A
C124   C128    1.408   .     S
C124   O178    1.285   .     A
C125   C148    1.425   .     A
C125   C146    1.425   .     A
C126   C147    1.425   .     A
C126   C5      1.514   1_565 S
C127   C608    1.190   1_554 S
C128   C367    1.190   .     S
C129   C134    1.390   .     A
C129   C140    1.404   .     A
C129   H162    1.083   .     S
C130   C135    1.390   .     A
C130   C141    1.404   .     A
C130   H163    1.083   .     S
C131   C136    1.390   .     A
C131   H164    1.083   .     S
C131   C141    1.404   .     A
C132   C139    1.460   .     S
C132   O174    1.292   .     A
C132   O173    1.292   .     A
C133   H165    1.083   .     S
C133   C137    1.390   .     A
C133   C140    1.404   .     A
C134   C138    1.402   .     A
C134   H166    1.083   .     S
C135   C139    1.402   .     A
C135   H152    1.083   .     S
C136   H153    1.083   .     S
C136   C139    1.402   .     A
C137   C138    1.402   .     A
C137   H154    1.083   .     S
C140   C201    1.471   1_455 S
C141   C200    1.471   .     S
C142   N167    1.362   .     A
C142   C146    1.409   .     A
C142   H151    1.082   .     S
C143   C147    1.409   .     A
C143   H159    1.082   .     S
C143   N168    1.362   .     A
C144   H160    1.082   .     S
C144   C148    1.409   .     A
C144   N167    1.362   .     A
C145   N168    1.362   .     A
C145   H161    1.082   .     S
C146   O180    1.382   .     S
C147   O170    1.382   .     S
C148   O171    1.382   .     S
Cu149  Cu150   2.670   .     S
Cu149  O176    1.934   .     S
Cu149  O169    1.957   .     S
Cu149  O174    1.957   .     S
Cu149  N168    2.006   .     S
Cu149  O178    1.934   .     S
Cu150  O179    1.934   .     S
Cu150  O173    1.957   .     S
Cu150  O177    1.934   .     S
Cu150  N167    2.006   .     S
Cu150  O175    1.957   .     S
H155   O60     0.988   1_565 S
H157   O51     0.988   1_565 S
O170   H36     0.988   1_565 S
O172   H38     0.988   1_565 S
C181   O235    1.292   .     A
C181   C198    1.460   .     S
C181   O229    1.292   .     A
C182   C186    1.425   .     A
C182   O232    1.382   .     S
C182   C205    1.409   .     A
C183   O239    1.285   .     A
C183   O236    1.285   .     A
C183   C187    1.408   .     S
C184   O237    1.285   .     A
C184   C188    1.408   .     S
C184   O238    1.285   .     A
C185   C208    1.425   .     A
C185   C206    1.425   .     A
C186   C207    1.425   .     A
C186   C65     1.514   1_565 S
C187   C668    1.190   1_554 S
C188   C427    1.190   .     S
C189   C194    1.390   .     A
C189   C200    1.404   .     A
C189   H222    1.083   .     S
C190   C195    1.390   .     A
C190   C201    1.404   .     A
C190   H223    1.083   .     S
C191   C196    1.390   .     A
C191   H224    1.083   .     S
C191   C201    1.404   .     A
C192   C199    1.460   .     S
C192   O234    1.292   .     A
C192   O233    1.292   .     A
C193   H225    1.083   .     S
C193   C197    1.390   .     A
C193   C200    1.404   .     A
C194   C198    1.402   .     A
C194   H226    1.083   .     S
C195   C199    1.402   .     A
C195   H212    1.083   .     S
C196   H213    1.083   .     S
C196   C199    1.402   .     A
C197   C198    1.402   .     A
C197   H214    1.083   .     S
C201   C140    1.471   1_655 S
C202   N227    1.362   .     A
C202   C206    1.409   .     A
C202   H211    1.082   .     S
C203   C207    1.409   .     A
C203   H219    1.082   .     S
C203   N228    1.362   .     A
C204   H220    1.082   .     S
C204   C208    1.409   .     A
C204   N227    1.362   .     A
C205   N228    1.362   .     A
C205   H221    1.082   .     S
C206   O240    1.382   .     S
C207   O230    1.382   .     S
C208   O231    1.382   .     S
Cu209  Cu210   2.670   .     S
Cu209  O236    1.934   .     S
Cu209  O229    1.957   .     S
Cu209  O234    1.957   .     S
Cu209  N228    2.006   .     S
Cu209  O238    1.934   .     S
Cu210  O239    1.934   .     S
Cu210  O233    1.957   .     S
Cu210  O237    1.934   .     S
Cu210  N227    2.006   .     S
Cu210  O235    1.957   .     S
H215   O120    0.988   1_565 S
H217   O111    0.988   1_565 S
O230   H96     0.988   1_565 S
O232   H98     0.988   1_565 S
C241   O295    1.292   .     A
C241   C258    1.460   .     S
C241   O289    1.292   .     A
C242   C246    1.425   .     A
C242   O292    1.382   .     S
C242   C265    1.409   .     A
C243   O299    1.285   .     A
C243   O296    1.285   .     A
C243   C247    1.408   .     S
C244   O297    1.285   .     A
C244   C248    1.408   .     S
C244   O298    1.285   .     A
C245   C268    1.425   .     A
C245   C266    1.425   .     A
C245   C366    1.514   1_545 S
C246   C267    1.425   .     A
C246   C365    1.514   .     S
C248   C487    1.190   .     S
C249   C254    1.390   .     A
C249   C260    1.404   .     A
C249   H282    1.083   .     S
C250   C255    1.390   .     A
C250   C261    1.404   .     A
C250   H283    1.083   .     S
C251   C256    1.390   .     A
C251   H284    1.083   .     S
C251   C261    1.404   .     A
C252   C259    1.460   .     S
C252   O294    1.292   .     A
C252   O293    1.292   .     A
C253   H285    1.083   .     S
C253   C257    1.390   .     A
C253   C260    1.404   .     A
C254   C258    1.402   .     A
C254   H286    1.083   .     S
C255   C259    1.402   .     A
C255   H272    1.083   .     S
C256   H273    1.083   .     S
C256   C259    1.402   .     A
C257   C258    1.402   .     A
C257   H274    1.083   .     S
C260   C321    1.471   1_455 S
C261   C320    1.471   .     S
C262   N287    1.362   .     A
C262   C266    1.409   .     A
C262   H271    1.082   .     S
C263   C267    1.409   .     A
C263   H279    1.082   .     S
C263   N288    1.362   .     A
C264   H280    1.082   .     S
C264   C268    1.409   .     A
C264   N287    1.362   .     A
C265   N288    1.362   .     A
C265   H281    1.082   .     S
C266   O300    1.382   .     S
C267   O290    1.382   .     S
C268   O291    1.382   .     S
Cu269  Cu270   2.670   .     S
Cu269  O296    1.934   .     S
Cu269  O289    1.957   .     S
Cu269  O294    1.957   .     S
Cu269  N288    2.006   .     S
Cu269  O298    1.934   .     S
Cu270  O299    1.934   .     S
Cu270  O293    1.957   .     S
Cu270  O297    1.934   .     S
Cu270  N287    2.006   .     S
Cu270  O295    1.957   .     S
H275   O420    0.988   .     S
H276   O410    0.988   1_545 S
H277   O411    0.988   .     S
H278   O412    0.988   1_545 S
O290   H396    0.988   .     S
O291   H397    0.988   1_545 S
O292   H398    0.988   .     S
O300   H395    0.988   1_545 S
C301   O355    1.292   .     A
C301   C318    1.460   .     S
C301   O349    1.292   .     A
C302   C306    1.425   .     A
C302   O352    1.382   .     S
C302   C325    1.409   .     A
C303   O359    1.285   .     A
C303   O356    1.285   .     A
C303   C307    1.408   .     S
C304   O357    1.285   .     A
C304   C308    1.408   .     S
C304   O358    1.285   .     A
C305   C328    1.425   .     A
C305   C326    1.425   .     A
C305   C426    1.514   1_545 S
C306   C327    1.425   .     A
C306   C425    1.514   .     S
C308   C547    1.190   .     S
C309   C314    1.390   .     A
C309   C320    1.404   .     A
C309   H342    1.083   .     S
C310   C315    1.390   .     A
C310   C321    1.404   .     A
C310   H343    1.083   .     S
C311   C316    1.390   .     A
C311   H344    1.083   .     S
C311   C321    1.404   .     A
C312   C319    1.460   .     S
C312   O354    1.292   .     A
C312   O353    1.292   .     A
C313   H345    1.083   .     S
C313   C317    1.390   .     A
C313   C320    1.404   .     A
C314   C318    1.402   .     A
C314   H346    1.083   .     S
C315   C319    1.402   .     A
C315   H332    1.083   .     S
C316   H333    1.083   .     S
C316   C319    1.402   .     A
C317   C318    1.402   .     A
C317   H334    1.083   .     S
C321   C260    1.471   1_655 S
C322   N347    1.362   .     A
C322   C326    1.409   .     A
C322   H331    1.082   .     S
C323   C327    1.409   .     A
C323   H339    1.082   .     S
C323   N348    1.362   .     A
C324   H340    1.082   .     S
C324   C328    1.409   .     A
C324   N347    1.362   .     A
C325   N348    1.362   .     A
C325   H341    1.082   .     S
C326   O360    1.382   .     S
C327   O350    1.382   .     S
C328   O351    1.382   .     S
Cu329  Cu330   2.670   .     S
Cu329  O356    1.934   .     S
Cu329  O349    1.957   .     S
Cu329  O354    1.957   .     S
Cu329  N348    2.006   .     S
Cu329  O358    1.934   .     S
Cu330  O359    1.934   .     S
Cu330  O353    1.957   .     S
Cu330  O357    1.934   .     S
Cu330  N347    2.006   .     S
Cu330  O355    1.957   .     S
H335   O480    0.988   .     S
H336   O470    0.988   1_545 S
H337   O471    0.988   .     S
H338   O472    0.988   1_545 S
O350   H456    0.988   .     S
O351   H457    0.988   1_545 S
O352   H458    0.988   .     S
O360   H455    0.988   1_545 S
C361   O415    1.292   .     A
C361   C378    1.460   .     S
C361   O409    1.292   .     A
C362   C366    1.425   .     A
C362   O412    1.382   .     S
C362   C385    1.409   .     A
C363   O419    1.285   .     A
C363   O416    1.285   .     A
C363   C367    1.408   .     S
C364   O417    1.285   .     A
C364   C368    1.408   .     S
C364   O418    1.285   .     A
C365   C388    1.425   .     A
C365   C386    1.425   .     A
C366   C387    1.425   .     A
C366   C245    1.514   1_565 S
C368   C607    1.190   .     S
C369   C374    1.390   .     A
C369   C380    1.404   .     A
C369   H402    1.083   .     S
C370   C375    1.390   .     A
C370   C381    1.404   .     A
C370   H403    1.083   .     S
C371   C376    1.390   .     A
C371   H404    1.083   .     S
C371   C381    1.404   .     A
C372   C379    1.460   .     S
C372   O414    1.292   .     A
C372   O413    1.292   .     A
C373   H405    1.083   .     S
C373   C377    1.390   .     A
C373   C380    1.404   .     A
C374   C378    1.402   .     A
C374   H406    1.083   .     S
C375   C379    1.402   .     A
C375   H392    1.083   .     S
C376   H393    1.083   .     S
C376   C379    1.402   .     A
C377   C378    1.402   .     A
C377   H394    1.083   .     S
C380   C441    1.471   1_455 S
C381   C440    1.471   .     S
C382   N407    1.362   .     A
C382   C386    1.409   .     A
C382   H391    1.082   .     S
C383   C387    1.409   .     A
C383   H399    1.082   .     S
C383   N408    1.362   .     A
C384   H400    1.082   .     S
C384   C388    1.409   .     A
C384   N407    1.362   .     A
C385   N408    1.362   .     A
C385   H401    1.082   .     S
C386   O420    1.382   .     S
C387   O410    1.382   .     S
C388   O411    1.382   .     S
Cu389  Cu390   2.670   .     S
Cu389  O416    1.934   .     S
Cu389  O409    1.957   .     S
Cu389  O414    1.957   .     S
Cu389  N408    2.006   .     S
Cu389  O418    1.934   .     S
Cu390  O419    1.934   .     S
Cu390  O413    1.957   .     S
Cu390  O417    1.934   .     S
Cu390  N407    2.006   .     S
Cu390  O415    1.957   .     S
H395   O300    0.988   1_565 S
H397   O291    0.988   1_565 S
O410   H276    0.988   1_565 S
O412   H278    0.988   1_565 S
C421   O475    1.292   .     A
C421   C438    1.460   .     S
C421   O469    1.292   .     A
C422   C426    1.425   .     A
C422   O472    1.382   .     S
C422   C445    1.409   .     A
C423   O479    1.285   .     A
C423   O476    1.285   .     A
C423   C427    1.408   .     S
C424   O477    1.285   .     A
C424   C428    1.408   .     S
C424   O478    1.285   .     A
C425   C448    1.425   .     A
C425   C446    1.425   .     A
C426   C447    1.425   .     A
C426   C305    1.514   1_565 S
C428   C667    1.190   .     S
C429   C434    1.390   .     A
C429   C440    1.404   .     A
C429   H462    1.083   .     S
C430   C435    1.390   .     A
C430   C441    1.404   .     A
C430   H463    1.083   .     S
C431   C436    1.390   .     A
C431   H464    1.083   .     S
C431   C441    1.404   .     A
C432   C439    1.460   .     S
C432   O474    1.292   .     A
C432   O473    1.292   .     A
C433   H465    1.083   .     S
C433   C437    1.390   .     A
C433   C440    1.404   .     A
C434   C438    1.402   .     A
C434   H466    1.083   .     S
C435   C439    1.402   .     A
C435   H452    1.083   .     S
C436   H453    1.083   .     S
C436   C439    1.402   .     A
C437   C438    1.402   .     A
C437   H454    1.083   .     S
C441   C380    1.471   1_655 S
C442   N467    1.362   .     A
C442   C446    1.409   .     A
C442   H451    1.082   .     S
C443   C447    1.409   .     A
C443   H459    1.082   .     S
C443   N468    1.362   .     A
C444   H460    1.082   .     S
C444   C448    1.409   .     A
C444   N467    1.362   .     A
C445   N468    1.362   .     A
C445   H461    1.082   .     S
C446   O480    1.382   .     S
C447   O470    1.382   .     S
C448   O471    1.382   .     S
Cu449  Cu450   2.670   .     S
Cu449  O476    1.934   .     S
Cu449  O469    1.957   .     S
Cu449  O474    1.957   .     S
Cu449  N468    2.006   .     S
Cu449  O478    1.934   .     S
Cu450  O479    1.934   .     S
Cu450  O473    1.957   .     S
Cu450  O477    1.934   .     S
Cu450  N467    2.006   .     S
Cu450  O475    1.957   .     S
H455   O360    0.988   1_565 S
H457   O351    0.988   1_565 S
O470   H336    0.988   1_565 S
O472   H338    0.988   1_565 S
C481   O535    1.292   .     A
C481   C498    1.460   .     S
C481   O529    1.292   .     A
C482   C486    1.425   .     A
C482   O532    1.382   .     S
C482   C505    1.409   .     A
C483   O539    1.285   .     A
C483   O536    1.285   .     A
C483   C487    1.408   .     S
C484   O537    1.285   .     A
C484   C488    1.408   .     S
C484   O538    1.285   .     A
C485   C508    1.425   .     A
C485   C506    1.425   .     A
C485   C606    1.514   1_545 S
C486   C507    1.425   .     A
C486   C605    1.514   .     S
C488   C7      1.190   1_556 S
C489   C494    1.390   .     A
C489   C500    1.404   .     A
C489   H522    1.083   .     S
C490   C495    1.390   .     A
C490   C501    1.404   .     A
C490   H523    1.083   .     S
C491   C496    1.390   .     A
C491   H524    1.083   .     S
C491   C501    1.404   .     A
C492   C499    1.460   .     S
C492   O534    1.292   .     A
C492   O533    1.292   .     A
C493   H525    1.083   .     S
C493   C497    1.390   .     A
C493   C500    1.404   .     A
C494   C498    1.402   .     A
C494   H526    1.083   .     S
C495   C499    1.402   .     A
C495   H512    1.083   .     S
C496   H513    1.083   .     S
C496   C499    1.402   .     A
C497   C498    1.402   .     A
C497   H514    1.083   .     S
C500   C561    1.471   1_455 S
C501   C560    1.471   .     S
C502   N527    1.362   .     A
C502   C506    1.409   .     A
C502   H511    1.082   .     S
C503   C507    1.409   .     A
C503   H519    1.082   .     S
C503   N528    1.362   .     A
C504   H520    1.082   .     S
C504   C508    1.409   .     A
C504   N527    1.362   .     A
C505   N528    1.362   .     A
C505   H521    1.082   .     S
C506   O540    1.382   .     S
C507   O530    1.382   .     S
C508   O531    1.382   .     S
Cu509  Cu510   2.670   .     S
Cu509  O536    1.934   .     S
Cu509  O529    1.957   .     S
Cu509  O534    1.957   .     S
Cu509  N528    2.006   .     S
Cu509  O538    1.934   .     S
Cu510  O539    1.934   .     S
Cu510  O533    1.957   .     S
Cu510  O537    1.934   .     S
Cu510  N527    2.006   .     S
Cu510  O535    1.957   .     S
H515   O660    0.988   .     S
H516   O650    0.988   1_545 S
H517   O651    0.988   .     S
H518   O652    0.988   1_545 S
O530   H636    0.988   .     S
O531   H637    0.988   1_545 S
O532   H638    0.988   .     S
O540   H635    0.988   1_545 S
C541   O595    1.292   .     A
C541   C558    1.460   .     S
C541   O589    1.292   .     A
C542   C546    1.425   .     A
C542   O592    1.382   .     S
C542   C565    1.409   .     A
C543   O599    1.285   .     A
C543   O596    1.285   .     A
C543   C547    1.408   .     S
C544   O597    1.285   .     A
C544   C548    1.408   .     S
C544   O598    1.285   .     A
C545   C568    1.425   .     A
C545   C566    1.425   .     A
C545   C666    1.514   1_545 S
C546   C567    1.425   .     A
C546   C665    1.514   .     S
C548   C67     1.190   1_556 S
C549   C554    1.390   .     A
C549   C560    1.404   .     A
C549   H582    1.083   .     S
C550   C555    1.390   .     A
C550   C561    1.404   .     A
C550   H583    1.083   .     S
C551   C556    1.390   .     A
C551   H584    1.083   .     S
C551   C561    1.404   .     A
C552   C559    1.460   .     S
C552   O594    1.292   .     A
C552   O593    1.292   .     A
C553   H585    1.083   .     S
C553   C557    1.390   .     A
C553   C560    1.404   .     A
C554   C558    1.402   .     A
C554   H586    1.083   .     S
C555   C559    1.402   .     A
C555   H572    1.083   .     S
C556   H573    1.083   .     S
C556   C559    1.402   .     A
C557   C558    1.402   .     A
C557   H574    1.083   .     S
C561   C500    1.471   1_655 S
C562   N587    1.362   .     A
C562   C566    1.409   .     A
C562   H571    1.082   .     S
C563   C567    1.409   .     A
C563   H579    1.082   .     S
C563   N588    1.362   .     A
C564   H580    1.082   .     S
C564   C568    1.409   .     A
C564   N587    1.362   .     A
C565   N588    1.362   .     A
C565   H581    1.082   .     S
C566   O600    1.382   .     S
C567   O590    1.382   .     S
C568   O591    1.382   .     S
Cu569  Cu570   2.670   .     S
Cu569  O596    1.934   .     S
Cu569  O589    1.957   .     S
Cu569  O594    1.957   .     S
Cu569  N588    2.006   .     S
Cu569  O598    1.934   .     S
Cu570  O599    1.934   .     S
Cu570  O593    1.957   .     S
Cu570  O597    1.934   .     S
Cu570  N587    2.006   .     S
Cu570  O595    1.957   .     S
H575   O720    0.988   .     S
H576   O710    0.988   1_545 S
H577   O711    0.988   .     S
H578   O712    0.988   1_545 S
O590   H696    0.988   .     S
O591   H697    0.988   1_545 S
O592   H698    0.988   .     S
O600   H695    0.988   1_545 S
C601   O655    1.292   .     A
C601   C618    1.460   .     S
C601   O649    1.292   .     A
C602   C606    1.425   .     A
C602   O652    1.382   .     S
C602   C625    1.409   .     A
C603   O659    1.285   .     A
C603   O656    1.285   .     A
C603   C607    1.408   .     S
C604   O657    1.285   .     A
C604   C608    1.408   .     S
C604   O658    1.285   .     A
C605   C628    1.425   .     A
C605   C626    1.425   .     A
C606   C627    1.425   .     A
C606   C485    1.514   1_565 S
C608   C127    1.190   1_556 S
C609   C614    1.390   .     A
C609   C620    1.404   .     A
C609   H642    1.083   .     S
C610   C615    1.390   .     A
C610   C621    1.404   .     A
C610   H643    1.083   .     S
C611   C616    1.390   .     A
C611   H644    1.083   .     S
C611   C621    1.404   .     A
C612   C619    1.460   .     S
C612   O654    1.292   .     A
C612   O653    1.292   .     A
C613   H645    1.083   .     S
C613   C617    1.390   .     A
C613   C620    1.404   .     A
C614   C618    1.402   .     A
C614   H646    1.083   .     S
C615   C619    1.402   .     A
C615   H632    1.083   .     S
C616   H633    1.083   .     S
C616   C619    1.402   .     A
C617   C618    1.402   .     A
C617   H634    1.083   .     S
C620   C681    1.471   1_455 S
C621   C680    1.471   .     S
C622   N647    1.362   .     A
C622   C626    1.409   .     A
C622   H631    1.082   .     S
C623   C627    1.409   .     A
C623   H639    1.082   .     S
C623   N648    1.362   .     A
C624   H640    1.082   .     S
C624   C628    1.409   .     A
C624   N647    1.362   .     A
C625   N648    1.362   .     A
C625   H641    1.082   .     S
C626   O660    1.382   .     S
C627   O650    1.382   .     S
C628   O651    1.382   .     S
Cu629  Cu630   2.670   .     S
Cu629  O656    1.934   .     S
Cu629  O649    1.957   .     S
Cu629  O654    1.957   .     S
Cu629  N648    2.006   .     S
Cu629  O658    1.934   .     S
Cu630  O659    1.934   .     S
Cu630  O653    1.957   .     S
Cu630  O657    1.934   .     S
Cu630  N647    2.006   .     S
Cu630  O655    1.957   .     S
H635   O540    0.988   1_565 S
H637   O531    0.988   1_565 S
O650   H516    0.988   1_565 S
O652   H518    0.988   1_565 S
C661   O715    1.292   .     A
C661   C678    1.460   .     S
C661   O709    1.292   .     A
C662   C666    1.425   .     A
C662   O712    1.382   .     S
C662   C685    1.409   .     A
C663   O719    1.285   .     A
C663   O716    1.285   .     A
C663   C667    1.408   .     S
C664   O717    1.285   .     A
C664   C668    1.408   .     S
C664   O718    1.285   .     A
C665   C688    1.425   .     A
C665   C686    1.425   .     A
C666   C687    1.425   .     A
C666   C545    1.514   1_565 S
C668   C187    1.190   1_556 S
C669   C674    1.390   .     A
C669   C680    1.404   .     A
C669   H702    1.083   .     S
C670   C675    1.390   .     A
C670   C681    1.404   .     A
C670   H703    1.083   .     S
C671   C676    1.390   .     A
C671   H704    1.083   .     S
C671   C681    1.404   .     A
C672   C679    1.460   .     S
C672   O714    1.292   .     A
C672   O713    1.292   .     A
C673   H705    1.083   .     S
C673   C677    1.390   .     A
C673   C680    1.404   .     A
C674   C678    1.402   .     A
C674   H706    1.083   .     S
C675   C679    1.402   .     A
C675   H692    1.083   .     S
C676   H693    1.083   .     S
C676   C679    1.402   .     A
C677   C678    1.402   .     A
C677   H694    1.083   .     S
C681   C620    1.471   1_655 S
C682   N707    1.362   .     A
C682   C686    1.409   .     A
C682   H691    1.082   .     S
C683   C687    1.409   .     A
C683   H699    1.082   .     S
C683   N708    1.362   .     A
C684   H700    1.082   .     S
C684   C688    1.409   .     A
C684   N707    1.362   .     A
C685   N708    1.362   .     A
C685   H701    1.082   .     S
C686   O720    1.382   .     S
C687   O710    1.382   .     S
C688   O711    1.382   .     S
Cu689  Cu690   2.670   .     S
Cu689  O716    1.934   .     S
Cu689  O709    1.957   .     S
Cu689  O714    1.957   .     S
Cu689  N708    2.006   .     S
Cu689  O718    1.934   .     S
Cu690  O719    1.934   .     S
Cu690  O713    1.957   .     S
Cu690  O717    1.934   .     S
Cu690  N707    2.006   .     S
Cu690  O715    1.957   .     S
H695   O600    0.988   1_565 S
H697   O591    0.988   1_565 S
O710   H576    0.988   1_565 S
O712   H578    0.988   1_565 S
