data_str_m2_o1_o18_pcu_sym.78
_audit_creation_date              2020-01-03
_audit_creation_method            'Materials Studio'
_symmetry_space_group_name_H-M    'P1'
_symmetry_Int_Tables_number       1
_symmetry_cell_setting            triclinic
loop_
_symmetry_equiv_pos_as_xyz
  x,y,z
_cell_length_a                    28.5911
_cell_length_b                    32.5991
_cell_length_c                    31.3780
_cell_angle_alpha                 90.3347
_cell_angle_beta                  73.0259
_cell_angle_gamma                 91.1931
loop_
_atom_site_label
_atom_site_type_symbol
_atom_site_fract_x
_atom_site_fract_y
_atom_site_fract_z
_atom_site_U_iso_or_equiv
_atom_site_adp_type
_atom_site_occupancy
C1     C     0.33226   0.08742   0.25184   0.00000  Uiso   1.00
C2     C     0.04183   0.02338   0.23009   0.00000  Uiso   1.00
C3     C     0.00177   0.29058   0.24731   0.00000  Uiso   1.00
C4     C     0.33158   0.04275   0.25232   0.00000  Uiso   1.00
C5     C     0.18077   0.14527   0.28138   0.00000  Uiso   1.00
C6     C     0.15261   0.18781   0.21842   0.00000  Uiso   1.00
C7     C     0.13123   0.14532   0.28147   0.00000  Uiso   1.00
C8     C     0.20213   0.18790   0.21845   0.00000  Uiso   1.00
C9     C     0.30561   0.16967   0.33578   0.00000  Uiso   1.00
C10    C     0.02776   0.16374   0.16420   0.00000  Uiso   1.00
C11    C     0.28971   0.17592   0.38438   0.00000  Uiso   1.00
C12    C     0.00109   0.24591   0.24806   0.00000  Uiso   1.00
C13    C     0.04386   0.15780   0.11555   0.00000  Uiso   1.00
C14    C     0.30849   0.18409   0.45438   0.00000  Uiso   1.00
C15    C     0.02528   0.15002   0.04543   0.00000  Uiso   1.00
C16    C     0.32405   0.17747   0.40851   0.00000  Uiso   1.00
C17    C     0.00960   0.15618   0.09136   0.00000  Uiso   1.00
C18    C     0.24026   0.18340   0.40699   0.00000  Uiso   1.00
C19    C     0.09352   0.15105   0.09289   0.00000  Uiso   1.00
C20    C     0.22405   0.17664   0.45327   0.00000  Uiso   1.00
C21    C     0.10970   0.15801   0.04662   0.00000  Uiso   1.00
C22    C     0.25852   0.18173   0.47735   0.00000  Uiso   1.00
C23    C     0.19301   0.18003   0.04628   0.00000  Uiso   1.00
C24    C     0.07524   0.15282   0.02250   0.00000  Uiso   1.00
C25    C     0.17453   0.16719   0.47633   0.00000  Uiso   1.00
C26    C     0.15916   0.16775   0.02354   0.00000  Uiso   1.00
C27    C     0.14067   0.15516   0.45352   0.00000  Uiso   1.00
C28    C     0.24236   0.18548   0.02363   0.00000  Uiso   1.00
C29    C     0.09139   0.14942   0.47619   0.00000  Uiso   1.00
C30    C     0.28929   0.01902   0.27318   0.00000  Uiso   1.00
C31    C     0.04404   0.31432   0.22631   0.00000  Uiso   1.00
C32    C     0.29148   0.30996   0.26942   0.00000  Uiso   1.00
Cu33   Cu    0.04689   0.16667   0.25000   0.00000  Uiso   1.00
Cu34   Cu    0.28645   0.16666   0.25000   0.00000  Uiso   1.00
H35    H     0.26772   0.19305   0.04237   0.00000  Uiso   1.00
H36    H     0.07442   0.04160   0.21481   0.00000  Uiso   1.00
H37    H     0.19061   0.12872   0.30707   0.00000  Uiso   1.00
H38    H     0.14278   0.20432   0.19271   0.00000  Uiso   1.00
H39    H     0.10410   0.12826   0.30679   0.00000  Uiso   1.00
H40    H     0.22925   0.20498   0.19313   0.00000  Uiso   1.00
H41    H     0.14392   0.07313   0.05853   0.00000  Uiso   1.00
H42    H     0.16305   0.22309   0.34190   0.00000  Uiso   1.00
H43    H     0.26593   0.06812   0.35393   0.00000  Uiso   1.00
H44    H     0.16640   0.28030   0.20981   0.00000  Uiso   1.00
H45    H     0.06608   0.14183   0.45741   0.00000  Uiso   1.00
H46    H     0.30408   0.15767   0.10809   0.00000  Uiso   1.00
H47    H     0.02953   0.17560   0.39177   0.00000  Uiso   1.00
H48    H     0.00205   0.18966   0.47188   0.00000  Uiso   1.00
H49    H     0.33176   0.14447   0.02788   0.00000  Uiso   1.00
H50    H     0.18168   0.18543   0.08175   0.00000  Uiso   1.00
H51    H     0.15199   0.15013   0.41798   0.00000  Uiso   1.00
H52    H     0.25886   0.29178   0.28472   0.00000  Uiso   1.00
N53    N     0.11736   0.16668   0.24999   0.00000  Uiso   1.00
N54    N     0.21597   0.16666   0.25001   0.00000  Uiso   1.00
O55    O     0.03958   0.10655   0.25000   0.00000  Uiso   1.00
O56    O     0.08950   0.08411   0.14354   0.00000  Uiso   1.00
O57    O     0.16480   0.08852   0.07360   0.00000  Uiso   1.00
O58    O     0.17650   0.24546   0.42238   0.00000  Uiso   1.00
O59    O     0.24687   0.25011   0.35587   0.00000  Uiso   1.00
O60    O     0.17586   0.19974   0.35488   0.00000  Uiso   1.00
O61    O     0.20561   0.05457   0.27589   0.00000  Uiso   1.00
O62    O     0.20342   0.00803   0.33712   0.00000  Uiso   1.00
O63    O     0.24494   0.07946   0.33690   0.00000  Uiso   1.00
O64    O     0.09004   0.25738   0.16704   0.00000  Uiso   1.00
O65    O     0.12901   0.32538   0.16185   0.00000  Uiso   1.00
O66    O     0.29375   0.22678   0.25000   0.00000  Uiso   1.00
O67    O     0.13164   0.27880   0.22793   0.00000  Uiso   1.00
O68    O     0.29372   0.10654   0.25001   0.00000  Uiso   1.00
O69    O     0.03961   0.22679   0.25000   0.00000  Uiso   1.00
O70    O     0.01852   0.16668   0.31492   0.00000  Uiso   1.00
O71    O     0.31481   0.16666   0.18509   0.00000  Uiso   1.00
O72    O     0.27267   0.16667   0.31492   0.00000  Uiso   1.00
O73    O     0.06067   0.16667   0.18508   0.00000  Uiso   1.00
O74    O     0.15377   0.13474   0.14292   0.00000  Uiso   1.00
S75    S     0.12549   0.11426   0.11503   0.00000  Uiso   1.00
S76    S     0.20955   0.22130   0.38502   0.00000  Uiso   1.00
S77    S     0.23382   0.03999   0.30627   0.00000  Uiso   1.00
S78    S     0.09970   0.29344   0.19352   0.00000  Uiso   1.00
C79    C     0.66559   0.08742   0.25184   0.00000  Uiso   1.00
C80    C     0.37516   0.02338   0.23009   0.00000  Uiso   1.00
C81    C     0.33510   0.29058   0.24731   0.00000  Uiso   1.00
C82    C     0.66492   0.04275   0.25232   0.00000  Uiso   1.00
C83    C     0.51411   0.14527   0.28138   0.00000  Uiso   1.00
C84    C     0.48594   0.18781   0.21842   0.00000  Uiso   1.00
C85    C     0.46456   0.14532   0.28147   0.00000  Uiso   1.00
C86    C     0.53546   0.18790   0.21845   0.00000  Uiso   1.00
C87    C     0.63894   0.16967   0.33578   0.00000  Uiso   1.00
C88    C     0.36110   0.16374   0.16420   0.00000  Uiso   1.00
C89    C     0.62305   0.17592   0.38438   0.00000  Uiso   1.00
C90    C     0.33443   0.24591   0.24806   0.00000  Uiso   1.00
C91    C     0.37720   0.15780   0.11555   0.00000  Uiso   1.00
C92    C     0.64182   0.18409   0.45438   0.00000  Uiso   1.00
C93    C     0.35861   0.15002   0.04543   0.00000  Uiso   1.00
C94    C     0.65738   0.17747   0.40851   0.00000  Uiso   1.00
C95    C     0.34293   0.15618   0.09136   0.00000  Uiso   1.00
C96    C     0.57359   0.18340   0.40699   0.00000  Uiso   1.00
C97    C     0.42686   0.15105   0.09289   0.00000  Uiso   1.00
C98    C     0.55738   0.17664   0.45327   0.00000  Uiso   1.00
C99    C     0.44303   0.15801   0.04662   0.00000  Uiso   1.00
C100   C     0.59186   0.18173   0.47735   0.00000  Uiso   1.00
C101   C     0.52635   0.18003   0.04628   0.00000  Uiso   1.00
C102   C     0.40857   0.15282   0.02250   0.00000  Uiso   1.00
C103   C     0.50786   0.16719   0.47633   0.00000  Uiso   1.00
C104   C     0.49249   0.16775   0.02354   0.00000  Uiso   1.00
C105   C     0.47400   0.15516   0.45352   0.00000  Uiso   1.00
C106   C     0.57569   0.18548   0.02363   0.00000  Uiso   1.00
C107   C     0.42472   0.14942   0.47619   0.00000  Uiso   1.00
C108   C     0.62262   0.01902   0.27318   0.00000  Uiso   1.00
C109   C     0.37737   0.31432   0.22631   0.00000  Uiso   1.00
C110   C     0.62481   0.30996   0.26942   0.00000  Uiso   1.00
Cu111  Cu    0.38022   0.16667   0.25000   0.00000  Uiso   1.00
Cu112  Cu    0.61978   0.16666   0.25000   0.00000  Uiso   1.00
H113   H     0.60105   0.19305   0.04237   0.00000  Uiso   1.00
H114   H     0.40775   0.04160   0.21481   0.00000  Uiso   1.00
H115   H     0.52394   0.12872   0.30707   0.00000  Uiso   1.00
H116   H     0.47611   0.20432   0.19271   0.00000  Uiso   1.00
H117   H     0.43743   0.12826   0.30679   0.00000  Uiso   1.00
H118   H     0.56259   0.20498   0.19313   0.00000  Uiso   1.00
H119   H     0.47725   0.07313   0.05853   0.00000  Uiso   1.00
H120   H     0.49638   0.22309   0.34190   0.00000  Uiso   1.00
H121   H     0.59926   0.06812   0.35393   0.00000  Uiso   1.00
H122   H     0.49973   0.28030   0.20981   0.00000  Uiso   1.00
H123   H     0.39941   0.14183   0.45741   0.00000  Uiso   1.00
H124   H     0.63741   0.15767   0.10809   0.00000  Uiso   1.00
H125   H     0.36286   0.17560   0.39177   0.00000  Uiso   1.00
H126   H     0.33539   0.18966   0.47188   0.00000  Uiso   1.00
H127   H     0.66509   0.14447   0.02788   0.00000  Uiso   1.00
H128   H     0.51502   0.18543   0.08175   0.00000  Uiso   1.00
H129   H     0.48532   0.15013   0.41798   0.00000  Uiso   1.00
H130   H     0.59220   0.29178   0.28472   0.00000  Uiso   1.00
N131   N     0.45069   0.16668   0.24999   0.00000  Uiso   1.00
N132   N     0.54931   0.16666   0.25001   0.00000  Uiso   1.00
O133   O     0.37291   0.10655   0.25000   0.00000  Uiso   1.00
O134   O     0.42284   0.08411   0.14354   0.00000  Uiso   1.00
O135   O     0.49814   0.08852   0.07360   0.00000  Uiso   1.00
O136   O     0.50983   0.24546   0.42238   0.00000  Uiso   1.00
O137   O     0.58021   0.25011   0.35587   0.00000  Uiso   1.00
O138   O     0.50919   0.19974   0.35488   0.00000  Uiso   1.00
O139   O     0.53894   0.05457   0.27589   0.00000  Uiso   1.00
O140   O     0.53675   0.00803   0.33712   0.00000  Uiso   1.00
O141   O     0.57827   0.07946   0.33690   0.00000  Uiso   1.00
O142   O     0.42338   0.25738   0.16704   0.00000  Uiso   1.00
O143   O     0.46234   0.32538   0.16185   0.00000  Uiso   1.00
O144   O     0.62709   0.22678   0.25000   0.00000  Uiso   1.00
O145   O     0.46498   0.27880   0.22793   0.00000  Uiso   1.00
O146   O     0.62706   0.10654   0.25001   0.00000  Uiso   1.00
O147   O     0.37294   0.22679   0.25000   0.00000  Uiso   1.00
O148   O     0.35186   0.16668   0.31492   0.00000  Uiso   1.00
O149   O     0.64814   0.16666   0.18509   0.00000  Uiso   1.00
O150   O     0.60600   0.16667   0.31492   0.00000  Uiso   1.00
O151   O     0.39400   0.16667   0.18508   0.00000  Uiso   1.00
O152   O     0.48710   0.13474   0.14292   0.00000  Uiso   1.00
S153   S     0.45883   0.11426   0.11503   0.00000  Uiso   1.00
S154   S     0.54288   0.22130   0.38502   0.00000  Uiso   1.00
S155   S     0.56715   0.03999   0.30627   0.00000  Uiso   1.00
S156   S     0.43303   0.29344   0.19352   0.00000  Uiso   1.00
C157   C     0.99893   0.08742   0.25184   0.00000  Uiso   1.00
C158   C     0.70850   0.02338   0.23009   0.00000  Uiso   1.00
C159   C     0.66844   0.29058   0.24731   0.00000  Uiso   1.00
C160   C     0.99825   0.04275   0.25232   0.00000  Uiso   1.00
C161   C     0.84744   0.14527   0.28138   0.00000  Uiso   1.00
C162   C     0.81928   0.18781   0.21842   0.00000  Uiso   1.00
C163   C     0.79790   0.14532   0.28147   0.00000  Uiso   1.00
C164   C     0.86879   0.18790   0.21845   0.00000  Uiso   1.00
C165   C     0.97228   0.16967   0.33578   0.00000  Uiso   1.00
C166   C     0.69443   0.16374   0.16420   0.00000  Uiso   1.00
C167   C     0.95638   0.17592   0.38438   0.00000  Uiso   1.00
C168   C     0.66776   0.24591   0.24806   0.00000  Uiso   1.00
C169   C     0.71053   0.15780   0.11555   0.00000  Uiso   1.00
C170   C     0.97516   0.18409   0.45438   0.00000  Uiso   1.00
C171   C     0.69195   0.15002   0.04543   0.00000  Uiso   1.00
C172   C     0.99072   0.17747   0.40851   0.00000  Uiso   1.00
C173   C     0.67626   0.15618   0.09136   0.00000  Uiso   1.00
C174   C     0.90693   0.18340   0.40699   0.00000  Uiso   1.00
C175   C     0.76019   0.15105   0.09289   0.00000  Uiso   1.00
C176   C     0.89071   0.17664   0.45327   0.00000  Uiso   1.00
C177   C     0.77636   0.15801   0.04662   0.00000  Uiso   1.00
C178   C     0.92519   0.18173   0.47735   0.00000  Uiso   1.00
C179   C     0.85968   0.18003   0.04628   0.00000  Uiso   1.00
C180   C     0.74190   0.15282   0.02250   0.00000  Uiso   1.00
C181   C     0.84120   0.16719   0.47633   0.00000  Uiso   1.00
C182   C     0.82582   0.16775   0.02354   0.00000  Uiso   1.00
C183   C     0.80733   0.15516   0.45352   0.00000  Uiso   1.00
C184   C     0.90902   0.18548   0.02363   0.00000  Uiso   1.00
C185   C     0.75806   0.14942   0.47619   0.00000  Uiso   1.00
C186   C     0.95596   0.01902   0.27318   0.00000  Uiso   1.00
C187   C     0.71070   0.31432   0.22631   0.00000  Uiso   1.00
C188   C     0.95814   0.30996   0.26942   0.00000  Uiso   1.00
Cu189  Cu    0.71355   0.16667   0.25000   0.00000  Uiso   1.00
Cu190  Cu    0.95311   0.16666   0.25000   0.00000  Uiso   1.00
H191   H     0.93438   0.19305   0.04237   0.00000  Uiso   1.00
H192   H     0.74108   0.04160   0.21481   0.00000  Uiso   1.00
H193   H     0.85728   0.12872   0.30707   0.00000  Uiso   1.00
H194   H     0.80944   0.20432   0.19271   0.00000  Uiso   1.00
H195   H     0.77076   0.12826   0.30679   0.00000  Uiso   1.00
H196   H     0.89592   0.20498   0.19313   0.00000  Uiso   1.00
H197   H     0.81059   0.07313   0.05853   0.00000  Uiso   1.00
H198   H     0.82971   0.22309   0.34190   0.00000  Uiso   1.00
H199   H     0.93259   0.06812   0.35393   0.00000  Uiso   1.00
H200   H     0.83306   0.28030   0.20981   0.00000  Uiso   1.00
H201   H     0.73274   0.14183   0.45741   0.00000  Uiso   1.00
H202   H     0.97075   0.15767   0.10809   0.00000  Uiso   1.00
H203   H     0.69620   0.17560   0.39177   0.00000  Uiso   1.00
H204   H     0.66872   0.18966   0.47188   0.00000  Uiso   1.00
H205   H     0.99843   0.14447   0.02788   0.00000  Uiso   1.00
H206   H     0.84835   0.18543   0.08175   0.00000  Uiso   1.00
H207   H     0.81865   0.15013   0.41798   0.00000  Uiso   1.00
H208   H     0.92553   0.29178   0.28472   0.00000  Uiso   1.00
N209   N     0.78403   0.16668   0.24999   0.00000  Uiso   1.00
N210   N     0.88264   0.16666   0.25001   0.00000  Uiso   1.00
O211   O     0.70625   0.10655   0.25000   0.00000  Uiso   1.00
O212   O     0.75617   0.08411   0.14354   0.00000  Uiso   1.00
O213   O     0.83147   0.08852   0.07360   0.00000  Uiso   1.00
O214   O     0.84316   0.24546   0.42238   0.00000  Uiso   1.00
O215   O     0.91354   0.25011   0.35587   0.00000  Uiso   1.00
O216   O     0.84252   0.19974   0.35488   0.00000  Uiso   1.00
O217   O     0.87228   0.05457   0.27589   0.00000  Uiso   1.00
O218   O     0.87008   0.00803   0.33712   0.00000  Uiso   1.00
O219   O     0.91161   0.07946   0.33690   0.00000  Uiso   1.00
O220   O     0.75671   0.25738   0.16704   0.00000  Uiso   1.00
O221   O     0.79568   0.32538   0.16185   0.00000  Uiso   1.00
O222   O     0.96042   0.22678   0.25000   0.00000  Uiso   1.00
O223   O     0.79831   0.27880   0.22793   0.00000  Uiso   1.00
O224   O     0.96039   0.10654   0.25001   0.00000  Uiso   1.00
O225   O     0.70628   0.22679   0.25000   0.00000  Uiso   1.00
O226   O     0.68519   0.16668   0.31492   0.00000  Uiso   1.00
O227   O     0.98148   0.16666   0.18509   0.00000  Uiso   1.00
O228   O     0.93933   0.16667   0.31492   0.00000  Uiso   1.00
O229   O     0.72733   0.16667   0.18508   0.00000  Uiso   1.00
O230   O     0.82044   0.13474   0.14292   0.00000  Uiso   1.00
S231   S     0.79216   0.11426   0.11503   0.00000  Uiso   1.00
S232   S     0.87621   0.22130   0.38502   0.00000  Uiso   1.00
S233   S     0.90049   0.03999   0.30627   0.00000  Uiso   1.00
S234   S     0.76637   0.29344   0.19352   0.00000  Uiso   1.00
C235   C     0.33226   0.42075   0.25184   0.00000  Uiso   1.00
C236   C     0.04183   0.35672   0.23009   0.00000  Uiso   1.00
C237   C     0.00177   0.62392   0.24731   0.00000  Uiso   1.00
C238   C     0.33158   0.37608   0.25232   0.00000  Uiso   1.00
C239   C     0.18077   0.47861   0.28138   0.00000  Uiso   1.00
C240   C     0.15261   0.52114   0.21842   0.00000  Uiso   1.00
C241   C     0.13123   0.47865   0.28147   0.00000  Uiso   1.00
C242   C     0.20213   0.52123   0.21845   0.00000  Uiso   1.00
C243   C     0.30561   0.50300   0.33578   0.00000  Uiso   1.00
C244   C     0.02776   0.49707   0.16420   0.00000  Uiso   1.00
C245   C     0.28971   0.50925   0.38438   0.00000  Uiso   1.00
C246   C     0.00109   0.57924   0.24806   0.00000  Uiso   1.00
C247   C     0.04386   0.49113   0.11555   0.00000  Uiso   1.00
C248   C     0.30849   0.51743   0.45438   0.00000  Uiso   1.00
C249   C     0.02528   0.48336   0.04543   0.00000  Uiso   1.00
C250   C     0.32405   0.51080   0.40851   0.00000  Uiso   1.00
C251   C     0.00960   0.48952   0.09136   0.00000  Uiso   1.00
C252   C     0.24026   0.51673   0.40699   0.00000  Uiso   1.00
C253   C     0.09352   0.48439   0.09289   0.00000  Uiso   1.00
C254   C     0.22405   0.50998   0.45327   0.00000  Uiso   1.00
C255   C     0.10970   0.49134   0.04662   0.00000  Uiso   1.00
C256   C     0.25852   0.51506   0.47735   0.00000  Uiso   1.00
C257   C     0.19301   0.51336   0.04628   0.00000  Uiso   1.00
C258   C     0.07524   0.48615   0.02250   0.00000  Uiso   1.00
C259   C     0.17453   0.50052   0.47633   0.00000  Uiso   1.00
C260   C     0.15916   0.50108   0.02354   0.00000  Uiso   1.00
C261   C     0.14067   0.48850   0.45352   0.00000  Uiso   1.00
C262   C     0.24236   0.51881   0.02363   0.00000  Uiso   1.00
C263   C     0.09139   0.48275   0.47619   0.00000  Uiso   1.00
C264   C     0.28929   0.35235   0.27318   0.00000  Uiso   1.00
C265   C     0.04404   0.64766   0.22631   0.00000  Uiso   1.00
C266   C     0.29148   0.64330   0.26942   0.00000  Uiso   1.00
Cu267  Cu    0.04689   0.50001   0.25000   0.00000  Uiso   1.00
Cu268  Cu    0.28645   0.49999   0.25000   0.00000  Uiso   1.00
H269   H     0.26772   0.52638   0.04237   0.00000  Uiso   1.00
H270   H     0.07442   0.37493   0.21481   0.00000  Uiso   1.00
H271   H     0.19061   0.46206   0.30707   0.00000  Uiso   1.00
H272   H     0.14278   0.53765   0.19271   0.00000  Uiso   1.00
H273   H     0.10410   0.46159   0.30679   0.00000  Uiso   1.00
H274   H     0.22925   0.53831   0.19313   0.00000  Uiso   1.00
H275   H     0.14392   0.40647   0.05853   0.00000  Uiso   1.00
H276   H     0.16305   0.55642   0.34190   0.00000  Uiso   1.00
H277   H     0.26593   0.40145   0.35393   0.00000  Uiso   1.00
H278   H     0.16640   0.61363   0.20981   0.00000  Uiso   1.00
H279   H     0.06608   0.47516   0.45741   0.00000  Uiso   1.00
H280   H     0.30408   0.49100   0.10809   0.00000  Uiso   1.00
H281   H     0.02953   0.50893   0.39177   0.00000  Uiso   1.00
H282   H     0.00205   0.52300   0.47188   0.00000  Uiso   1.00
H283   H     0.33176   0.47780   0.02788   0.00000  Uiso   1.00
H284   H     0.18168   0.51876   0.08175   0.00000  Uiso   1.00
H285   H     0.15199   0.48346   0.41798   0.00000  Uiso   1.00
H286   H     0.25886   0.62512   0.28472   0.00000  Uiso   1.00
N287   N     0.11736   0.50001   0.24999   0.00000  Uiso   1.00
N288   N     0.21597   0.49999   0.25001   0.00000  Uiso   1.00
O289   O     0.03958   0.43989   0.25000   0.00000  Uiso   1.00
O290   O     0.08950   0.41744   0.14354   0.00000  Uiso   1.00
O291   O     0.16480   0.42185   0.07360   0.00000  Uiso   1.00
O292   O     0.17650   0.57879   0.42238   0.00000  Uiso   1.00
O293   O     0.24687   0.58344   0.35587   0.00000  Uiso   1.00
O294   O     0.17586   0.53307   0.35488   0.00000  Uiso   1.00
O295   O     0.20561   0.38791   0.27589   0.00000  Uiso   1.00
O296   O     0.20342   0.34136   0.33712   0.00000  Uiso   1.00
O297   O     0.24494   0.41279   0.33690   0.00000  Uiso   1.00
O298   O     0.09004   0.59071   0.16704   0.00000  Uiso   1.00
O299   O     0.12901   0.65871   0.16185   0.00000  Uiso   1.00
O300   O     0.29375   0.56011   0.25000   0.00000  Uiso   1.00
O301   O     0.13164   0.61213   0.22793   0.00000  Uiso   1.00
O302   O     0.29372   0.43988   0.25001   0.00000  Uiso   1.00
O303   O     0.03961   0.56012   0.25000   0.00000  Uiso   1.00
O304   O     0.01852   0.50001   0.31492   0.00000  Uiso   1.00
O305   O     0.31481   0.49999   0.18509   0.00000  Uiso   1.00
O306   O     0.27267   0.50000   0.31492   0.00000  Uiso   1.00
O307   O     0.06067   0.50000   0.18508   0.00000  Uiso   1.00
O308   O     0.15377   0.46807   0.14292   0.00000  Uiso   1.00
S309   S     0.12549   0.44759   0.11503   0.00000  Uiso   1.00
S310   S     0.20955   0.55463   0.38502   0.00000  Uiso   1.00
S311   S     0.23382   0.37333   0.30627   0.00000  Uiso   1.00
S312   S     0.09970   0.62678   0.19352   0.00000  Uiso   1.00
C313   C     0.66559   0.42075   0.25184   0.00000  Uiso   1.00
C314   C     0.37516   0.35672   0.23009   0.00000  Uiso   1.00
C315   C     0.33510   0.62392   0.24731   0.00000  Uiso   1.00
C316   C     0.66492   0.37608   0.25232   0.00000  Uiso   1.00
C317   C     0.51411   0.47861   0.28138   0.00000  Uiso   1.00
C318   C     0.48594   0.52114   0.21842   0.00000  Uiso   1.00
C319   C     0.46456   0.47865   0.28147   0.00000  Uiso   1.00
C320   C     0.53546   0.52123   0.21845   0.00000  Uiso   1.00
C321   C     0.63894   0.50300   0.33578   0.00000  Uiso   1.00
C322   C     0.36110   0.49707   0.16420   0.00000  Uiso   1.00
C323   C     0.62305   0.50925   0.38438   0.00000  Uiso   1.00
C324   C     0.33443   0.57924   0.24806   0.00000  Uiso   1.00
C325   C     0.37720   0.49113   0.11555   0.00000  Uiso   1.00
C326   C     0.64182   0.51743   0.45438   0.00000  Uiso   1.00
C327   C     0.35861   0.48336   0.04543   0.00000  Uiso   1.00
C328   C     0.65738   0.51080   0.40851   0.00000  Uiso   1.00
C329   C     0.34293   0.48952   0.09136   0.00000  Uiso   1.00
C330   C     0.57359   0.51673   0.40699   0.00000  Uiso   1.00
C331   C     0.42686   0.48439   0.09289   0.00000  Uiso   1.00
C332   C     0.55738   0.50998   0.45327   0.00000  Uiso   1.00
C333   C     0.44303   0.49134   0.04662   0.00000  Uiso   1.00
C334   C     0.59186   0.51506   0.47735   0.00000  Uiso   1.00
C335   C     0.52635   0.51336   0.04628   0.00000  Uiso   1.00
C336   C     0.40857   0.48615   0.02250   0.00000  Uiso   1.00
C337   C     0.50786   0.50052   0.47633   0.00000  Uiso   1.00
C338   C     0.49249   0.50108   0.02354   0.00000  Uiso   1.00
C339   C     0.47400   0.48850   0.45352   0.00000  Uiso   1.00
C340   C     0.57569   0.51881   0.02363   0.00000  Uiso   1.00
C341   C     0.42472   0.48275   0.47619   0.00000  Uiso   1.00
C342   C     0.62262   0.35235   0.27318   0.00000  Uiso   1.00
C343   C     0.37737   0.64766   0.22631   0.00000  Uiso   1.00
C344   C     0.62481   0.64330   0.26942   0.00000  Uiso   1.00
Cu345  Cu    0.38022   0.50001   0.25000   0.00000  Uiso   1.00
Cu346  Cu    0.61978   0.49999   0.25000   0.00000  Uiso   1.00
H347   H     0.60105   0.52638   0.04237   0.00000  Uiso   1.00
H348   H     0.40775   0.37493   0.21481   0.00000  Uiso   1.00
H349   H     0.52394   0.46206   0.30707   0.00000  Uiso   1.00
H350   H     0.47611   0.53765   0.19271   0.00000  Uiso   1.00
H351   H     0.43743   0.46159   0.30679   0.00000  Uiso   1.00
H352   H     0.56259   0.53831   0.19313   0.00000  Uiso   1.00
H353   H     0.47725   0.40647   0.05853   0.00000  Uiso   1.00
H354   H     0.49638   0.55642   0.34190   0.00000  Uiso   1.00
H355   H     0.59926   0.40145   0.35393   0.00000  Uiso   1.00
H356   H     0.49973   0.61363   0.20981   0.00000  Uiso   1.00
H357   H     0.39941   0.47516   0.45741   0.00000  Uiso   1.00
H358   H     0.63741   0.49100   0.10809   0.00000  Uiso   1.00
H359   H     0.36286   0.50893   0.39177   0.00000  Uiso   1.00
H360   H     0.33539   0.52300   0.47188   0.00000  Uiso   1.00
H361   H     0.66509   0.47780   0.02788   0.00000  Uiso   1.00
H362   H     0.51502   0.51876   0.08175   0.00000  Uiso   1.00
H363   H     0.48532   0.48346   0.41798   0.00000  Uiso   1.00
H364   H     0.59220   0.62512   0.28472   0.00000  Uiso   1.00
N365   N     0.45069   0.50001   0.24999   0.00000  Uiso   1.00
N366   N     0.54931   0.49999   0.25001   0.00000  Uiso   1.00
O367   O     0.37291   0.43989   0.25000   0.00000  Uiso   1.00
O368   O     0.42284   0.41744   0.14354   0.00000  Uiso   1.00
O369   O     0.49814   0.42185   0.07360   0.00000  Uiso   1.00
O370   O     0.50983   0.57879   0.42238   0.00000  Uiso   1.00
O371   O     0.58021   0.58344   0.35587   0.00000  Uiso   1.00
O372   O     0.50919   0.53307   0.35488   0.00000  Uiso   1.00
O373   O     0.53894   0.38791   0.27589   0.00000  Uiso   1.00
O374   O     0.53675   0.34136   0.33712   0.00000  Uiso   1.00
O375   O     0.57827   0.41279   0.33690   0.00000  Uiso   1.00
O376   O     0.42338   0.59071   0.16704   0.00000  Uiso   1.00
O377   O     0.46234   0.65871   0.16185   0.00000  Uiso   1.00
O378   O     0.62709   0.56011   0.25000   0.00000  Uiso   1.00
O379   O     0.46498   0.61213   0.22793   0.00000  Uiso   1.00
O380   O     0.62706   0.43988   0.25001   0.00000  Uiso   1.00
O381   O     0.37294   0.56012   0.25000   0.00000  Uiso   1.00
O382   O     0.35186   0.50001   0.31492   0.00000  Uiso   1.00
O383   O     0.64814   0.49999   0.18509   0.00000  Uiso   1.00
O384   O     0.60600   0.50000   0.31492   0.00000  Uiso   1.00
O385   O     0.39400   0.50000   0.18508   0.00000  Uiso   1.00
O386   O     0.48710   0.46807   0.14292   0.00000  Uiso   1.00
S387   S     0.45883   0.44759   0.11503   0.00000  Uiso   1.00
S388   S     0.54288   0.55463   0.38502   0.00000  Uiso   1.00
S389   S     0.56715   0.37333   0.30627   0.00000  Uiso   1.00
S390   S     0.43303   0.62678   0.19352   0.00000  Uiso   1.00
C391   C     0.99893   0.42075   0.25184   0.00000  Uiso   1.00
C392   C     0.70850   0.35672   0.23009   0.00000  Uiso   1.00
C393   C     0.66844   0.62392   0.24731   0.00000  Uiso   1.00
C394   C     0.99825   0.37608   0.25232   0.00000  Uiso   1.00
C395   C     0.84744   0.47861   0.28138   0.00000  Uiso   1.00
C396   C     0.81928   0.52114   0.21842   0.00000  Uiso   1.00
C397   C     0.79790   0.47865   0.28147   0.00000  Uiso   1.00
C398   C     0.86879   0.52123   0.21845   0.00000  Uiso   1.00
C399   C     0.97228   0.50300   0.33578   0.00000  Uiso   1.00
C400   C     0.69443   0.49707   0.16420   0.00000  Uiso   1.00
C401   C     0.95638   0.50925   0.38438   0.00000  Uiso   1.00
C402   C     0.66776   0.57924   0.24806   0.00000  Uiso   1.00
C403   C     0.71053   0.49113   0.11555   0.00000  Uiso   1.00
C404   C     0.97516   0.51743   0.45438   0.00000  Uiso   1.00
C405   C     0.69195   0.48336   0.04543   0.00000  Uiso   1.00
C406   C     0.99072   0.51080   0.40851   0.00000  Uiso   1.00
C407   C     0.67626   0.48952   0.09136   0.00000  Uiso   1.00
C408   C     0.90693   0.51673   0.40699   0.00000  Uiso   1.00
C409   C     0.76019   0.48439   0.09289   0.00000  Uiso   1.00
C410   C     0.89071   0.50998   0.45327   0.00000  Uiso   1.00
C411   C     0.77636   0.49134   0.04662   0.00000  Uiso   1.00
C412   C     0.92519   0.51506   0.47735   0.00000  Uiso   1.00
C413   C     0.85968   0.51336   0.04628   0.00000  Uiso   1.00
C414   C     0.74190   0.48615   0.02250   0.00000  Uiso   1.00
C415   C     0.84120   0.50052   0.47633   0.00000  Uiso   1.00
C416   C     0.82582   0.50108   0.02354   0.00000  Uiso   1.00
C417   C     0.80733   0.48850   0.45352   0.00000  Uiso   1.00
C418   C     0.90902   0.51881   0.02363   0.00000  Uiso   1.00
C419   C     0.75806   0.48275   0.47619   0.00000  Uiso   1.00
C420   C     0.95596   0.35235   0.27318   0.00000  Uiso   1.00
C421   C     0.71070   0.64766   0.22631   0.00000  Uiso   1.00
C422   C     0.95814   0.64330   0.26942   0.00000  Uiso   1.00
Cu423  Cu    0.71355   0.50001   0.25000   0.00000  Uiso   1.00
Cu424  Cu    0.95311   0.49999   0.25000   0.00000  Uiso   1.00
H425   H     0.93438   0.52638   0.04237   0.00000  Uiso   1.00
H426   H     0.74108   0.37493   0.21481   0.00000  Uiso   1.00
H427   H     0.85728   0.46206   0.30707   0.00000  Uiso   1.00
H428   H     0.80944   0.53765   0.19271   0.00000  Uiso   1.00
H429   H     0.77076   0.46159   0.30679   0.00000  Uiso   1.00
H430   H     0.89592   0.53831   0.19313   0.00000  Uiso   1.00
H431   H     0.81059   0.40647   0.05853   0.00000  Uiso   1.00
H432   H     0.82971   0.55642   0.34190   0.00000  Uiso   1.00
H433   H     0.93259   0.40145   0.35393   0.00000  Uiso   1.00
H434   H     0.83306   0.61363   0.20981   0.00000  Uiso   1.00
H435   H     0.73274   0.47516   0.45741   0.00000  Uiso   1.00
H436   H     0.97075   0.49100   0.10809   0.00000  Uiso   1.00
H437   H     0.69620   0.50893   0.39177   0.00000  Uiso   1.00
H438   H     0.66872   0.52300   0.47188   0.00000  Uiso   1.00
H439   H     0.99843   0.47780   0.02788   0.00000  Uiso   1.00
H440   H     0.84835   0.51876   0.08175   0.00000  Uiso   1.00
H441   H     0.81865   0.48346   0.41798   0.00000  Uiso   1.00
H442   H     0.92553   0.62512   0.28472   0.00000  Uiso   1.00
N443   N     0.78403   0.50001   0.24999   0.00000  Uiso   1.00
N444   N     0.88264   0.49999   0.25001   0.00000  Uiso   1.00
O445   O     0.70625   0.43989   0.25000   0.00000  Uiso   1.00
O446   O     0.75617   0.41744   0.14354   0.00000  Uiso   1.00
O447   O     0.83147   0.42185   0.07360   0.00000  Uiso   1.00
O448   O     0.84316   0.57879   0.42238   0.00000  Uiso   1.00
O449   O     0.91354   0.58344   0.35587   0.00000  Uiso   1.00
O450   O     0.84252   0.53307   0.35488   0.00000  Uiso   1.00
O451   O     0.87228   0.38791   0.27589   0.00000  Uiso   1.00
O452   O     0.87008   0.34136   0.33712   0.00000  Uiso   1.00
O453   O     0.91161   0.41279   0.33690   0.00000  Uiso   1.00
O454   O     0.75671   0.59071   0.16704   0.00000  Uiso   1.00
O455   O     0.79568   0.65871   0.16185   0.00000  Uiso   1.00
O456   O     0.96042   0.56011   0.25000   0.00000  Uiso   1.00
O457   O     0.79831   0.61213   0.22793   0.00000  Uiso   1.00
O458   O     0.96039   0.43988   0.25001   0.00000  Uiso   1.00
O459   O     0.70628   0.56012   0.25000   0.00000  Uiso   1.00
O460   O     0.68519   0.50001   0.31492   0.00000  Uiso   1.00
O461   O     0.98148   0.49999   0.18509   0.00000  Uiso   1.00
O462   O     0.93933   0.50000   0.31492   0.00000  Uiso   1.00
O463   O     0.72733   0.50000   0.18508   0.00000  Uiso   1.00
O464   O     0.82044   0.46807   0.14292   0.00000  Uiso   1.00
S465   S     0.79216   0.44759   0.11503   0.00000  Uiso   1.00
S466   S     0.87621   0.55463   0.38502   0.00000  Uiso   1.00
S467   S     0.90049   0.37333   0.30627   0.00000  Uiso   1.00
S468   S     0.76637   0.62678   0.19352   0.00000  Uiso   1.00
C469   C     0.33226   0.75408   0.25184   0.00000  Uiso   1.00
C470   C     0.04183   0.69005   0.23009   0.00000  Uiso   1.00
C471   C     0.00177   0.95725   0.24731   0.00000  Uiso   1.00
C472   C     0.33158   0.70941   0.25232   0.00000  Uiso   1.00
C473   C     0.18077   0.81194   0.28138   0.00000  Uiso   1.00
C474   C     0.15261   0.85448   0.21842   0.00000  Uiso   1.00
C475   C     0.13123   0.81199   0.28147   0.00000  Uiso   1.00
C476   C     0.20213   0.85457   0.21845   0.00000  Uiso   1.00
C477   C     0.30561   0.83633   0.33578   0.00000  Uiso   1.00
C478   C     0.02776   0.83040   0.16420   0.00000  Uiso   1.00
C479   C     0.28971   0.84259   0.38438   0.00000  Uiso   1.00
C480   C     0.00109   0.91258   0.24806   0.00000  Uiso   1.00
C481   C     0.04386   0.82446   0.11555   0.00000  Uiso   1.00
C482   C     0.30849   0.85076   0.45438   0.00000  Uiso   1.00
C483   C     0.02528   0.81669   0.04543   0.00000  Uiso   1.00
C484   C     0.32405   0.84414   0.40851   0.00000  Uiso   1.00
C485   C     0.00960   0.82285   0.09136   0.00000  Uiso   1.00
C486   C     0.24026   0.85007   0.40699   0.00000  Uiso   1.00
C487   C     0.09352   0.81772   0.09289   0.00000  Uiso   1.00
C488   C     0.22405   0.84331   0.45327   0.00000  Uiso   1.00
C489   C     0.10970   0.82467   0.04662   0.00000  Uiso   1.00
C490   C     0.25852   0.84840   0.47735   0.00000  Uiso   1.00
C491   C     0.19301   0.84670   0.04628   0.00000  Uiso   1.00
C492   C     0.07524   0.81948   0.02250   0.00000  Uiso   1.00
C493   C     0.17453   0.83386   0.47633   0.00000  Uiso   1.00
C494   C     0.15916   0.83442   0.02354   0.00000  Uiso   1.00
C495   C     0.14067   0.82183   0.45352   0.00000  Uiso   1.00
C496   C     0.24236   0.85215   0.02363   0.00000  Uiso   1.00
C497   C     0.09139   0.81608   0.47619   0.00000  Uiso   1.00
C498   C     0.28929   0.68568   0.27318   0.00000  Uiso   1.00
C499   C     0.04404   0.98099   0.22631   0.00000  Uiso   1.00
C500   C     0.29148   0.97663   0.26942   0.00000  Uiso   1.00
Cu501  Cu    0.04689   0.83334   0.25000   0.00000  Uiso   1.00
Cu502  Cu    0.28645   0.83333   0.25000   0.00000  Uiso   1.00
H503   H     0.26772   0.85971   0.04237   0.00000  Uiso   1.00
H504   H     0.07442   0.70827   0.21481   0.00000  Uiso   1.00
H505   H     0.19061   0.79539   0.30707   0.00000  Uiso   1.00
H506   H     0.14278   0.87098   0.19271   0.00000  Uiso   1.00
H507   H     0.10410   0.79492   0.30679   0.00000  Uiso   1.00
H508   H     0.22925   0.87164   0.19313   0.00000  Uiso   1.00
H509   H     0.14392   0.73980   0.05853   0.00000  Uiso   1.00
H510   H     0.16305   0.88975   0.34190   0.00000  Uiso   1.00
H511   H     0.26593   0.73478   0.35393   0.00000  Uiso   1.00
H512   H     0.16640   0.94697   0.20981   0.00000  Uiso   1.00
H513   H     0.06608   0.80849   0.45741   0.00000  Uiso   1.00
H514   H     0.30408   0.82433   0.10809   0.00000  Uiso   1.00
H515   H     0.02953   0.84227   0.39177   0.00000  Uiso   1.00
H516   H     0.00205   0.85633   0.47188   0.00000  Uiso   1.00
H517   H     0.33176   0.81113   0.02788   0.00000  Uiso   1.00
H518   H     0.18168   0.85210   0.08175   0.00000  Uiso   1.00
H519   H     0.15199   0.81679   0.41798   0.00000  Uiso   1.00
H520   H     0.25886   0.95845   0.28472   0.00000  Uiso   1.00
N521   N     0.11736   0.83334   0.24999   0.00000  Uiso   1.00
N522   N     0.21597   0.83332   0.25001   0.00000  Uiso   1.00
O523   O     0.03958   0.77322   0.25000   0.00000  Uiso   1.00
O524   O     0.08950   0.75077   0.14354   0.00000  Uiso   1.00
O525   O     0.16480   0.75518   0.07360   0.00000  Uiso   1.00
O526   O     0.17650   0.91213   0.42238   0.00000  Uiso   1.00
O527   O     0.24687   0.91678   0.35587   0.00000  Uiso   1.00
O528   O     0.17586   0.86640   0.35488   0.00000  Uiso   1.00
O529   O     0.20561   0.72124   0.27589   0.00000  Uiso   1.00
O530   O     0.20342   0.67470   0.33712   0.00000  Uiso   1.00
O531   O     0.24494   0.74612   0.33690   0.00000  Uiso   1.00
O532   O     0.09004   0.92404   0.16704   0.00000  Uiso   1.00
O533   O     0.12901   0.99204   0.16185   0.00000  Uiso   1.00
O534   O     0.29375   0.89345   0.25000   0.00000  Uiso   1.00
O535   O     0.13164   0.94547   0.22793   0.00000  Uiso   1.00
O536   O     0.29372   0.77321   0.25001   0.00000  Uiso   1.00
O537   O     0.03961   0.89346   0.25000   0.00000  Uiso   1.00
O538   O     0.01852   0.83334   0.31492   0.00000  Uiso   1.00
O539   O     0.31481   0.83332   0.18509   0.00000  Uiso   1.00
O540   O     0.27267   0.83333   0.31492   0.00000  Uiso   1.00
O541   O     0.06067   0.83333   0.18508   0.00000  Uiso   1.00
O542   O     0.15377   0.80140   0.14292   0.00000  Uiso   1.00
S543   S     0.12549   0.78093   0.11503   0.00000  Uiso   1.00
S544   S     0.20955   0.88796   0.38502   0.00000  Uiso   1.00
S545   S     0.23382   0.70666   0.30627   0.00000  Uiso   1.00
S546   S     0.09970   0.96011   0.19352   0.00000  Uiso   1.00
C547   C     0.66559   0.75408   0.25184   0.00000  Uiso   1.00
C548   C     0.37516   0.69005   0.23009   0.00000  Uiso   1.00
C549   C     0.33510   0.95725   0.24731   0.00000  Uiso   1.00
C550   C     0.66492   0.70941   0.25232   0.00000  Uiso   1.00
C551   C     0.51411   0.81194   0.28138   0.00000  Uiso   1.00
C552   C     0.48594   0.85448   0.21842   0.00000  Uiso   1.00
C553   C     0.46456   0.81199   0.28147   0.00000  Uiso   1.00
C554   C     0.53546   0.85457   0.21845   0.00000  Uiso   1.00
C555   C     0.63894   0.83633   0.33578   0.00000  Uiso   1.00
C556   C     0.36110   0.83040   0.16420   0.00000  Uiso   1.00
C557   C     0.62305   0.84259   0.38438   0.00000  Uiso   1.00
C558   C     0.33443   0.91258   0.24806   0.00000  Uiso   1.00
C559   C     0.37720   0.82446   0.11555   0.00000  Uiso   1.00
C560   C     0.64182   0.85076   0.45438   0.00000  Uiso   1.00
C561   C     0.35861   0.81669   0.04543   0.00000  Uiso   1.00
C562   C     0.65738   0.84414   0.40851   0.00000  Uiso   1.00
C563   C     0.34293   0.82285   0.09136   0.00000  Uiso   1.00
C564   C     0.57359   0.85007   0.40699   0.00000  Uiso   1.00
C565   C     0.42686   0.81772   0.09289   0.00000  Uiso   1.00
C566   C     0.55738   0.84331   0.45327   0.00000  Uiso   1.00
C567   C     0.44303   0.82467   0.04662   0.00000  Uiso   1.00
C568   C     0.59186   0.84840   0.47735   0.00000  Uiso   1.00
C569   C     0.52635   0.84670   0.04628   0.00000  Uiso   1.00
C570   C     0.40857   0.81948   0.02250   0.00000  Uiso   1.00
C571   C     0.50786   0.83386   0.47633   0.00000  Uiso   1.00
C572   C     0.49249   0.83442   0.02354   0.00000  Uiso   1.00
C573   C     0.47400   0.82183   0.45352   0.00000  Uiso   1.00
C574   C     0.57569   0.85215   0.02363   0.00000  Uiso   1.00
C575   C     0.42472   0.81608   0.47619   0.00000  Uiso   1.00
C576   C     0.62262   0.68568   0.27318   0.00000  Uiso   1.00
C577   C     0.37737   0.98099   0.22631   0.00000  Uiso   1.00
C578   C     0.62481   0.97663   0.26942   0.00000  Uiso   1.00
Cu579  Cu    0.38022   0.83334   0.25000   0.00000  Uiso   1.00
Cu580  Cu    0.61978   0.83333   0.25000   0.00000  Uiso   1.00
H581   H     0.60105   0.85971   0.04237   0.00000  Uiso   1.00
H582   H     0.40775   0.70827   0.21481   0.00000  Uiso   1.00
H583   H     0.52394   0.79539   0.30707   0.00000  Uiso   1.00
H584   H     0.47611   0.87098   0.19271   0.00000  Uiso   1.00
H585   H     0.43743   0.79492   0.30679   0.00000  Uiso   1.00
H586   H     0.56259   0.87164   0.19313   0.00000  Uiso   1.00
H587   H     0.47725   0.73980   0.05853   0.00000  Uiso   1.00
H588   H     0.49638   0.88975   0.34190   0.00000  Uiso   1.00
H589   H     0.59926   0.73478   0.35393   0.00000  Uiso   1.00
H590   H     0.49973   0.94697   0.20981   0.00000  Uiso   1.00
H591   H     0.39941   0.80849   0.45741   0.00000  Uiso   1.00
H592   H     0.63741   0.82433   0.10809   0.00000  Uiso   1.00
H593   H     0.36286   0.84227   0.39177   0.00000  Uiso   1.00
H594   H     0.33539   0.85633   0.47188   0.00000  Uiso   1.00
H595   H     0.66509   0.81113   0.02788   0.00000  Uiso   1.00
H596   H     0.51502   0.85210   0.08175   0.00000  Uiso   1.00
H597   H     0.48532   0.81679   0.41798   0.00000  Uiso   1.00
H598   H     0.59220   0.95845   0.28472   0.00000  Uiso   1.00
N599   N     0.45069   0.83334   0.24999   0.00000  Uiso   1.00
N600   N     0.54931   0.83332   0.25001   0.00000  Uiso   1.00
O601   O     0.37291   0.77322   0.25000   0.00000  Uiso   1.00
O602   O     0.42284   0.75077   0.14354   0.00000  Uiso   1.00
O603   O     0.49814   0.75518   0.07360   0.00000  Uiso   1.00
O604   O     0.50983   0.91213   0.42238   0.00000  Uiso   1.00
O605   O     0.58021   0.91678   0.35587   0.00000  Uiso   1.00
O606   O     0.50919   0.86640   0.35488   0.00000  Uiso   1.00
O607   O     0.53894   0.72124   0.27589   0.00000  Uiso   1.00
O608   O     0.53675   0.67470   0.33712   0.00000  Uiso   1.00
O609   O     0.57827   0.74612   0.33690   0.00000  Uiso   1.00
O610   O     0.42338   0.92404   0.16704   0.00000  Uiso   1.00
O611   O     0.46234   0.99204   0.16185   0.00000  Uiso   1.00
O612   O     0.62709   0.89345   0.25000   0.00000  Uiso   1.00
O613   O     0.46498   0.94547   0.22793   0.00000  Uiso   1.00
O614   O     0.62706   0.77321   0.25001   0.00000  Uiso   1.00
O615   O     0.37294   0.89346   0.25000   0.00000  Uiso   1.00
O616   O     0.35186   0.83334   0.31492   0.00000  Uiso   1.00
O617   O     0.64814   0.83332   0.18509   0.00000  Uiso   1.00
O618   O     0.60600   0.83333   0.31492   0.00000  Uiso   1.00
O619   O     0.39400   0.83333   0.18508   0.00000  Uiso   1.00
O620   O     0.48710   0.80140   0.14292   0.00000  Uiso   1.00
S621   S     0.45883   0.78093   0.11503   0.00000  Uiso   1.00
S622   S     0.54288   0.88796   0.38502   0.00000  Uiso   1.00
S623   S     0.56715   0.70666   0.30627   0.00000  Uiso   1.00
S624   S     0.43303   0.96011   0.19352   0.00000  Uiso   1.00
C625   C     0.99893   0.75408   0.25184   0.00000  Uiso   1.00
C626   C     0.70850   0.69005   0.23009   0.00000  Uiso   1.00
C627   C     0.66844   0.95725   0.24731   0.00000  Uiso   1.00
C628   C     0.99825   0.70941   0.25232   0.00000  Uiso   1.00
C629   C     0.84744   0.81194   0.28138   0.00000  Uiso   1.00
C630   C     0.81928   0.85448   0.21842   0.00000  Uiso   1.00
C631   C     0.79790   0.81199   0.28147   0.00000  Uiso   1.00
C632   C     0.86879   0.85457   0.21845   0.00000  Uiso   1.00
C633   C     0.97228   0.83633   0.33578   0.00000  Uiso   1.00
C634   C     0.69443   0.83040   0.16420   0.00000  Uiso   1.00
C635   C     0.95638   0.84259   0.38438   0.00000  Uiso   1.00
C636   C     0.66776   0.91258   0.24806   0.00000  Uiso   1.00
C637   C     0.71053   0.82446   0.11555   0.00000  Uiso   1.00
C638   C     0.97516   0.85076   0.45438   0.00000  Uiso   1.00
C639   C     0.69195   0.81669   0.04543   0.00000  Uiso   1.00
C640   C     0.99072   0.84414   0.40851   0.00000  Uiso   1.00
C641   C     0.67626   0.82285   0.09136   0.00000  Uiso   1.00
C642   C     0.90693   0.85007   0.40699   0.00000  Uiso   1.00
C643   C     0.76019   0.81772   0.09289   0.00000  Uiso   1.00
C644   C     0.89071   0.84331   0.45327   0.00000  Uiso   1.00
C645   C     0.77636   0.82467   0.04662   0.00000  Uiso   1.00
C646   C     0.92519   0.84840   0.47735   0.00000  Uiso   1.00
C647   C     0.85968   0.84670   0.04628   0.00000  Uiso   1.00
C648   C     0.74190   0.81948   0.02250   0.00000  Uiso   1.00
C649   C     0.84120   0.83386   0.47633   0.00000  Uiso   1.00
C650   C     0.82582   0.83442   0.02354   0.00000  Uiso   1.00
C651   C     0.80733   0.82183   0.45352   0.00000  Uiso   1.00
C652   C     0.90902   0.85215   0.02363   0.00000  Uiso   1.00
C653   C     0.75806   0.81608   0.47619   0.00000  Uiso   1.00
C654   C     0.95596   0.68568   0.27318   0.00000  Uiso   1.00
C655   C     0.71070   0.98099   0.22631   0.00000  Uiso   1.00
C656   C     0.95814   0.97663   0.26942   0.00000  Uiso   1.00
Cu657  Cu    0.71355   0.83334   0.25000   0.00000  Uiso   1.00
Cu658  Cu    0.95311   0.83333   0.25000   0.00000  Uiso   1.00
H659   H     0.93438   0.85971   0.04237   0.00000  Uiso   1.00
H660   H     0.74108   0.70827   0.21481   0.00000  Uiso   1.00
H661   H     0.85728   0.79539   0.30707   0.00000  Uiso   1.00
H662   H     0.80944   0.87098   0.19271   0.00000  Uiso   1.00
H663   H     0.77076   0.79492   0.30679   0.00000  Uiso   1.00
H664   H     0.89592   0.87164   0.19313   0.00000  Uiso   1.00
H665   H     0.81059   0.73980   0.05853   0.00000  Uiso   1.00
H666   H     0.82971   0.88975   0.34190   0.00000  Uiso   1.00
H667   H     0.93259   0.73478   0.35393   0.00000  Uiso   1.00
H668   H     0.83306   0.94697   0.20981   0.00000  Uiso   1.00
H669   H     0.73274   0.80849   0.45741   0.00000  Uiso   1.00
H670   H     0.97075   0.82433   0.10809   0.00000  Uiso   1.00
H671   H     0.69620   0.84227   0.39177   0.00000  Uiso   1.00
H672   H     0.66872   0.85633   0.47188   0.00000  Uiso   1.00
H673   H     0.99843   0.81113   0.02788   0.00000  Uiso   1.00
H674   H     0.84835   0.85210   0.08175   0.00000  Uiso   1.00
H675   H     0.81865   0.81679   0.41798   0.00000  Uiso   1.00
H676   H     0.92553   0.95845   0.28472   0.00000  Uiso   1.00
N677   N     0.78403   0.83334   0.24999   0.00000  Uiso   1.00
N678   N     0.88264   0.83332   0.25001   0.00000  Uiso   1.00
O679   O     0.70625   0.77322   0.25000   0.00000  Uiso   1.00
O680   O     0.75617   0.75077   0.14354   0.00000  Uiso   1.00
O681   O     0.83147   0.75518   0.07360   0.00000  Uiso   1.00
O682   O     0.84316   0.91213   0.42238   0.00000  Uiso   1.00
O683   O     0.91354   0.91678   0.35587   0.00000  Uiso   1.00
O684   O     0.84252   0.86640   0.35488   0.00000  Uiso   1.00
O685   O     0.87228   0.72124   0.27589   0.00000  Uiso   1.00
O686   O     0.87008   0.67470   0.33712   0.00000  Uiso   1.00
O687   O     0.91161   0.74612   0.33690   0.00000  Uiso   1.00
O688   O     0.75671   0.92404   0.16704   0.00000  Uiso   1.00
O689   O     0.79568   0.99204   0.16185   0.00000  Uiso   1.00
O690   O     0.96042   0.89345   0.25000   0.00000  Uiso   1.00
O691   O     0.79831   0.94547   0.22793   0.00000  Uiso   1.00
O692   O     0.96039   0.77321   0.25001   0.00000  Uiso   1.00
O693   O     0.70628   0.89346   0.25000   0.00000  Uiso   1.00
O694   O     0.68519   0.83334   0.31492   0.00000  Uiso   1.00
O695   O     0.98148   0.83332   0.18509   0.00000  Uiso   1.00
O696   O     0.93933   0.83333   0.31492   0.00000  Uiso   1.00
O697   O     0.72733   0.83333   0.18508   0.00000  Uiso   1.00
O698   O     0.82044   0.80140   0.14292   0.00000  Uiso   1.00
S699   S     0.79216   0.78093   0.11503   0.00000  Uiso   1.00
S700   S     0.87621   0.88796   0.38502   0.00000  Uiso   1.00
S701   S     0.90049   0.70666   0.30627   0.00000  Uiso   1.00
S702   S     0.76637   0.96011   0.19352   0.00000  Uiso   1.00
C703   C     0.33226   0.08742   0.75184   0.00000  Uiso   1.00
C704   C     0.04183   0.02338   0.73009   0.00000  Uiso   1.00
C705   C     0.00177   0.29058   0.74731   0.00000  Uiso   1.00
C706   C     0.33158   0.04275   0.75232   0.00000  Uiso   1.00
C707   C     0.18077   0.14527   0.78138   0.00000  Uiso   1.00
C708   C     0.15261   0.18781   0.71842   0.00000  Uiso   1.00
C709   C     0.13123   0.14532   0.78147   0.00000  Uiso   1.00
C710   C     0.20213   0.18790   0.71845   0.00000  Uiso   1.00
C711   C     0.30561   0.16967   0.83578   0.00000  Uiso   1.00
C712   C     0.02776   0.16374   0.66420   0.00000  Uiso   1.00
C713   C     0.28971   0.17592   0.88438   0.00000  Uiso   1.00
C714   C     0.00109   0.24591   0.74806   0.00000  Uiso   1.00
C715   C     0.04386   0.15780   0.61555   0.00000  Uiso   1.00
C716   C     0.30849   0.18409   0.95438   0.00000  Uiso   1.00
C717   C     0.02528   0.15002   0.54543   0.00000  Uiso   1.00
C718   C     0.32405   0.17747   0.90851   0.00000  Uiso   1.00
C719   C     0.00960   0.15618   0.59136   0.00000  Uiso   1.00
C720   C     0.24026   0.18340   0.90699   0.00000  Uiso   1.00
C721   C     0.09352   0.15105   0.59289   0.00000  Uiso   1.00
C722   C     0.22405   0.17664   0.95327   0.00000  Uiso   1.00
C723   C     0.10970   0.15801   0.54662   0.00000  Uiso   1.00
C724   C     0.25852   0.18173   0.97735   0.00000  Uiso   1.00
C725   C     0.19301   0.18003   0.54628   0.00000  Uiso   1.00
C726   C     0.07524   0.15282   0.52250   0.00000  Uiso   1.00
C727   C     0.17453   0.16719   0.97633   0.00000  Uiso   1.00
C728   C     0.15916   0.16775   0.52354   0.00000  Uiso   1.00
C729   C     0.14067   0.15516   0.95352   0.00000  Uiso   1.00
C730   C     0.24236   0.18548   0.52363   0.00000  Uiso   1.00
C731   C     0.09139   0.14942   0.97619   0.00000  Uiso   1.00
C732   C     0.28929   0.01902   0.77318   0.00000  Uiso   1.00
C733   C     0.04404   0.31432   0.72631   0.00000  Uiso   1.00
C734   C     0.29148   0.30996   0.76942   0.00000  Uiso   1.00
Cu735  Cu    0.04689   0.16667   0.75000   0.00000  Uiso   1.00
Cu736  Cu    0.28645   0.16666   0.75000   0.00000  Uiso   1.00
H737   H     0.26772   0.19305   0.54237   0.00000  Uiso   1.00
H738   H     0.07442   0.04160   0.71481   0.00000  Uiso   1.00
H739   H     0.19061   0.12872   0.80707   0.00000  Uiso   1.00
H740   H     0.14278   0.20432   0.69271   0.00000  Uiso   1.00
H741   H     0.10410   0.12826   0.80679   0.00000  Uiso   1.00
H742   H     0.22925   0.20498   0.69313   0.00000  Uiso   1.00
H743   H     0.14392   0.07313   0.55853   0.00000  Uiso   1.00
H744   H     0.16305   0.22309   0.84190   0.00000  Uiso   1.00
H745   H     0.26593   0.06812   0.85393   0.00000  Uiso   1.00
H746   H     0.16640   0.28030   0.70981   0.00000  Uiso   1.00
H747   H     0.06608   0.14183   0.95741   0.00000  Uiso   1.00
H748   H     0.30408   0.15767   0.60809   0.00000  Uiso   1.00
H749   H     0.02953   0.17560   0.89177   0.00000  Uiso   1.00
H750   H     0.00205   0.18966   0.97188   0.00000  Uiso   1.00
H751   H     0.33176   0.14447   0.52788   0.00000  Uiso   1.00
H752   H     0.18168   0.18543   0.58175   0.00000  Uiso   1.00
H753   H     0.15199   0.15013   0.91798   0.00000  Uiso   1.00
H754   H     0.25886   0.29178   0.78472   0.00000  Uiso   1.00
N755   N     0.11736   0.16668   0.74999   0.00000  Uiso   1.00
N756   N     0.21597   0.16666   0.75001   0.00000  Uiso   1.00
O757   O     0.03958   0.10655   0.75000   0.00000  Uiso   1.00
O758   O     0.08950   0.08411   0.64354   0.00000  Uiso   1.00
O759   O     0.16480   0.08852   0.57360   0.00000  Uiso   1.00
O760   O     0.17650   0.24546   0.92238   0.00000  Uiso   1.00
O761   O     0.24687   0.25011   0.85587   0.00000  Uiso   1.00
O762   O     0.17586   0.19974   0.85488   0.00000  Uiso   1.00
O763   O     0.20561   0.05457   0.77589   0.00000  Uiso   1.00
O764   O     0.20342   0.00803   0.83712   0.00000  Uiso   1.00
O765   O     0.24494   0.07946   0.83690   0.00000  Uiso   1.00
O766   O     0.09004   0.25738   0.66704   0.00000  Uiso   1.00
O767   O     0.12901   0.32538   0.66185   0.00000  Uiso   1.00
O768   O     0.29375   0.22678   0.75000   0.00000  Uiso   1.00
O769   O     0.13164   0.27880   0.72793   0.00000  Uiso   1.00
O770   O     0.29372   0.10654   0.75001   0.00000  Uiso   1.00
O771   O     0.03961   0.22679   0.75000   0.00000  Uiso   1.00
O772   O     0.01852   0.16668   0.81492   0.00000  Uiso   1.00
O773   O     0.31481   0.16666   0.68509   0.00000  Uiso   1.00
O774   O     0.27267   0.16667   0.81492   0.00000  Uiso   1.00
O775   O     0.06067   0.16667   0.68508   0.00000  Uiso   1.00
O776   O     0.15377   0.13474   0.64292   0.00000  Uiso   1.00
S777   S     0.12549   0.11426   0.61503   0.00000  Uiso   1.00
S778   S     0.20955   0.22130   0.88502   0.00000  Uiso   1.00
S779   S     0.23382   0.03999   0.80627   0.00000  Uiso   1.00
S780   S     0.09970   0.29344   0.69352   0.00000  Uiso   1.00
C781   C     0.66559   0.08742   0.75184   0.00000  Uiso   1.00
C782   C     0.37516   0.02338   0.73009   0.00000  Uiso   1.00
C783   C     0.33510   0.29058   0.74731   0.00000  Uiso   1.00
C784   C     0.66492   0.04275   0.75232   0.00000  Uiso   1.00
C785   C     0.51411   0.14527   0.78138   0.00000  Uiso   1.00
C786   C     0.48594   0.18781   0.71842   0.00000  Uiso   1.00
C787   C     0.46456   0.14532   0.78147   0.00000  Uiso   1.00
C788   C     0.53546   0.18790   0.71845   0.00000  Uiso   1.00
C789   C     0.63894   0.16967   0.83578   0.00000  Uiso   1.00
C790   C     0.36110   0.16374   0.66420   0.00000  Uiso   1.00
C791   C     0.62305   0.17592   0.88438   0.00000  Uiso   1.00
C792   C     0.33443   0.24591   0.74806   0.00000  Uiso   1.00
C793   C     0.37720   0.15780   0.61555   0.00000  Uiso   1.00
C794   C     0.64182   0.18409   0.95438   0.00000  Uiso   1.00
C795   C     0.35861   0.15002   0.54543   0.00000  Uiso   1.00
C796   C     0.65738   0.17747   0.90851   0.00000  Uiso   1.00
C797   C     0.34293   0.15618   0.59136   0.00000  Uiso   1.00
C798   C     0.57359   0.18340   0.90699   0.00000  Uiso   1.00
C799   C     0.42686   0.15105   0.59289   0.00000  Uiso   1.00
C800   C     0.55738   0.17664   0.95327   0.00000  Uiso   1.00
C801   C     0.44303   0.15801   0.54662   0.00000  Uiso   1.00
C802   C     0.59186   0.18173   0.97735   0.00000  Uiso   1.00
C803   C     0.52635   0.18003   0.54628   0.00000  Uiso   1.00
C804   C     0.40857   0.15282   0.52250   0.00000  Uiso   1.00
C805   C     0.50786   0.16719   0.97633   0.00000  Uiso   1.00
C806   C     0.49249   0.16775   0.52354   0.00000  Uiso   1.00
C807   C     0.47400   0.15516   0.95352   0.00000  Uiso   1.00
C808   C     0.57569   0.18548   0.52363   0.00000  Uiso   1.00
C809   C     0.42472   0.14942   0.97619   0.00000  Uiso   1.00
C810   C     0.62262   0.01902   0.77318   0.00000  Uiso   1.00
C811   C     0.37737   0.31432   0.72631   0.00000  Uiso   1.00
C812   C     0.62481   0.30996   0.76942   0.00000  Uiso   1.00
Cu813  Cu    0.38022   0.16667   0.75000   0.00000  Uiso   1.00
Cu814  Cu    0.61978   0.16666   0.75000   0.00000  Uiso   1.00
H815   H     0.60105   0.19305   0.54237   0.00000  Uiso   1.00
H816   H     0.40775   0.04160   0.71481   0.00000  Uiso   1.00
H817   H     0.52394   0.12872   0.80707   0.00000  Uiso   1.00
H818   H     0.47611   0.20432   0.69271   0.00000  Uiso   1.00
H819   H     0.43743   0.12826   0.80679   0.00000  Uiso   1.00
H820   H     0.56259   0.20498   0.69313   0.00000  Uiso   1.00
H821   H     0.47725   0.07313   0.55853   0.00000  Uiso   1.00
H822   H     0.49638   0.22309   0.84190   0.00000  Uiso   1.00
H823   H     0.59926   0.06812   0.85393   0.00000  Uiso   1.00
H824   H     0.49973   0.28030   0.70981   0.00000  Uiso   1.00
H825   H     0.39941   0.14183   0.95741   0.00000  Uiso   1.00
H826   H     0.63741   0.15767   0.60809   0.00000  Uiso   1.00
H827   H     0.36286   0.17560   0.89177   0.00000  Uiso   1.00
H828   H     0.33539   0.18966   0.97188   0.00000  Uiso   1.00
H829   H     0.66509   0.14447   0.52788   0.00000  Uiso   1.00
H830   H     0.51502   0.18543   0.58175   0.00000  Uiso   1.00
H831   H     0.48532   0.15013   0.91798   0.00000  Uiso   1.00
H832   H     0.59220   0.29178   0.78472   0.00000  Uiso   1.00
N833   N     0.45069   0.16668   0.74999   0.00000  Uiso   1.00
N834   N     0.54931   0.16666   0.75001   0.00000  Uiso   1.00
O835   O     0.37291   0.10655   0.75000   0.00000  Uiso   1.00
O836   O     0.42284   0.08411   0.64354   0.00000  Uiso   1.00
O837   O     0.49814   0.08852   0.57360   0.00000  Uiso   1.00
O838   O     0.50983   0.24546   0.92238   0.00000  Uiso   1.00
O839   O     0.58021   0.25011   0.85587   0.00000  Uiso   1.00
O840   O     0.50919   0.19974   0.85488   0.00000  Uiso   1.00
O841   O     0.53894   0.05457   0.77589   0.00000  Uiso   1.00
O842   O     0.53675   0.00803   0.83712   0.00000  Uiso   1.00
O843   O     0.57827   0.07946   0.83690   0.00000  Uiso   1.00
O844   O     0.42338   0.25738   0.66704   0.00000  Uiso   1.00
O845   O     0.46234   0.32538   0.66185   0.00000  Uiso   1.00
O846   O     0.62709   0.22678   0.75000   0.00000  Uiso   1.00
O847   O     0.46498   0.27880   0.72793   0.00000  Uiso   1.00
O848   O     0.62706   0.10654   0.75001   0.00000  Uiso   1.00
O849   O     0.37294   0.22679   0.75000   0.00000  Uiso   1.00
O850   O     0.35186   0.16668   0.81492   0.00000  Uiso   1.00
O851   O     0.64814   0.16666   0.68509   0.00000  Uiso   1.00
O852   O     0.60600   0.16667   0.81492   0.00000  Uiso   1.00
O853   O     0.39400   0.16667   0.68508   0.00000  Uiso   1.00
O854   O     0.48710   0.13474   0.64292   0.00000  Uiso   1.00
S855   S     0.45883   0.11426   0.61503   0.00000  Uiso   1.00
S856   S     0.54288   0.22130   0.88502   0.00000  Uiso   1.00
S857   S     0.56715   0.03999   0.80627   0.00000  Uiso   1.00
S858   S     0.43303   0.29344   0.69352   0.00000  Uiso   1.00
C859   C     0.99893   0.08742   0.75184   0.00000  Uiso   1.00
C860   C     0.70850   0.02338   0.73009   0.00000  Uiso   1.00
C861   C     0.66844   0.29058   0.74731   0.00000  Uiso   1.00
C862   C     0.99825   0.04275   0.75232   0.00000  Uiso   1.00
C863   C     0.84744   0.14527   0.78138   0.00000  Uiso   1.00
C864   C     0.81928   0.18781   0.71842   0.00000  Uiso   1.00
C865   C     0.79790   0.14532   0.78147   0.00000  Uiso   1.00
C866   C     0.86879   0.18790   0.71845   0.00000  Uiso   1.00
C867   C     0.97228   0.16967   0.83578   0.00000  Uiso   1.00
C868   C     0.69443   0.16374   0.66420   0.00000  Uiso   1.00
C869   C     0.95638   0.17592   0.88438   0.00000  Uiso   1.00
C870   C     0.66776   0.24591   0.74806   0.00000  Uiso   1.00
C871   C     0.71053   0.15780   0.61555   0.00000  Uiso   1.00
C872   C     0.97516   0.18409   0.95438   0.00000  Uiso   1.00
C873   C     0.69195   0.15002   0.54543   0.00000  Uiso   1.00
C874   C     0.99072   0.17747   0.90851   0.00000  Uiso   1.00
C875   C     0.67626   0.15618   0.59136   0.00000  Uiso   1.00
C876   C     0.90693   0.18340   0.90699   0.00000  Uiso   1.00
C877   C     0.76019   0.15105   0.59289   0.00000  Uiso   1.00
C878   C     0.89071   0.17664   0.95327   0.00000  Uiso   1.00
C879   C     0.77636   0.15801   0.54662   0.00000  Uiso   1.00
C880   C     0.92519   0.18173   0.97735   0.00000  Uiso   1.00
C881   C     0.85968   0.18003   0.54628   0.00000  Uiso   1.00
C882   C     0.74190   0.15282   0.52250   0.00000  Uiso   1.00
C883   C     0.84120   0.16719   0.97633   0.00000  Uiso   1.00
C884   C     0.82582   0.16775   0.52354   0.00000  Uiso   1.00
C885   C     0.80733   0.15516   0.95352   0.00000  Uiso   1.00
C886   C     0.90902   0.18548   0.52363   0.00000  Uiso   1.00
C887   C     0.75806   0.14942   0.97619   0.00000  Uiso   1.00
C888   C     0.95596   0.01902   0.77318   0.00000  Uiso   1.00
C889   C     0.71070   0.31432   0.72631   0.00000  Uiso   1.00
C890   C     0.95814   0.30996   0.76942   0.00000  Uiso   1.00
Cu891  Cu    0.71355   0.16667   0.75000   0.00000  Uiso   1.00
Cu892  Cu    0.95311   0.16666   0.75000   0.00000  Uiso   1.00
H893   H     0.93438   0.19305   0.54237   0.00000  Uiso   1.00
H894   H     0.74108   0.04160   0.71481   0.00000  Uiso   1.00
H895   H     0.85728   0.12872   0.80707   0.00000  Uiso   1.00
H896   H     0.80944   0.20432   0.69271   0.00000  Uiso   1.00
H897   H     0.77076   0.12826   0.80679   0.00000  Uiso   1.00
H898   H     0.89592   0.20498   0.69313   0.00000  Uiso   1.00
H899   H     0.81059   0.07313   0.55853   0.00000  Uiso   1.00
H900   H     0.82971   0.22309   0.84190   0.00000  Uiso   1.00
H901   H     0.93259   0.06812   0.85393   0.00000  Uiso   1.00
H902   H     0.83306   0.28030   0.70981   0.00000  Uiso   1.00
H903   H     0.73274   0.14183   0.95741   0.00000  Uiso   1.00
H904   H     0.97075   0.15767   0.60809   0.00000  Uiso   1.00
H905   H     0.69620   0.17560   0.89177   0.00000  Uiso   1.00
H906   H     0.66872   0.18966   0.97188   0.00000  Uiso   1.00
H907   H     0.99843   0.14447   0.52788   0.00000  Uiso   1.00
H908   H     0.84835   0.18543   0.58175   0.00000  Uiso   1.00
H909   H     0.81865   0.15013   0.91798   0.00000  Uiso   1.00
H910   H     0.92553   0.29178   0.78472   0.00000  Uiso   1.00
N911   N     0.78403   0.16668   0.74999   0.00000  Uiso   1.00
N912   N     0.88264   0.16666   0.75001   0.00000  Uiso   1.00
O913   O     0.70625   0.10655   0.75000   0.00000  Uiso   1.00
O914   O     0.75617   0.08411   0.64354   0.00000  Uiso   1.00
O915   O     0.83147   0.08852   0.57360   0.00000  Uiso   1.00
O916   O     0.84316   0.24546   0.92238   0.00000  Uiso   1.00
O917   O     0.91354   0.25011   0.85587   0.00000  Uiso   1.00
O918   O     0.84252   0.19974   0.85488   0.00000  Uiso   1.00
O919   O     0.87228   0.05457   0.77589   0.00000  Uiso   1.00
O920   O     0.87008   0.00803   0.83712   0.00000  Uiso   1.00
O921   O     0.91161   0.07946   0.83690   0.00000  Uiso   1.00
O922   O     0.75671   0.25738   0.66704   0.00000  Uiso   1.00
O923   O     0.79568   0.32538   0.66185   0.00000  Uiso   1.00
O924   O     0.96042   0.22678   0.75000   0.00000  Uiso   1.00
O925   O     0.79831   0.27880   0.72793   0.00000  Uiso   1.00
O926   O     0.96039   0.10654   0.75001   0.00000  Uiso   1.00
O927   O     0.70628   0.22679   0.75000   0.00000  Uiso   1.00
O928   O     0.68519   0.16668   0.81492   0.00000  Uiso   1.00
O929   O     0.98148   0.16666   0.68509   0.00000  Uiso   1.00
O930   O     0.93933   0.16667   0.81492   0.00000  Uiso   1.00
O931   O     0.72733   0.16667   0.68508   0.00000  Uiso   1.00
O932   O     0.82044   0.13474   0.64292   0.00000  Uiso   1.00
S933   S     0.79216   0.11426   0.61503   0.00000  Uiso   1.00
S934   S     0.87621   0.22130   0.88502   0.00000  Uiso   1.00
S935   S     0.90049   0.03999   0.80627   0.00000  Uiso   1.00
S936   S     0.76637   0.29344   0.69352   0.00000  Uiso   1.00
C937   C     0.33226   0.42075   0.75184   0.00000  Uiso   1.00
C938   C     0.04183   0.35672   0.73009   0.00000  Uiso   1.00
C939   C     0.00177   0.62392   0.74731   0.00000  Uiso   1.00
C940   C     0.33158   0.37608   0.75232   0.00000  Uiso   1.00
C941   C     0.18077   0.47861   0.78138   0.00000  Uiso   1.00
C942   C     0.15261   0.52114   0.71842   0.00000  Uiso   1.00
C943   C     0.13123   0.47865   0.78147   0.00000  Uiso   1.00
C944   C     0.20213   0.52123   0.71845   0.00000  Uiso   1.00
C945   C     0.30561   0.50300   0.83578   0.00000  Uiso   1.00
C946   C     0.02776   0.49707   0.66420   0.00000  Uiso   1.00
C947   C     0.28971   0.50925   0.88438   0.00000  Uiso   1.00
C948   C     0.00109   0.57924   0.74806   0.00000  Uiso   1.00
C949   C     0.04386   0.49113   0.61555   0.00000  Uiso   1.00
C950   C     0.30849   0.51743   0.95438   0.00000  Uiso   1.00
C951   C     0.02528   0.48336   0.54543   0.00000  Uiso   1.00
C952   C     0.32405   0.51080   0.90851   0.00000  Uiso   1.00
C953   C     0.00960   0.48952   0.59136   0.00000  Uiso   1.00
C954   C     0.24026   0.51673   0.90699   0.00000  Uiso   1.00
C955   C     0.09352   0.48439   0.59289   0.00000  Uiso   1.00
C956   C     0.22405   0.50998   0.95327   0.00000  Uiso   1.00
C957   C     0.10970   0.49134   0.54662   0.00000  Uiso   1.00
C958   C     0.25852   0.51506   0.97735   0.00000  Uiso   1.00
C959   C     0.19301   0.51336   0.54628   0.00000  Uiso   1.00
C960   C     0.07524   0.48615   0.52250   0.00000  Uiso   1.00
C961   C     0.17453   0.50052   0.97633   0.00000  Uiso   1.00
C962   C     0.15916   0.50108   0.52354   0.00000  Uiso   1.00
C963   C     0.14067   0.48850   0.95352   0.00000  Uiso   1.00
C964   C     0.24236   0.51881   0.52363   0.00000  Uiso   1.00
C965   C     0.09139   0.48275   0.97619   0.00000  Uiso   1.00
C966   C     0.28929   0.35235   0.77318   0.00000  Uiso   1.00
C967   C     0.04404   0.64766   0.72631   0.00000  Uiso   1.00
C968   C     0.29148   0.64330   0.76942   0.00000  Uiso   1.00
Cu969  Cu    0.04689   0.50001   0.75000   0.00000  Uiso   1.00
Cu970  Cu    0.28645   0.49999   0.75000   0.00000  Uiso   1.00
H971   H     0.26772   0.52638   0.54237   0.00000  Uiso   1.00
H972   H     0.07442   0.37493   0.71481   0.00000  Uiso   1.00
H973   H     0.19061   0.46206   0.80707   0.00000  Uiso   1.00
H974   H     0.14278   0.53765   0.69271   0.00000  Uiso   1.00
H975   H     0.10410   0.46159   0.80679   0.00000  Uiso   1.00
H976   H     0.22925   0.53831   0.69313   0.00000  Uiso   1.00
H977   H     0.14392   0.40647   0.55853   0.00000  Uiso   1.00
H978   H     0.16305   0.55642   0.84190   0.00000  Uiso   1.00
H979   H     0.26593   0.40145   0.85393   0.00000  Uiso   1.00
H980   H     0.16640   0.61363   0.70981   0.00000  Uiso   1.00
H981   H     0.06608   0.47516   0.95741   0.00000  Uiso   1.00
H982   H     0.30408   0.49100   0.60809   0.00000  Uiso   1.00
H983   H     0.02953   0.50893   0.89177   0.00000  Uiso   1.00
H984   H     0.00205   0.52300   0.97188   0.00000  Uiso   1.00
H985   H     0.33176   0.47780   0.52788   0.00000  Uiso   1.00
H986   H     0.18168   0.51876   0.58175   0.00000  Uiso   1.00
H987   H     0.15199   0.48346   0.91798   0.00000  Uiso   1.00
H988   H     0.25886   0.62512   0.78472   0.00000  Uiso   1.00
N989   N     0.11736   0.50001   0.74999   0.00000  Uiso   1.00
N990   N     0.21597   0.49999   0.75001   0.00000  Uiso   1.00
O991   O     0.03958   0.43989   0.75000   0.00000  Uiso   1.00
O992   O     0.08950   0.41744   0.64354   0.00000  Uiso   1.00
O993   O     0.16480   0.42185   0.57360   0.00000  Uiso   1.00
O994   O     0.17650   0.57879   0.92238   0.00000  Uiso   1.00
O995   O     0.24687   0.58344   0.85587   0.00000  Uiso   1.00
O996   O     0.17586   0.53307   0.85488   0.00000  Uiso   1.00
O997   O     0.20561   0.38791   0.77589   0.00000  Uiso   1.00
O998   O     0.20342   0.34136   0.83712   0.00000  Uiso   1.00
O999   O     0.24494   0.41279   0.83690   0.00000  Uiso   1.00
O1000  O     0.09004   0.59071   0.66704   0.00000  Uiso   1.00
O1001  O     0.12901   0.65871   0.66185   0.00000  Uiso   1.00
O1002  O     0.29375   0.56011   0.75000   0.00000  Uiso   1.00
O1003  O     0.13164   0.61213   0.72793   0.00000  Uiso   1.00
O1004  O     0.29372   0.43988   0.75001   0.00000  Uiso   1.00
O1005  O     0.03961   0.56012   0.75000   0.00000  Uiso   1.00
O1006  O     0.01852   0.50001   0.81492   0.00000  Uiso   1.00
O1007  O     0.31481   0.49999   0.68509   0.00000  Uiso   1.00
O1008  O     0.27267   0.50000   0.81492   0.00000  Uiso   1.00
O1009  O     0.06067   0.50000   0.68508   0.00000  Uiso   1.00
O1010  O     0.15377   0.46807   0.64292   0.00000  Uiso   1.00
S1011  S     0.12549   0.44759   0.61503   0.00000  Uiso   1.00
S1012  S     0.20955   0.55463   0.88502   0.00000  Uiso   1.00
S1013  S     0.23382   0.37333   0.80627   0.00000  Uiso   1.00
S1014  S     0.09970   0.62678   0.69352   0.00000  Uiso   1.00
C1015  C     0.66559   0.42075   0.75184   0.00000  Uiso   1.00
C1016  C     0.37516   0.35672   0.73009   0.00000  Uiso   1.00
C1017  C     0.33510   0.62392   0.74731   0.00000  Uiso   1.00
C1018  C     0.66492   0.37608   0.75232   0.00000  Uiso   1.00
C1019  C     0.51411   0.47861   0.78138   0.00000  Uiso   1.00
C1020  C     0.48594   0.52114   0.71842   0.00000  Uiso   1.00
C1021  C     0.46456   0.47865   0.78147   0.00000  Uiso   1.00
C1022  C     0.53546   0.52123   0.71845   0.00000  Uiso   1.00
C1023  C     0.63894   0.50300   0.83578   0.00000  Uiso   1.00
C1024  C     0.36110   0.49707   0.66420   0.00000  Uiso   1.00
C1025  C     0.62305   0.50925   0.88438   0.00000  Uiso   1.00
C1026  C     0.33443   0.57924   0.74806   0.00000  Uiso   1.00
C1027  C     0.37720   0.49113   0.61555   0.00000  Uiso   1.00
C1028  C     0.64182   0.51743   0.95438   0.00000  Uiso   1.00
C1029  C     0.35861   0.48336   0.54543   0.00000  Uiso   1.00
C1030  C     0.65738   0.51080   0.90851   0.00000  Uiso   1.00
C1031  C     0.34293   0.48952   0.59136   0.00000  Uiso   1.00
C1032  C     0.57359   0.51673   0.90699   0.00000  Uiso   1.00
C1033  C     0.42686   0.48439   0.59289   0.00000  Uiso   1.00
C1034  C     0.55738   0.50998   0.95327   0.00000  Uiso   1.00
C1035  C     0.44303   0.49134   0.54662   0.00000  Uiso   1.00
C1036  C     0.59186   0.51506   0.97735   0.00000  Uiso   1.00
C1037  C     0.52635   0.51336   0.54628   0.00000  Uiso   1.00
C1038  C     0.40857   0.48615   0.52250   0.00000  Uiso   1.00
C1039  C     0.50786   0.50052   0.97633   0.00000  Uiso   1.00
C1040  C     0.49249   0.50108   0.52354   0.00000  Uiso   1.00
C1041  C     0.47400   0.48850   0.95352   0.00000  Uiso   1.00
C1042  C     0.57569   0.51881   0.52363   0.00000  Uiso   1.00
C1043  C     0.42472   0.48275   0.97619   0.00000  Uiso   1.00
C1044  C     0.62262   0.35235   0.77318   0.00000  Uiso   1.00
C1045  C     0.37737   0.64766   0.72631   0.00000  Uiso   1.00
C1046  C     0.62481   0.64330   0.76942   0.00000  Uiso   1.00
Cu1047 Cu    0.38022   0.50001   0.75000   0.00000  Uiso   1.00
Cu1048 Cu    0.61978   0.49999   0.75000   0.00000  Uiso   1.00
H1049  H     0.60105   0.52638   0.54237   0.00000  Uiso   1.00
H1050  H     0.40775   0.37493   0.71481   0.00000  Uiso   1.00
H1051  H     0.52394   0.46206   0.80707   0.00000  Uiso   1.00
H1052  H     0.47611   0.53765   0.69271   0.00000  Uiso   1.00
H1053  H     0.43743   0.46159   0.80679   0.00000  Uiso   1.00
H1054  H     0.56259   0.53831   0.69313   0.00000  Uiso   1.00
H1055  H     0.47725   0.40647   0.55853   0.00000  Uiso   1.00
H1056  H     0.49638   0.55642   0.84190   0.00000  Uiso   1.00
H1057  H     0.59926   0.40145   0.85393   0.00000  Uiso   1.00
H1058  H     0.49973   0.61363   0.70981   0.00000  Uiso   1.00
H1059  H     0.39941   0.47516   0.95741   0.00000  Uiso   1.00
H1060  H     0.63741   0.49100   0.60809   0.00000  Uiso   1.00
H1061  H     0.36286   0.50893   0.89177   0.00000  Uiso   1.00
H1062  H     0.33539   0.52300   0.97188   0.00000  Uiso   1.00
H1063  H     0.66509   0.47780   0.52788   0.00000  Uiso   1.00
H1064  H     0.51502   0.51876   0.58175   0.00000  Uiso   1.00
H1065  H     0.48532   0.48346   0.91798   0.00000  Uiso   1.00
H1066  H     0.59220   0.62512   0.78472   0.00000  Uiso   1.00
N1067  N     0.45069   0.50001   0.74999   0.00000  Uiso   1.00
N1068  N     0.54931   0.49999   0.75001   0.00000  Uiso   1.00
O1069  O     0.37291   0.43989   0.75000   0.00000  Uiso   1.00
O1070  O     0.42284   0.41744   0.64354   0.00000  Uiso   1.00
O1071  O     0.49814   0.42185   0.57360   0.00000  Uiso   1.00
O1072  O     0.50983   0.57879   0.92238   0.00000  Uiso   1.00
O1073  O     0.58021   0.58344   0.85587   0.00000  Uiso   1.00
O1074  O     0.50919   0.53307   0.85488   0.00000  Uiso   1.00
O1075  O     0.53894   0.38791   0.77589   0.00000  Uiso   1.00
O1076  O     0.53675   0.34136   0.83712   0.00000  Uiso   1.00
O1077  O     0.57827   0.41279   0.83690   0.00000  Uiso   1.00
O1078  O     0.42338   0.59071   0.66704   0.00000  Uiso   1.00
O1079  O     0.46234   0.65871   0.66185   0.00000  Uiso   1.00
O1080  O     0.62709   0.56011   0.75000   0.00000  Uiso   1.00
O1081  O     0.46498   0.61213   0.72793   0.00000  Uiso   1.00
O1082  O     0.62706   0.43988   0.75001   0.00000  Uiso   1.00
O1083  O     0.37294   0.56012   0.75000   0.00000  Uiso   1.00
O1084  O     0.35186   0.50001   0.81492   0.00000  Uiso   1.00
O1085  O     0.64814   0.49999   0.68509   0.00000  Uiso   1.00
O1086  O     0.60600   0.50000   0.81492   0.00000  Uiso   1.00
O1087  O     0.39400   0.50000   0.68508   0.00000  Uiso   1.00
O1088  O     0.48710   0.46807   0.64292   0.00000  Uiso   1.00
S1089  S     0.45883   0.44759   0.61503   0.00000  Uiso   1.00
S1090  S     0.54288   0.55463   0.88502   0.00000  Uiso   1.00
S1091  S     0.56715   0.37333   0.80627   0.00000  Uiso   1.00
S1092  S     0.43303   0.62678   0.69352   0.00000  Uiso   1.00
C1093  C     0.99893   0.42075   0.75184   0.00000  Uiso   1.00
C1094  C     0.70850   0.35672   0.73009   0.00000  Uiso   1.00
C1095  C     0.66844   0.62392   0.74731   0.00000  Uiso   1.00
C1096  C     0.99825   0.37608   0.75232   0.00000  Uiso   1.00
C1097  C     0.84744   0.47861   0.78138   0.00000  Uiso   1.00
C1098  C     0.81928   0.52114   0.71842   0.00000  Uiso   1.00
C1099  C     0.79790   0.47865   0.78147   0.00000  Uiso   1.00
C1100  C     0.86879   0.52123   0.71845   0.00000  Uiso   1.00
C1101  C     0.97228   0.50300   0.83578   0.00000  Uiso   1.00
C1102  C     0.69443   0.49707   0.66420   0.00000  Uiso   1.00
C1103  C     0.95638   0.50925   0.88438   0.00000  Uiso   1.00
C1104  C     0.66776   0.57924   0.74806   0.00000  Uiso   1.00
C1105  C     0.71053   0.49113   0.61555   0.00000  Uiso   1.00
C1106  C     0.97516   0.51743   0.95438   0.00000  Uiso   1.00
C1107  C     0.69195   0.48336   0.54543   0.00000  Uiso   1.00
C1108  C     0.99072   0.51080   0.90851   0.00000  Uiso   1.00
C1109  C     0.67626   0.48952   0.59136   0.00000  Uiso   1.00
C1110  C     0.90693   0.51673   0.90699   0.00000  Uiso   1.00
C1111  C     0.76019   0.48439   0.59289   0.00000  Uiso   1.00
C1112  C     0.89071   0.50998   0.95327   0.00000  Uiso   1.00
C1113  C     0.77636   0.49134   0.54662   0.00000  Uiso   1.00
C1114  C     0.92519   0.51506   0.97735   0.00000  Uiso   1.00
C1115  C     0.85968   0.51336   0.54628   0.00000  Uiso   1.00
C1116  C     0.74190   0.48615   0.52250   0.00000  Uiso   1.00
C1117  C     0.84120   0.50052   0.97633   0.00000  Uiso   1.00
C1118  C     0.82582   0.50108   0.52354   0.00000  Uiso   1.00
C1119  C     0.80733   0.48850   0.95352   0.00000  Uiso   1.00
C1120  C     0.90902   0.51881   0.52363   0.00000  Uiso   1.00
C1121  C     0.75806   0.48275   0.97619   0.00000  Uiso   1.00
C1122  C     0.95596   0.35235   0.77318   0.00000  Uiso   1.00
C1123  C     0.71070   0.64766   0.72631   0.00000  Uiso   1.00
C1124  C     0.95814   0.64330   0.76942   0.00000  Uiso   1.00
Cu1125 Cu    0.71355   0.50001   0.75000   0.00000  Uiso   1.00
Cu1126 Cu    0.95311   0.49999   0.75000   0.00000  Uiso   1.00
H1127  H     0.93438   0.52638   0.54237   0.00000  Uiso   1.00
H1128  H     0.74108   0.37493   0.71481   0.00000  Uiso   1.00
H1129  H     0.85728   0.46206   0.80707   0.00000  Uiso   1.00
H1130  H     0.80944   0.53765   0.69271   0.00000  Uiso   1.00
H1131  H     0.77076   0.46159   0.80679   0.00000  Uiso   1.00
H1132  H     0.89592   0.53831   0.69313   0.00000  Uiso   1.00
H1133  H     0.81059   0.40647   0.55853   0.00000  Uiso   1.00
H1134  H     0.82971   0.55642   0.84190   0.00000  Uiso   1.00
H1135  H     0.93259   0.40145   0.85393   0.00000  Uiso   1.00
H1136  H     0.83306   0.61363   0.70981   0.00000  Uiso   1.00
H1137  H     0.73274   0.47516   0.95741   0.00000  Uiso   1.00
H1138  H     0.97075   0.49100   0.60809   0.00000  Uiso   1.00
H1139  H     0.69620   0.50893   0.89177   0.00000  Uiso   1.00
H1140  H     0.66872   0.52300   0.97188   0.00000  Uiso   1.00
H1141  H     0.99843   0.47780   0.52788   0.00000  Uiso   1.00
H1142  H     0.84835   0.51876   0.58175   0.00000  Uiso   1.00
H1143  H     0.81865   0.48346   0.91798   0.00000  Uiso   1.00
H1144  H     0.92553   0.62512   0.78472   0.00000  Uiso   1.00
N1145  N     0.78403   0.50001   0.74999   0.00000  Uiso   1.00
N1146  N     0.88264   0.49999   0.75001   0.00000  Uiso   1.00
O1147  O     0.70625   0.43989   0.75000   0.00000  Uiso   1.00
O1148  O     0.75617   0.41744   0.64354   0.00000  Uiso   1.00
O1149  O     0.83147   0.42185   0.57360   0.00000  Uiso   1.00
O1150  O     0.84316   0.57879   0.92238   0.00000  Uiso   1.00
O1151  O     0.91354   0.58344   0.85587   0.00000  Uiso   1.00
O1152  O     0.84252   0.53307   0.85488   0.00000  Uiso   1.00
O1153  O     0.87228   0.38791   0.77589   0.00000  Uiso   1.00
O1154  O     0.87008   0.34136   0.83712   0.00000  Uiso   1.00
O1155  O     0.91161   0.41279   0.83690   0.00000  Uiso   1.00
O1156  O     0.75671   0.59071   0.66704   0.00000  Uiso   1.00
O1157  O     0.79568   0.65871   0.66185   0.00000  Uiso   1.00
O1158  O     0.96042   0.56011   0.75000   0.00000  Uiso   1.00
O1159  O     0.79831   0.61213   0.72793   0.00000  Uiso   1.00
O1160  O     0.96039   0.43988   0.75001   0.00000  Uiso   1.00
O1161  O     0.70628   0.56012   0.75000   0.00000  Uiso   1.00
O1162  O     0.68519   0.50001   0.81492   0.00000  Uiso   1.00
O1163  O     0.98148   0.49999   0.68509   0.00000  Uiso   1.00
O1164  O     0.93933   0.50000   0.81492   0.00000  Uiso   1.00
O1165  O     0.72733   0.50000   0.68508   0.00000  Uiso   1.00
O1166  O     0.82044   0.46807   0.64292   0.00000  Uiso   1.00
S1167  S     0.79216   0.44759   0.61503   0.00000  Uiso   1.00
S1168  S     0.87621   0.55463   0.88502   0.00000  Uiso   1.00
S1169  S     0.90049   0.37333   0.80627   0.00000  Uiso   1.00
S1170  S     0.76637   0.62678   0.69352   0.00000  Uiso   1.00
C1171  C     0.33226   0.75408   0.75184   0.00000  Uiso   1.00
C1172  C     0.04183   0.69005   0.73009   0.00000  Uiso   1.00
C1173  C     0.00177   0.95725   0.74731   0.00000  Uiso   1.00
C1174  C     0.33158   0.70941   0.75232   0.00000  Uiso   1.00
C1175  C     0.18077   0.81194   0.78138   0.00000  Uiso   1.00
C1176  C     0.15261   0.85448   0.71842   0.00000  Uiso   1.00
C1177  C     0.13123   0.81199   0.78147   0.00000  Uiso   1.00
C1178  C     0.20213   0.85457   0.71845   0.00000  Uiso   1.00
C1179  C     0.30561   0.83633   0.83578   0.00000  Uiso   1.00
C1180  C     0.02776   0.83040   0.66420   0.00000  Uiso   1.00
C1181  C     0.28971   0.84259   0.88438   0.00000  Uiso   1.00
C1182  C     0.00109   0.91258   0.74806   0.00000  Uiso   1.00
C1183  C     0.04386   0.82446   0.61555   0.00000  Uiso   1.00
C1184  C     0.30849   0.85076   0.95438   0.00000  Uiso   1.00
C1185  C     0.02528   0.81669   0.54543   0.00000  Uiso   1.00
C1186  C     0.32405   0.84414   0.90851   0.00000  Uiso   1.00
C1187  C     0.00960   0.82285   0.59136   0.00000  Uiso   1.00
C1188  C     0.24026   0.85007   0.90699   0.00000  Uiso   1.00
C1189  C     0.09352   0.81772   0.59289   0.00000  Uiso   1.00
C1190  C     0.22405   0.84331   0.95327   0.00000  Uiso   1.00
C1191  C     0.10970   0.82467   0.54662   0.00000  Uiso   1.00
C1192  C     0.25852   0.84840   0.97735   0.00000  Uiso   1.00
C1193  C     0.19301   0.84670   0.54628   0.00000  Uiso   1.00
C1194  C     0.07524   0.81948   0.52250   0.00000  Uiso   1.00
C1195  C     0.17453   0.83386   0.97633   0.00000  Uiso   1.00
C1196  C     0.15916   0.83442   0.52354   0.00000  Uiso   1.00
C1197  C     0.14067   0.82183   0.95352   0.00000  Uiso   1.00
C1198  C     0.24236   0.85215   0.52363   0.00000  Uiso   1.00
C1199  C     0.09139   0.81608   0.97619   0.00000  Uiso   1.00
C1200  C     0.28929   0.68568   0.77318   0.00000  Uiso   1.00
C1201  C     0.04404   0.98099   0.72631   0.00000  Uiso   1.00
C1202  C     0.29148   0.97663   0.76942   0.00000  Uiso   1.00
Cu1203 Cu    0.04689   0.83334   0.75000   0.00000  Uiso   1.00
Cu1204 Cu    0.28645   0.83333   0.75000   0.00000  Uiso   1.00
H1205  H     0.26772   0.85971   0.54237   0.00000  Uiso   1.00
H1206  H     0.07442   0.70827   0.71481   0.00000  Uiso   1.00
H1207  H     0.19061   0.79539   0.80707   0.00000  Uiso   1.00
H1208  H     0.14278   0.87098   0.69271   0.00000  Uiso   1.00
H1209  H     0.10410   0.79492   0.80679   0.00000  Uiso   1.00
H1210  H     0.22925   0.87164   0.69313   0.00000  Uiso   1.00
H1211  H     0.14392   0.73980   0.55853   0.00000  Uiso   1.00
H1212  H     0.16305   0.88975   0.84190   0.00000  Uiso   1.00
H1213  H     0.26593   0.73478   0.85393   0.00000  Uiso   1.00
H1214  H     0.16640   0.94697   0.70981   0.00000  Uiso   1.00
H1215  H     0.06608   0.80849   0.95741   0.00000  Uiso   1.00
H1216  H     0.30408   0.82433   0.60809   0.00000  Uiso   1.00
H1217  H     0.02953   0.84227   0.89177   0.00000  Uiso   1.00
H1218  H     0.00205   0.85633   0.97188   0.00000  Uiso   1.00
H1219  H     0.33176   0.81113   0.52788   0.00000  Uiso   1.00
H1220  H     0.18168   0.85210   0.58175   0.00000  Uiso   1.00
H1221  H     0.15199   0.81679   0.91798   0.00000  Uiso   1.00
H1222  H     0.25886   0.95845   0.78472   0.00000  Uiso   1.00
N1223  N     0.11736   0.83334   0.74999   0.00000  Uiso   1.00
N1224  N     0.21597   0.83332   0.75001   0.00000  Uiso   1.00
O1225  O     0.03958   0.77322   0.75000   0.00000  Uiso   1.00
O1226  O     0.08950   0.75077   0.64354   0.00000  Uiso   1.00
O1227  O     0.16480   0.75518   0.57360   0.00000  Uiso   1.00
O1228  O     0.17650   0.91213   0.92238   0.00000  Uiso   1.00
O1229  O     0.24687   0.91678   0.85587   0.00000  Uiso   1.00
O1230  O     0.17586   0.86640   0.85488   0.00000  Uiso   1.00
O1231  O     0.20561   0.72124   0.77589   0.00000  Uiso   1.00
O1232  O     0.20342   0.67470   0.83712   0.00000  Uiso   1.00
O1233  O     0.24494   0.74612   0.83690   0.00000  Uiso   1.00
O1234  O     0.09004   0.92404   0.66704   0.00000  Uiso   1.00
O1235  O     0.12901   0.99204   0.66185   0.00000  Uiso   1.00
O1236  O     0.29375   0.89345   0.75000   0.00000  Uiso   1.00
O1237  O     0.13164   0.94547   0.72793   0.00000  Uiso   1.00
O1238  O     0.29372   0.77321   0.75001   0.00000  Uiso   1.00
O1239  O     0.03961   0.89346   0.75000   0.00000  Uiso   1.00
O1240  O     0.01852   0.83334   0.81492   0.00000  Uiso   1.00
O1241  O     0.31481   0.83332   0.68509   0.00000  Uiso   1.00
O1242  O     0.27267   0.83333   0.81492   0.00000  Uiso   1.00
O1243  O     0.06067   0.83333   0.68508   0.00000  Uiso   1.00
O1244  O     0.15377   0.80140   0.64292   0.00000  Uiso   1.00
S1245  S     0.12549   0.78093   0.61503   0.00000  Uiso   1.00
S1246  S     0.20955   0.88796   0.88502   0.00000  Uiso   1.00
S1247  S     0.23382   0.70666   0.80627   0.00000  Uiso   1.00
S1248  S     0.09970   0.96011   0.69352   0.00000  Uiso   1.00
C1249  C     0.66559   0.75408   0.75184   0.00000  Uiso   1.00
C1250  C     0.37516   0.69005   0.73009   0.00000  Uiso   1.00
C1251  C     0.33510   0.95725   0.74731   0.00000  Uiso   1.00
C1252  C     0.66492   0.70941   0.75232   0.00000  Uiso   1.00
C1253  C     0.51411   0.81194   0.78138   0.00000  Uiso   1.00
C1254  C     0.48594   0.85448   0.71842   0.00000  Uiso   1.00
C1255  C     0.46456   0.81199   0.78147   0.00000  Uiso   1.00
C1256  C     0.53546   0.85457   0.71845   0.00000  Uiso   1.00
C1257  C     0.63894   0.83633   0.83578   0.00000  Uiso   1.00
C1258  C     0.36110   0.83040   0.66420   0.00000  Uiso   1.00
C1259  C     0.62305   0.84259   0.88438   0.00000  Uiso   1.00
C1260  C     0.33443   0.91258   0.74806   0.00000  Uiso   1.00
C1261  C     0.37720   0.82446   0.61555   0.00000  Uiso   1.00
C1262  C     0.64182   0.85076   0.95438   0.00000  Uiso   1.00
C1263  C     0.35861   0.81669   0.54543   0.00000  Uiso   1.00
C1264  C     0.65738   0.84414   0.90851   0.00000  Uiso   1.00
C1265  C     0.34293   0.82285   0.59136   0.00000  Uiso   1.00
C1266  C     0.57359   0.85007   0.90699   0.00000  Uiso   1.00
C1267  C     0.42686   0.81772   0.59289   0.00000  Uiso   1.00
C1268  C     0.55738   0.84331   0.95327   0.00000  Uiso   1.00
C1269  C     0.44303   0.82467   0.54662   0.00000  Uiso   1.00
C1270  C     0.59186   0.84840   0.97735   0.00000  Uiso   1.00
C1271  C     0.52635   0.84670   0.54628   0.00000  Uiso   1.00
C1272  C     0.40857   0.81948   0.52250   0.00000  Uiso   1.00
C1273  C     0.50786   0.83386   0.97633   0.00000  Uiso   1.00
C1274  C     0.49249   0.83442   0.52354   0.00000  Uiso   1.00
C1275  C     0.47400   0.82183   0.95352   0.00000  Uiso   1.00
C1276  C     0.57569   0.85215   0.52363   0.00000  Uiso   1.00
C1277  C     0.42472   0.81608   0.97619   0.00000  Uiso   1.00
C1278  C     0.62262   0.68568   0.77318   0.00000  Uiso   1.00
C1279  C     0.37737   0.98099   0.72631   0.00000  Uiso   1.00
C1280  C     0.62481   0.97663   0.76942   0.00000  Uiso   1.00
Cu1281 Cu    0.38022   0.83334   0.75000   0.00000  Uiso   1.00
Cu1282 Cu    0.61978   0.83333   0.75000   0.00000  Uiso   1.00
H1283  H     0.60105   0.85971   0.54237   0.00000  Uiso   1.00
H1284  H     0.40775   0.70827   0.71481   0.00000  Uiso   1.00
H1285  H     0.52394   0.79539   0.80707   0.00000  Uiso   1.00
H1286  H     0.47611   0.87098   0.69271   0.00000  Uiso   1.00
H1287  H     0.43743   0.79492   0.80679   0.00000  Uiso   1.00
H1288  H     0.56259   0.87164   0.69313   0.00000  Uiso   1.00
H1289  H     0.47725   0.73980   0.55853   0.00000  Uiso   1.00
H1290  H     0.49638   0.88975   0.84190   0.00000  Uiso   1.00
H1291  H     0.59926   0.73478   0.85393   0.00000  Uiso   1.00
H1292  H     0.49973   0.94697   0.70981   0.00000  Uiso   1.00
H1293  H     0.39941   0.80849   0.95741   0.00000  Uiso   1.00
H1294  H     0.63741   0.82433   0.60809   0.00000  Uiso   1.00
H1295  H     0.36286   0.84227   0.89177   0.00000  Uiso   1.00
H1296  H     0.33539   0.85633   0.97188   0.00000  Uiso   1.00
H1297  H     0.66509   0.81113   0.52788   0.00000  Uiso   1.00
H1298  H     0.51502   0.85210   0.58175   0.00000  Uiso   1.00
H1299  H     0.48532   0.81679   0.91798   0.00000  Uiso   1.00
H1300  H     0.59220   0.95845   0.78472   0.00000  Uiso   1.00
N1301  N     0.45069   0.83334   0.74999   0.00000  Uiso   1.00
N1302  N     0.54931   0.83332   0.75001   0.00000  Uiso   1.00
O1303  O     0.37291   0.77322   0.75000   0.00000  Uiso   1.00
O1304  O     0.42284   0.75077   0.64354   0.00000  Uiso   1.00
O1305  O     0.49814   0.75518   0.57360   0.00000  Uiso   1.00
O1306  O     0.50983   0.91213   0.92238   0.00000  Uiso   1.00
O1307  O     0.58021   0.91678   0.85587   0.00000  Uiso   1.00
O1308  O     0.50919   0.86640   0.85488   0.00000  Uiso   1.00
O1309  O     0.53894   0.72124   0.77589   0.00000  Uiso   1.00
O1310  O     0.53675   0.67470   0.83712   0.00000  Uiso   1.00
O1311  O     0.57827   0.74612   0.83690   0.00000  Uiso   1.00
O1312  O     0.42338   0.92404   0.66704   0.00000  Uiso   1.00
O1313  O     0.46234   0.99204   0.66185   0.00000  Uiso   1.00
O1314  O     0.62709   0.89345   0.75000   0.00000  Uiso   1.00
O1315  O     0.46498   0.94547   0.72793   0.00000  Uiso   1.00
O1316  O     0.62706   0.77321   0.75001   0.00000  Uiso   1.00
O1317  O     0.37294   0.89346   0.75000   0.00000  Uiso   1.00
O1318  O     0.35186   0.83334   0.81492   0.00000  Uiso   1.00
O1319  O     0.64814   0.83332   0.68509   0.00000  Uiso   1.00
O1320  O     0.60600   0.83333   0.81492   0.00000  Uiso   1.00
O1321  O     0.39400   0.83333   0.68508   0.00000  Uiso   1.00
O1322  O     0.48710   0.80140   0.64292   0.00000  Uiso   1.00
S1323  S     0.45883   0.78093   0.61503   0.00000  Uiso   1.00
S1324  S     0.54288   0.88796   0.88502   0.00000  Uiso   1.00
S1325  S     0.56715   0.70666   0.80627   0.00000  Uiso   1.00
S1326  S     0.43303   0.96011   0.69352   0.00000  Uiso   1.00
C1327  C     0.99893   0.75408   0.75184   0.00000  Uiso   1.00
C1328  C     0.70850   0.69005   0.73009   0.00000  Uiso   1.00
C1329  C     0.66844   0.95725   0.74731   0.00000  Uiso   1.00
C1330  C     0.99825   0.70941   0.75232   0.00000  Uiso   1.00
C1331  C     0.84744   0.81194   0.78138   0.00000  Uiso   1.00
C1332  C     0.81928   0.85448   0.71842   0.00000  Uiso   1.00
C1333  C     0.79790   0.81199   0.78147   0.00000  Uiso   1.00
C1334  C     0.86879   0.85457   0.71845   0.00000  Uiso   1.00
C1335  C     0.97228   0.83633   0.83578   0.00000  Uiso   1.00
C1336  C     0.69443   0.83040   0.66420   0.00000  Uiso   1.00
C1337  C     0.95638   0.84259   0.88438   0.00000  Uiso   1.00
C1338  C     0.66776   0.91258   0.74806   0.00000  Uiso   1.00
C1339  C     0.71053   0.82446   0.61555   0.00000  Uiso   1.00
C1340  C     0.97516   0.85076   0.95438   0.00000  Uiso   1.00
C1341  C     0.69195   0.81669   0.54543   0.00000  Uiso   1.00
C1342  C     0.99072   0.84414   0.90851   0.00000  Uiso   1.00
C1343  C     0.67626   0.82285   0.59136   0.00000  Uiso   1.00
C1344  C     0.90693   0.85007   0.90699   0.00000  Uiso   1.00
C1345  C     0.76019   0.81772   0.59289   0.00000  Uiso   1.00
C1346  C     0.89071   0.84331   0.95327   0.00000  Uiso   1.00
C1347  C     0.77636   0.82467   0.54662   0.00000  Uiso   1.00
C1348  C     0.92519   0.84840   0.97735   0.00000  Uiso   1.00
C1349  C     0.85968   0.84670   0.54628   0.00000  Uiso   1.00
C1350  C     0.74190   0.81948   0.52250   0.00000  Uiso   1.00
C1351  C     0.84120   0.83386   0.97633   0.00000  Uiso   1.00
C1352  C     0.82582   0.83442   0.52354   0.00000  Uiso   1.00
C1353  C     0.80733   0.82183   0.95352   0.00000  Uiso   1.00
C1354  C     0.90902   0.85215   0.52363   0.00000  Uiso   1.00
C1355  C     0.75806   0.81608   0.97619   0.00000  Uiso   1.00
C1356  C     0.95596   0.68568   0.77318   0.00000  Uiso   1.00
C1357  C     0.71070   0.98099   0.72631   0.00000  Uiso   1.00
C1358  C     0.95814   0.97663   0.76942   0.00000  Uiso   1.00
Cu1359 Cu    0.71355   0.83334   0.75000   0.00000  Uiso   1.00
Cu1360 Cu    0.95311   0.83333   0.75000   0.00000  Uiso   1.00
H1361  H     0.93438   0.85971   0.54237   0.00000  Uiso   1.00
H1362  H     0.74108   0.70827   0.71481   0.00000  Uiso   1.00
H1363  H     0.85728   0.79539   0.80707   0.00000  Uiso   1.00
H1364  H     0.80944   0.87098   0.69271   0.00000  Uiso   1.00
H1365  H     0.77076   0.79492   0.80679   0.00000  Uiso   1.00
H1366  H     0.89592   0.87164   0.69313   0.00000  Uiso   1.00
H1367  H     0.81059   0.73980   0.55853   0.00000  Uiso   1.00
H1368  H     0.82971   0.88975   0.84190   0.00000  Uiso   1.00
H1369  H     0.93259   0.73478   0.85393   0.00000  Uiso   1.00
H1370  H     0.83306   0.94697   0.70981   0.00000  Uiso   1.00
H1371  H     0.73274   0.80849   0.95741   0.00000  Uiso   1.00
H1372  H     0.97075   0.82433   0.60809   0.00000  Uiso   1.00
H1373  H     0.69620   0.84227   0.89177   0.00000  Uiso   1.00
H1374  H     0.66872   0.85633   0.97188   0.00000  Uiso   1.00
H1375  H     0.99843   0.81113   0.52788   0.00000  Uiso   1.00
H1376  H     0.84835   0.85210   0.58175   0.00000  Uiso   1.00
H1377  H     0.81865   0.81679   0.91798   0.00000  Uiso   1.00
H1378  H     0.92553   0.95845   0.78472   0.00000  Uiso   1.00
N1379  N     0.78403   0.83334   0.74999   0.00000  Uiso   1.00
N1380  N     0.88264   0.83332   0.75001   0.00000  Uiso   1.00
O1381  O     0.70625   0.77322   0.75000   0.00000  Uiso   1.00
O1382  O     0.75617   0.75077   0.64354   0.00000  Uiso   1.00
O1383  O     0.83147   0.75518   0.57360   0.00000  Uiso   1.00
O1384  O     0.84316   0.91213   0.92238   0.00000  Uiso   1.00
O1385  O     0.91354   0.91678   0.85587   0.00000  Uiso   1.00
O1386  O     0.84252   0.86640   0.85488   0.00000  Uiso   1.00
O1387  O     0.87228   0.72124   0.77589   0.00000  Uiso   1.00
O1388  O     0.87008   0.67470   0.83712   0.00000  Uiso   1.00
O1389  O     0.91161   0.74612   0.83690   0.00000  Uiso   1.00
O1390  O     0.75671   0.92404   0.66704   0.00000  Uiso   1.00
O1391  O     0.79568   0.99204   0.66185   0.00000  Uiso   1.00
O1392  O     0.96042   0.89345   0.75000   0.00000  Uiso   1.00
O1393  O     0.79831   0.94547   0.72793   0.00000  Uiso   1.00
O1394  O     0.96039   0.77321   0.75001   0.00000  Uiso   1.00
O1395  O     0.70628   0.89346   0.75000   0.00000  Uiso   1.00
O1396  O     0.68519   0.83334   0.81492   0.00000  Uiso   1.00
O1397  O     0.98148   0.83332   0.68509   0.00000  Uiso   1.00
O1398  O     0.93933   0.83333   0.81492   0.00000  Uiso   1.00
O1399  O     0.72733   0.83333   0.68508   0.00000  Uiso   1.00
O1400  O     0.82044   0.80140   0.64292   0.00000  Uiso   1.00
S1401  S     0.79216   0.78093   0.61503   0.00000  Uiso   1.00
S1402  S     0.87621   0.88796   0.88502   0.00000  Uiso   1.00
S1403  S     0.90049   0.70666   0.80627   0.00000  Uiso   1.00
S1404  S     0.76637   0.96011   0.69352   0.00000  Uiso   1.00
loop_
_geom_bond_atom_site_label_1
_geom_bond_atom_site_label_2
_geom_bond_distance
_geom_bond_site_symmetry_2
_ccdc_geom_bond_type
C1     O68     1.293   .     A
C1     C4      1.456   .     S
C1     O133    1.294   .     S
C2     H36     1.082   .     S
C2     C160    1.399   1_455 S
C2     C499    1.388   1_545 S
C3     C12     1.456   .     S
C3     C31     1.413   .     A
C3     C188    1.399   1_455 S
C4     C30     1.412   .     A
C4     C80     1.399   .     S
C5     H37     1.079   .     S
C5     N54     1.367   .     A
C5     C7      1.416   .     A
C6     H38     1.079   .     S
C6     N53     1.367   .     A
C6     C8      1.416   .     A
C7     N53     1.366   .     A
C7     H39     1.082   .     S
C8     N54     1.366   .     A
C8     H40     1.082   .     S
C9     O72     1.296   .     A
C9     C11     1.473   .     S
C9     O148    1.298   .     S
C10    O73     1.296   .     A
C10    C13     1.473   .     S
C10    O227    1.299   1_455 S
C11    C18     1.410   .     A
C11    C16     1.404   .     A
C12    O69     1.293   .     A
C12    O222    1.294   1_455 S
C13    C19     1.411   .     A
C13    C17     1.404   .     A
C14    C16     1.394   .     A
C14    C22     1.400   .     A
C14    H126    1.079   .     S
C15    C24     1.400   .     A
C15    C17     1.393   .     A
C15    H205    1.080   1_455 S
C16    H125    1.083   .     S
C17    H202    1.083   1_455 S
C18    S76     1.784   .     S
C18    C20     1.407   .     A
C19    C21     1.407   .     A
C19    S75     1.784   .     S
C20    C25     1.417   .     A
C20    C22     1.413   .     A
C21    C26     1.418   .     A
C21    C24     1.414   .     A
C22    C730    1.395   .     S
C23    C26     1.411   .     A
C23    H50     1.079   .     S
C23    C28     1.390   .     A
C24    C731    1.395   1_554 S
C25    C27     1.410   .     A
C25    C728    1.417   .     S
C26    C727    1.417   1_554 S
C27    C29     1.390   .     A
C27    H51     1.079   .     S
C28    H35     1.083   .     S
C28    C724    1.395   1_554 S
C29    H45     1.083   .     S
C29    C726    1.395   .     S
C30    S77     1.771   .     S
C30    C500    1.387   1_545 S
C31    S78     1.771   .     S
C31    C236    1.388   .     S
C32    H52     1.082   .     S
C32    C81     1.399   .     S
C32    C264    1.387   .     S
Cu33   O55     1.967   .     S
Cu33   O69     1.975   .     S
Cu33   N53     2.015   .     S
Cu33   O70     1.960   .     S
Cu33   O73     1.959   .     S
Cu33   Cu190   2.681   1_455 S
Cu34   O66     1.967   .     S
Cu34   N54     2.015   .     S
Cu34   O68     1.975   .     S
Cu34   O72     1.959   .     S
Cu34   O71     1.960   .     S
Cu34   Cu111   2.681   .     S
H41    O57     0.991   .     S
H42    O60     0.991   .     S
H43    O63     0.990   .     S
H44    O67     0.991   .     S
H46    C95     1.083   .     S
H47    C172    1.083   1_455 S
H48    C170    1.079   1_455 S
H49    C93     1.080   .     S
O55    C157    1.294   1_455 S
O56    S75     1.502   .     D
O57    S75     1.683   .     S
O58    S76     1.504   .     D
O59    S76     1.502   .     D
O60    S76     1.677   .     S
O61    S77     1.502   .     D
O62    S77     1.504   .     D
O63    S77     1.681   .     S
O64    S78     1.503   .     D
O65    S78     1.504   .     D
O66    C90     1.294   .     S
O67    S78     1.682   .     S
O70    C165    1.298   1_455 S
O71    C88     1.299   .     S
O74    S75     1.500   .     D
C79    O146    1.293   .     A
C79    C82     1.456   .     S
C79    O211    1.294   .     S
C80    H114    1.082   .     S
C80    C577    1.388   1_545 S
C81    C90     1.456   .     S
C81    C109    1.413   .     A
C82    C108    1.412   .     A
C82    C158    1.399   .     S
C83    H115    1.079   .     S
C83    N132    1.367   .     A
C83    C85     1.416   .     A
C84    H116    1.079   .     S
C84    N131    1.367   .     A
C84    C86     1.416   .     A
C85    N131    1.366   .     A
C85    H117    1.082   .     S
C86    N132    1.366   .     A
C86    H118    1.082   .     S
C87    O150    1.296   .     A
C87    C89     1.473   .     S
C87    O226    1.298   .     S
C88    O151    1.296   .     A
C88    C91     1.473   .     S
C89    C96     1.410   .     A
C89    C94     1.404   .     A
C90    O147    1.293   .     A
C91    C97     1.411   .     A
C91    C95     1.404   .     A
C92    C94     1.394   .     A
C92    C100    1.400   .     A
C92    H204    1.079   .     S
C93    C102    1.400   .     A
C93    C95     1.393   .     A
C94    H203    1.083   .     S
C96    S154    1.784   .     S
C96    C98     1.407   .     A
C97    C99     1.407   .     A
C97    S153    1.784   .     S
C98    C103    1.417   .     A
C98    C100    1.413   .     A
C99    C104    1.418   .     A
C99    C102    1.414   .     A
C100   C808    1.395   .     S
C101   C104    1.411   .     A
C101   H128    1.079   .     S
C101   C106    1.390   .     A
C102   C809    1.395   1_554 S
C103   C105    1.410   .     A
C103   C806    1.417   .     S
C104   C805    1.417   1_554 S
C105   C107    1.390   .     A
C105   H129    1.079   .     S
C106   H113    1.083   .     S
C106   C802    1.395   1_554 S
C107   H123    1.083   .     S
C107   C804    1.395   .     S
C108   S155    1.771   .     S
C108   C578    1.387   1_545 S
C109   S156    1.771   .     S
C109   C314    1.388   .     S
C110   H130    1.082   .     S
C110   C159    1.399   .     S
C110   C342    1.387   .     S
Cu111  O133    1.967   .     S
Cu111  O147    1.975   .     S
Cu111  N131    2.015   .     S
Cu111  O148    1.960   .     S
Cu111  O151    1.959   .     S
Cu112  O144    1.967   .     S
Cu112  N132    2.015   .     S
Cu112  O146    1.975   .     S
Cu112  O150    1.959   .     S
Cu112  O149    1.960   .     S
Cu112  Cu189   2.681   .     S
H119   O135    0.991   .     S
H120   O138    0.991   .     S
H121   O141    0.990   .     S
H122   O145    0.991   .     S
H124   C173    1.083   .     S
H127   C171    1.080   .     S
O134   S153    1.502   .     D
O135   S153    1.683   .     S
O136   S154    1.504   .     D
O137   S154    1.502   .     D
O138   S154    1.677   .     S
O139   S155    1.502   .     D
O140   S155    1.504   .     D
O141   S155    1.681   .     S
O142   S156    1.503   .     D
O143   S156    1.504   .     D
O144   C168    1.294   .     S
O145   S156    1.682   .     S
O149   C166    1.299   .     S
O152   S153    1.500   .     D
C157   O224    1.293   .     A
C157   C160    1.456   .     S
C157   O55     1.294   1_655 S
C158   H192    1.082   .     S
C158   C655    1.388   1_545 S
C159   C168    1.456   .     S
C159   C187    1.413   .     A
C160   C186    1.412   .     A
C160   C2      1.399   1_655 S
C161   H193    1.079   .     S
C161   N210    1.367   .     A
C161   C163    1.416   .     A
C162   H194    1.079   .     S
C162   N209    1.367   .     A
C162   C164    1.416   .     A
C163   N209    1.366   .     A
C163   H195    1.082   .     S
C164   N210    1.366   .     A
C164   H196    1.082   .     S
C165   O228    1.296   .     A
C165   C167    1.473   .     S
C165   O70     1.298   1_655 S
C166   O229    1.296   .     A
C166   C169    1.473   .     S
C167   C174    1.410   .     A
C167   C172    1.404   .     A
C168   O225    1.293   .     A
C169   C175    1.411   .     A
C169   C173    1.404   .     A
C170   C172    1.394   .     A
C170   C178    1.400   .     A
C170   H48     1.079   1_655 S
C171   C180    1.400   .     A
C171   C173    1.393   .     A
C172   H47     1.083   1_655 S
C174   S232    1.784   .     S
C174   C176    1.407   .     A
C175   C177    1.407   .     A
C175   S231    1.784   .     S
C176   C181    1.417   .     A
C176   C178    1.413   .     A
C177   C182    1.418   .     A
C177   C180    1.414   .     A
C178   C886    1.395   .     S
C179   C182    1.411   .     A
C179   H206    1.079   .     S
C179   C184    1.390   .     A
C180   C887    1.395   1_554 S
C181   C183    1.410   .     A
C181   C884    1.417   .     S
C182   C883    1.417   1_554 S
C183   C185    1.390   .     A
C183   H207    1.079   .     S
C184   H191    1.083   .     S
C184   C880    1.395   1_554 S
C185   H201    1.083   .     S
C185   C882    1.395   .     S
C186   S233    1.771   .     S
C186   C656    1.387   1_545 S
C187   S234    1.771   .     S
C187   C392    1.388   .     S
C188   H208    1.082   .     S
C188   C3      1.399   1_655 S
C188   C420    1.387   .     S
Cu189  O211    1.967   .     S
Cu189  O225    1.975   .     S
Cu189  N209    2.015   .     S
Cu189  O226    1.960   .     S
Cu189  O229    1.959   .     S
Cu190  O222    1.967   .     S
Cu190  N210    2.015   .     S
Cu190  O224    1.975   .     S
Cu190  O228    1.959   .     S
Cu190  O227    1.960   .     S
Cu190  Cu33    2.681   1_655 S
H197   O213    0.991   .     S
H198   O216    0.991   .     S
H199   O219    0.990   .     S
H200   O223    0.991   .     S
H202   C17     1.083   1_655 S
H205   C15     1.080   1_655 S
O212   S231    1.502   .     D
O213   S231    1.683   .     S
O214   S232    1.504   .     D
O215   S232    1.502   .     D
O216   S232    1.677   .     S
O217   S233    1.502   .     D
O218   S233    1.504   .     D
O219   S233    1.681   .     S
O220   S234    1.503   .     D
O221   S234    1.504   .     D
O222   C12     1.294   1_655 S
O223   S234    1.682   .     S
O227   C10     1.299   1_655 S
O230   S231    1.500   .     D
C235   O302    1.293   .     A
C235   C238    1.456   .     S
C235   O367    1.294   .     S
C236   H270    1.082   .     S
C236   C394    1.399   1_455 S
C237   C246    1.456   .     S
C237   C265    1.413   .     A
C237   C422    1.399   1_455 S
C238   C264    1.412   .     A
C238   C314    1.399   .     S
C239   H271    1.079   .     S
C239   N288    1.367   .     A
C239   C241    1.416   .     A
C240   H272    1.079   .     S
C240   N287    1.367   .     A
C240   C242    1.416   .     A
C241   N287    1.366   .     A
C241   H273    1.082   .     S
C242   N288    1.366   .     A
C242   H274    1.082   .     S
C243   O306    1.296   .     A
C243   C245    1.473   .     S
C243   O382    1.298   .     S
C244   O307    1.296   .     A
C244   C247    1.473   .     S
C244   O461    1.299   1_455 S
C245   C252    1.410   .     A
C245   C250    1.404   .     A
C246   O303    1.293   .     A
C246   O456    1.294   1_455 S
C247   C253    1.411   .     A
C247   C251    1.404   .     A
C248   C250    1.394   .     A
C248   C256    1.400   .     A
C248   H360    1.079   .     S
C249   C258    1.400   .     A
C249   C251    1.393   .     A
C249   H439    1.080   1_455 S
C250   H359    1.083   .     S
C251   H436    1.083   1_455 S
C252   S310    1.784   .     S
C252   C254    1.407   .     A
C253   C255    1.407   .     A
C253   S309    1.784   .     S
C254   C259    1.417   .     A
C254   C256    1.413   .     A
C255   C260    1.418   .     A
C255   C258    1.414   .     A
C256   C964    1.395   .     S
C257   C260    1.411   .     A
C257   H284    1.079   .     S
C257   C262    1.390   .     A
C258   C965    1.395   1_554 S
C259   C261    1.410   .     A
C259   C962    1.417   .     S
C260   C961    1.417   1_554 S
C261   C263    1.390   .     A
C261   H285    1.079   .     S
C262   H269    1.083   .     S
C262   C958    1.395   1_554 S
C263   H279    1.083   .     S
C263   C960    1.395   .     S
C264   S311    1.771   .     S
C265   S312    1.771   .     S
C265   C470    1.388   .     S
C266   H286    1.082   .     S
C266   C315    1.399   .     S
C266   C498    1.387   .     S
Cu267  O289    1.967   .     S
Cu267  O303    1.975   .     S
Cu267  N287    2.015   .     S
Cu267  O304    1.960   .     S
Cu267  O307    1.959   .     S
Cu267  Cu424   2.681   1_455 S
Cu268  O300    1.967   .     S
Cu268  N288    2.015   .     S
Cu268  O302    1.975   .     S
Cu268  O306    1.959   .     S
Cu268  O305    1.960   .     S
Cu268  Cu345   2.681   .     S
H275   O291    0.991   .     S
H276   O294    0.991   .     S
H277   O297    0.990   .     S
H278   O301    0.991   .     S
H280   C329    1.083   .     S
H281   C406    1.083   1_455 S
H282   C404    1.079   1_455 S
H283   C327    1.080   .     S
O289   C391    1.294   1_455 S
O290   S309    1.502   .     D
O291   S309    1.683   .     S
O292   S310    1.504   .     D
O293   S310    1.502   .     D
O294   S310    1.677   .     S
O295   S311    1.502   .     D
O296   S311    1.504   .     D
O297   S311    1.681   .     S
O298   S312    1.503   .     D
O299   S312    1.504   .     D
O300   C324    1.294   .     S
O301   S312    1.682   .     S
O304   C399    1.298   1_455 S
O305   C322    1.299   .     S
O308   S309    1.500   .     D
C313   O380    1.293   .     A
C313   C316    1.456   .     S
C313   O445    1.294   .     S
C314   H348    1.082   .     S
C315   C324    1.456   .     S
C315   C343    1.413   .     A
C316   C342    1.412   .     A
C316   C392    1.399   .     S
C317   H349    1.079   .     S
C317   N366    1.367   .     A
C317   C319    1.416   .     A
C318   H350    1.079   .     S
C318   N365    1.367   .     A
C318   C320    1.416   .     A
C319   N365    1.366   .     A
C319   H351    1.082   .     S
C320   N366    1.366   .     A
C320   H352    1.082   .     S
C321   O384    1.296   .     A
C321   C323    1.473   .     S
C321   O460    1.298   .     S
C322   O385    1.296   .     A
C322   C325    1.473   .     S
C323   C330    1.410   .     A
C323   C328    1.404   .     A
C324   O381    1.293   .     A
C325   C331    1.411   .     A
C325   C329    1.404   .     A
C326   C328    1.394   .     A
C326   C334    1.400   .     A
C326   H438    1.079   .     S
C327   C336    1.400   .     A
C327   C329    1.393   .     A
C328   H437    1.083   .     S
C330   S388    1.784   .     S
C330   C332    1.407   .     A
C331   C333    1.407   .     A
C331   S387    1.784   .     S
C332   C337    1.417   .     A
C332   C334    1.413   .     A
C333   C338    1.418   .     A
C333   C336    1.414   .     A
C334   C1042   1.395   .     S
C335   C338    1.411   .     A
C335   H362    1.079   .     S
C335   C340    1.390   .     A
C336   C1043   1.395   1_554 S
C337   C339    1.410   .     A
C337   C1040   1.417   .     S
C338   C1039   1.417   1_554 S
C339   C341    1.390   .     A
C339   H363    1.079   .     S
C340   H347    1.083   .     S
C340   C1036   1.395   1_554 S
C341   H357    1.083   .     S
C341   C1038   1.395   .     S
C342   S389    1.771   .     S
C343   S390    1.771   .     S
C343   C548    1.388   .     S
C344   H364    1.082   .     S
C344   C393    1.399   .     S
C344   C576    1.387   .     S
Cu345  O367    1.967   .     S
Cu345  O381    1.975   .     S
Cu345  N365    2.015   .     S
Cu345  O382    1.960   .     S
Cu345  O385    1.959   .     S
Cu346  O378    1.967   .     S
Cu346  N366    2.015   .     S
Cu346  O380    1.975   .     S
Cu346  O384    1.959   .     S
Cu346  O383    1.960   .     S
Cu346  Cu423   2.681   .     S
H353   O369    0.991   .     S
H354   O372    0.991   .     S
H355   O375    0.990   .     S
H356   O379    0.991   .     S
H358   C407    1.083   .     S
H361   C405    1.080   .     S
O368   S387    1.502   .     D
O369   S387    1.683   .     S
O370   S388    1.504   .     D
O371   S388    1.502   .     D
O372   S388    1.677   .     S
O373   S389    1.502   .     D
O374   S389    1.504   .     D
O375   S389    1.681   .     S
O376   S390    1.503   .     D
O377   S390    1.504   .     D
O378   C402    1.294   .     S
O379   S390    1.682   .     S
O383   C400    1.299   .     S
O386   S387    1.500   .     D
C391   O458    1.293   .     A
C391   C394    1.456   .     S
C391   O289    1.294   1_655 S
C392   H426    1.082   .     S
C393   C402    1.456   .     S
C393   C421    1.413   .     A
C394   C420    1.412   .     A
C394   C236    1.399   1_655 S
C395   H427    1.079   .     S
C395   N444    1.367   .     A
C395   C397    1.416   .     A
C396   H428    1.079   .     S
C396   N443    1.367   .     A
C396   C398    1.416   .     A
C397   N443    1.366   .     A
C397   H429    1.082   .     S
C398   N444    1.366   .     A
C398   H430    1.082   .     S
C399   O462    1.296   .     A
C399   C401    1.473   .     S
C399   O304    1.298   1_655 S
C400   O463    1.296   .     A
C400   C403    1.473   .     S
C401   C408    1.410   .     A
C401   C406    1.404   .     A
C402   O459    1.293   .     A
C403   C409    1.411   .     A
C403   C407    1.404   .     A
C404   C406    1.394   .     A
C404   C412    1.400   .     A
C404   H282    1.079   1_655 S
C405   C414    1.400   .     A
C405   C407    1.393   .     A
C406   H281    1.083   1_655 S
C408   S466    1.784   .     S
C408   C410    1.407   .     A
C409   C411    1.407   .     A
C409   S465    1.784   .     S
C410   C415    1.417   .     A
C410   C412    1.413   .     A
C411   C416    1.418   .     A
C411   C414    1.414   .     A
C412   C1120   1.395   .     S
C413   C416    1.411   .     A
C413   H440    1.079   .     S
C413   C418    1.390   .     A
C414   C1121   1.395   1_554 S
C415   C417    1.410   .     A
C415   C1118   1.417   .     S
C416   C1117   1.417   1_554 S
C417   C419    1.390   .     A
C417   H441    1.079   .     S
C418   H425    1.083   .     S
C418   C1114   1.395   1_554 S
C419   H435    1.083   .     S
C419   C1116   1.395   .     S
C420   S467    1.771   .     S
C421   S468    1.771   .     S
C421   C626    1.388   .     S
C422   H442    1.082   .     S
C422   C237    1.399   1_655 S
C422   C654    1.387   .     S
Cu423  O445    1.967   .     S
Cu423  O459    1.975   .     S
Cu423  N443    2.015   .     S
Cu423  O460    1.960   .     S
Cu423  O463    1.959   .     S
Cu424  O456    1.967   .     S
Cu424  N444    2.015   .     S
Cu424  O458    1.975   .     S
Cu424  O462    1.959   .     S
Cu424  O461    1.960   .     S
Cu424  Cu267   2.681   1_655 S
H431   O447    0.991   .     S
H432   O450    0.991   .     S
H433   O453    0.990   .     S
H434   O457    0.991   .     S
H436   C251    1.083   1_655 S
H439   C249    1.080   1_655 S
O446   S465    1.502   .     D
O447   S465    1.683   .     S
O448   S466    1.504   .     D
O449   S466    1.502   .     D
O450   S466    1.677   .     S
O451   S467    1.502   .     D
O452   S467    1.504   .     D
O453   S467    1.681   .     S
O454   S468    1.503   .     D
O455   S468    1.504   .     D
O456   C246    1.294   1_655 S
O457   S468    1.682   .     S
O461   C244    1.299   1_655 S
O464   S465    1.500   .     D
C469   O536    1.293   .     A
C469   C472    1.456   .     S
C469   O601    1.294   .     S
C470   H504    1.082   .     S
C470   C628    1.399   1_455 S
C471   C480    1.456   .     S
C471   C499    1.413   .     A
C471   C656    1.399   1_455 S
C472   C498    1.412   .     A
C472   C548    1.399   .     S
C473   H505    1.079   .     S
C473   N522    1.367   .     A
C473   C475    1.416   .     A
C474   H506    1.079   .     S
C474   N521    1.367   .     A
C474   C476    1.416   .     A
C475   N521    1.366   .     A
C475   H507    1.082   .     S
C476   N522    1.366   .     A
C476   H508    1.082   .     S
C477   O540    1.296   .     A
C477   C479    1.473   .     S
C477   O616    1.298   .     S
C478   O541    1.296   .     A
C478   C481    1.473   .     S
C478   O695    1.299   1_455 S
C479   C486    1.410   .     A
C479   C484    1.404   .     A
C480   O537    1.293   .     A
C480   O690    1.294   1_455 S
C481   C487    1.411   .     A
C481   C485    1.404   .     A
C482   C484    1.394   .     A
C482   C490    1.400   .     A
C482   H594    1.079   .     S
C483   C492    1.400   .     A
C483   C485    1.393   .     A
C483   H673    1.080   1_455 S
C484   H593    1.083   .     S
C485   H670    1.083   1_455 S
C486   S544    1.784   .     S
C486   C488    1.407   .     A
C487   C489    1.407   .     A
C487   S543    1.784   .     S
C488   C493    1.417   .     A
C488   C490    1.413   .     A
C489   C494    1.418   .     A
C489   C492    1.414   .     A
C490   C1198   1.395   .     S
C491   C494    1.411   .     A
C491   H518    1.079   .     S
C491   C496    1.390   .     A
C492   C1199   1.395   1_554 S
C493   C495    1.410   .     A
C493   C1196   1.417   .     S
C494   C1195   1.417   1_554 S
C495   C497    1.390   .     A
C495   H519    1.079   .     S
C496   H503    1.083   .     S
C496   C1192   1.395   1_554 S
C497   H513    1.083   .     S
C497   C1194   1.395   .     S
C498   S545    1.771   .     S
C499   S546    1.771   .     S
C499   C2      1.388   1_565 S
C500   H520    1.082   .     S
C500   C549    1.399   .     S
C500   C30     1.387   1_565 S
Cu501  O523    1.967   .     S
Cu501  O537    1.975   .     S
Cu501  N521    2.015   .     S
Cu501  O538    1.960   .     S
Cu501  O541    1.959   .     S
Cu501  Cu658   2.681   1_455 S
Cu502  O534    1.967   .     S
Cu502  N522    2.015   .     S
Cu502  O536    1.975   .     S
Cu502  O540    1.959   .     S
Cu502  O539    1.960   .     S
Cu502  Cu579   2.681   .     S
H509   O525    0.991   .     S
H510   O528    0.991   .     S
H511   O531    0.990   .     S
H512   O535    0.991   .     S
H514   C563    1.083   .     S
H515   C640    1.083   1_455 S
H516   C638    1.079   1_455 S
H517   C561    1.080   .     S
O523   C625    1.294   1_455 S
O524   S543    1.502   .     D
O525   S543    1.683   .     S
O526   S544    1.504   .     D
O527   S544    1.502   .     D
O528   S544    1.677   .     S
O529   S545    1.502   .     D
O530   S545    1.504   .     D
O531   S545    1.681   .     S
O532   S546    1.503   .     D
O533   S546    1.504   .     D
O534   C558    1.294   .     S
O535   S546    1.682   .     S
O538   C633    1.298   1_455 S
O539   C556    1.299   .     S
O542   S543    1.500   .     D
C547   O614    1.293   .     A
C547   C550    1.456   .     S
C547   O679    1.294   .     S
C548   H582    1.082   .     S
C549   C558    1.456   .     S
C549   C577    1.413   .     A
C550   C576    1.412   .     A
C550   C626    1.399   .     S
C551   H583    1.079   .     S
C551   N600    1.367   .     A
C551   C553    1.416   .     A
C552   H584    1.079   .     S
C552   N599    1.367   .     A
C552   C554    1.416   .     A
C553   N599    1.366   .     A
C553   H585    1.082   .     S
C554   N600    1.366   .     A
C554   H586    1.082   .     S
C555   O618    1.296   .     A
C555   C557    1.473   .     S
C555   O694    1.298   .     S
C556   O619    1.296   .     A
C556   C559    1.473   .     S
C557   C564    1.410   .     A
C557   C562    1.404   .     A
C558   O615    1.293   .     A
C559   C565    1.411   .     A
C559   C563    1.404   .     A
C560   C562    1.394   .     A
C560   C568    1.400   .     A
C560   H672    1.079   .     S
C561   C570    1.400   .     A
C561   C563    1.393   .     A
C562   H671    1.083   .     S
C564   S622    1.784   .     S
C564   C566    1.407   .     A
C565   C567    1.407   .     A
C565   S621    1.784   .     S
C566   C571    1.417   .     A
C566   C568    1.413   .     A
C567   C572    1.418   .     A
C567   C570    1.414   .     A
C568   C1276   1.395   .     S
C569   C572    1.411   .     A
C569   H596    1.079   .     S
C569   C574    1.390   .     A
C570   C1277   1.395   1_554 S
C571   C573    1.410   .     A
C571   C1274   1.417   .     S
C572   C1273   1.417   1_554 S
C573   C575    1.390   .     A
C573   H597    1.079   .     S
C574   H581    1.083   .     S
C574   C1270   1.395   1_554 S
C575   H591    1.083   .     S
C575   C1272   1.395   .     S
C576   S623    1.771   .     S
C577   S624    1.771   .     S
C577   C80     1.388   1_565 S
C578   H598    1.082   .     S
C578   C627    1.399   .     S
C578   C108    1.387   1_565 S
Cu579  O601    1.967   .     S
Cu579  O615    1.975   .     S
Cu579  N599    2.015   .     S
Cu579  O616    1.960   .     S
Cu579  O619    1.959   .     S
Cu580  O612    1.967   .     S
Cu580  N600    2.015   .     S
Cu580  O614    1.975   .     S
Cu580  O618    1.959   .     S
Cu580  O617    1.960   .     S
Cu580  Cu657   2.681   .     S
H587   O603    0.991   .     S
H588   O606    0.991   .     S
H589   O609    0.990   .     S
H590   O613    0.991   .     S
H592   C641    1.083   .     S
H595   C639    1.080   .     S
O602   S621    1.502   .     D
O603   S621    1.683   .     S
O604   S622    1.504   .     D
O605   S622    1.502   .     D
O606   S622    1.677   .     S
O607   S623    1.502   .     D
O608   S623    1.504   .     D
O609   S623    1.681   .     S
O610   S624    1.503   .     D
O611   S624    1.504   .     D
O612   C636    1.294   .     S
O613   S624    1.682   .     S
O617   C634    1.299   .     S
O620   S621    1.500   .     D
C625   O692    1.293   .     A
C625   C628    1.456   .     S
C625   O523    1.294   1_655 S
C626   H660    1.082   .     S
C627   C636    1.456   .     S
C627   C655    1.413   .     A
C628   C654    1.412   .     A
C628   C470    1.399   1_655 S
C629   H661    1.079   .     S
C629   N678    1.367   .     A
C629   C631    1.416   .     A
C630   H662    1.079   .     S
C630   N677    1.367   .     A
C630   C632    1.416   .     A
C631   N677    1.366   .     A
C631   H663    1.082   .     S
C632   N678    1.366   .     A
C632   H664    1.082   .     S
C633   O696    1.296   .     A
C633   C635    1.473   .     S
C633   O538    1.298   1_655 S
C634   O697    1.296   .     A
C634   C637    1.473   .     S
C635   C642    1.410   .     A
C635   C640    1.404   .     A
C636   O693    1.293   .     A
C637   C643    1.411   .     A
C637   C641    1.404   .     A
C638   C640    1.394   .     A
C638   C646    1.400   .     A
C638   H516    1.079   1_655 S
C639   C648    1.400   .     A
C639   C641    1.393   .     A
C640   H515    1.083   1_655 S
C642   S700    1.784   .     S
C642   C644    1.407   .     A
C643   C645    1.407   .     A
C643   S699    1.784   .     S
C644   C649    1.417   .     A
C644   C646    1.413   .     A
C645   C650    1.418   .     A
C645   C648    1.414   .     A
C646   C1354   1.395   .     S
C647   C650    1.411   .     A
C647   H674    1.079   .     S
C647   C652    1.390   .     A
C648   C1355   1.395   1_554 S
C649   C651    1.410   .     A
C649   C1352   1.417   .     S
C650   C1351   1.417   1_554 S
C651   C653    1.390   .     A
C651   H675    1.079   .     S
C652   H659    1.083   .     S
C652   C1348   1.395   1_554 S
C653   H669    1.083   .     S
C653   C1350   1.395   .     S
C654   S701    1.771   .     S
C655   S702    1.771   .     S
C655   C158    1.388   1_565 S
C656   H676    1.082   .     S
C656   C471    1.399   1_655 S
C656   C186    1.387   1_565 S
Cu657  O679    1.967   .     S
Cu657  O693    1.975   .     S
Cu657  N677    2.015   .     S
Cu657  O694    1.960   .     S
Cu657  O697    1.959   .     S
Cu658  O690    1.967   .     S
Cu658  N678    2.015   .     S
Cu658  O692    1.975   .     S
Cu658  O696    1.959   .     S
Cu658  O695    1.960   .     S
Cu658  Cu501   2.681   1_655 S
H665   O681    0.991   .     S
H666   O684    0.991   .     S
H667   O687    0.990   .     S
H668   O691    0.991   .     S
H670   C485    1.083   1_655 S
H673   C483    1.080   1_655 S
O680   S699    1.502   .     D
O681   S699    1.683   .     S
O682   S700    1.504   .     D
O683   S700    1.502   .     D
O684   S700    1.677   .     S
O685   S701    1.502   .     D
O686   S701    1.504   .     D
O687   S701    1.681   .     S
O688   S702    1.503   .     D
O689   S702    1.504   .     D
O690   C480    1.294   1_655 S
O691   S702    1.682   .     S
O695   C478    1.299   1_655 S
O698   S699    1.500   .     D
C703   O770    1.293   .     A
C703   C706    1.456   .     S
C703   O835    1.294   .     S
C704   H738    1.082   .     S
C704   C862    1.399   1_455 S
C704   C1201   1.388   1_545 S
C705   C714    1.456   .     S
C705   C733    1.413   .     A
C705   C890    1.399   1_455 S
C706   C732    1.412   .     A
C706   C782    1.399   .     S
C707   H739    1.079   .     S
C707   N756    1.367   .     A
C707   C709    1.416   .     A
C708   H740    1.079   .     S
C708   N755    1.367   .     A
C708   C710    1.416   .     A
C709   N755    1.366   .     A
C709   H741    1.082   .     S
C710   N756    1.366   .     A
C710   H742    1.082   .     S
C711   O774    1.296   .     A
C711   C713    1.473   .     S
C711   O850    1.298   .     S
C712   O775    1.296   .     A
C712   C715    1.473   .     S
C712   O929    1.299   1_455 S
C713   C720    1.410   .     A
C713   C718    1.404   .     A
C714   O771    1.293   .     A
C714   O924    1.294   1_455 S
C715   C721    1.411   .     A
C715   C719    1.404   .     A
C716   C718    1.394   .     A
C716   C724    1.400   .     A
C716   H828    1.079   .     S
C717   C726    1.400   .     A
C717   C719    1.393   .     A
C717   H907    1.080   1_455 S
C718   H827    1.083   .     S
C719   H904    1.083   1_455 S
C720   S778    1.784   .     S
C720   C722    1.407   .     A
C721   C723    1.407   .     A
C721   S777    1.784   .     S
C722   C727    1.417   .     A
C722   C724    1.413   .     A
C723   C728    1.418   .     A
C723   C726    1.414   .     A
C724   C28     1.395   1_556 S
C725   C728    1.411   .     A
C725   H752    1.079   .     S
C725   C730    1.390   .     A
C727   C729    1.410   .     A
C727   C26     1.417   1_556 S
C729   C731    1.390   .     A
C729   H753    1.079   .     S
C730   H737    1.083   .     S
C731   H747    1.083   .     S
C731   C24     1.395   1_556 S
C732   S779    1.771   .     S
C732   C1202   1.387   1_545 S
C733   S780    1.771   .     S
C733   C938    1.388   .     S
C734   H754    1.082   .     S
C734   C783    1.399   .     S
C734   C966    1.387   .     S
Cu735  O757    1.967   .     S
Cu735  O771    1.975   .     S
Cu735  N755    2.015   .     S
Cu735  O772    1.960   .     S
Cu735  O775    1.959   .     S
Cu735  Cu892   2.681   1_455 S
Cu736  O768    1.967   .     S
Cu736  N756    2.015   .     S
Cu736  O770    1.975   .     S
Cu736  O774    1.959   .     S
Cu736  O773    1.960   .     S
Cu736  Cu813   2.681   .     S
H743   O759    0.991   .     S
H744   O762    0.991   .     S
H745   O765    0.990   .     S
H746   O769    0.991   .     S
H748   C797    1.083   .     S
H749   C874    1.083   1_455 S
H750   C872    1.079   1_455 S
H751   C795    1.080   .     S
O757   C859    1.294   1_455 S
O758   S777    1.502   .     D
O759   S777    1.683   .     S
O760   S778    1.504   .     D
O761   S778    1.502   .     D
O762   S778    1.677   .     S
O763   S779    1.502   .     D
O764   S779    1.504   .     D
O765   S779    1.681   .     S
O766   S780    1.503   .     D
O767   S780    1.504   .     D
O768   C792    1.294   .     S
O769   S780    1.682   .     S
O772   C867    1.298   1_455 S
O773   C790    1.299   .     S
O776   S777    1.500   .     D
C781   O848    1.293   .     A
C781   C784    1.456   .     S
C781   O913    1.294   .     S
C782   H816    1.082   .     S
C782   C1279   1.388   1_545 S
C783   C792    1.456   .     S
C783   C811    1.413   .     A
C784   C810    1.412   .     A
C784   C860    1.399   .     S
C785   H817    1.079   .     S
C785   N834    1.367   .     A
C785   C787    1.416   .     A
C786   H818    1.079   .     S
C786   N833    1.367   .     A
C786   C788    1.416   .     A
C787   N833    1.366   .     A
C787   H819    1.082   .     S
C788   N834    1.366   .     A
C788   H820    1.082   .     S
C789   O852    1.296   .     A
C789   C791    1.473   .     S
C789   O928    1.298   .     S
C790   O853    1.296   .     A
C790   C793    1.473   .     S
C791   C798    1.410   .     A
C791   C796    1.404   .     A
C792   O849    1.293   .     A
C793   C799    1.411   .     A
C793   C797    1.404   .     A
C794   C796    1.394   .     A
C794   C802    1.400   .     A
C794   H906    1.079   .     S
C795   C804    1.400   .     A
C795   C797    1.393   .     A
C796   H905    1.083   .     S
C798   S856    1.784   .     S
C798   C800    1.407   .     A
C799   C801    1.407   .     A
C799   S855    1.784   .     S
C800   C805    1.417   .     A
C800   C802    1.413   .     A
C801   C806    1.418   .     A
C801   C804    1.414   .     A
C802   C106    1.395   1_556 S
C803   C806    1.411   .     A
C803   H830    1.079   .     S
C803   C808    1.390   .     A
C805   C807    1.410   .     A
C805   C104    1.417   1_556 S
C807   C809    1.390   .     A
C807   H831    1.079   .     S
C808   H815    1.083   .     S
C809   H825    1.083   .     S
C809   C102    1.395   1_556 S
C810   S857    1.771   .     S
C810   C1280   1.387   1_545 S
C811   S858    1.771   .     S
C811   C1016   1.388   .     S
C812   H832    1.082   .     S
C812   C861    1.399   .     S
C812   C1044   1.387   .     S
Cu813  O835    1.967   .     S
Cu813  O849    1.975   .     S
Cu813  N833    2.015   .     S
Cu813  O850    1.960   .     S
Cu813  O853    1.959   .     S
Cu814  O846    1.967   .     S
Cu814  N834    2.015   .     S
Cu814  O848    1.975   .     S
Cu814  O852    1.959   .     S
Cu814  O851    1.960   .     S
Cu814  Cu891   2.681   .     S
H821   O837    0.991   .     S
H822   O840    0.991   .     S
H823   O843    0.990   .     S
H824   O847    0.991   .     S
H826   C875    1.083   .     S
H829   C873    1.080   .     S
O836   S855    1.502   .     D
O837   S855    1.683   .     S
O838   S856    1.504   .     D
O839   S856    1.502   .     D
O840   S856    1.677   .     S
O841   S857    1.502   .     D
O842   S857    1.504   .     D
O843   S857    1.681   .     S
O844   S858    1.503   .     D
O845   S858    1.504   .     D
O846   C870    1.294   .     S
O847   S858    1.682   .     S
O851   C868    1.299   .     S
O854   S855    1.500   .     D
C859   O926    1.293   .     A
C859   C862    1.456   .     S
C859   O757    1.294   1_655 S
C860   H894    1.082   .     S
C860   C1357   1.388   1_545 S
C861   C870    1.456   .     S
C861   C889    1.413   .     A
C862   C888    1.412   .     A
C862   C704    1.399   1_655 S
C863   H895    1.079   .     S
C863   N912    1.367   .     A
C863   C865    1.416   .     A
C864   H896    1.079   .     S
C864   N911    1.367   .     A
C864   C866    1.416   .     A
C865   N911    1.366   .     A
C865   H897    1.082   .     S
C866   N912    1.366   .     A
C866   H898    1.082   .     S
C867   O930    1.296   .     A
C867   C869    1.473   .     S
C867   O772    1.298   1_655 S
C868   O931    1.296   .     A
C868   C871    1.473   .     S
C869   C876    1.410   .     A
C869   C874    1.404   .     A
C870   O927    1.293   .     A
C871   C877    1.411   .     A
C871   C875    1.404   .     A
C872   C874    1.394   .     A
C872   C880    1.400   .     A
C872   H750    1.079   1_655 S
C873   C882    1.400   .     A
C873   C875    1.393   .     A
C874   H749    1.083   1_655 S
C876   S934    1.784   .     S
C876   C878    1.407   .     A
C877   C879    1.407   .     A
C877   S933    1.784   .     S
C878   C883    1.417   .     A
C878   C880    1.413   .     A
C879   C884    1.418   .     A
C879   C882    1.414   .     A
C880   C184    1.395   1_556 S
C881   C884    1.411   .     A
C881   H908    1.079   .     S
C881   C886    1.390   .     A
C883   C885    1.410   .     A
C883   C182    1.417   1_556 S
C885   C887    1.390   .     A
C885   H909    1.079   .     S
C886   H893    1.083   .     S
C887   H903    1.083   .     S
C887   C180    1.395   1_556 S
C888   S935    1.771   .     S
C888   C1358   1.387   1_545 S
C889   S936    1.771   .     S
C889   C1094   1.388   .     S
C890   H910    1.082   .     S
C890   C705    1.399   1_655 S
C890   C1122   1.387   .     S
Cu891  O913    1.967   .     S
Cu891  O927    1.975   .     S
Cu891  N911    2.015   .     S
Cu891  O928    1.960   .     S
Cu891  O931    1.959   .     S
Cu892  O924    1.967   .     S
Cu892  N912    2.015   .     S
Cu892  O926    1.975   .     S
Cu892  O930    1.959   .     S
Cu892  O929    1.960   .     S
Cu892  Cu735   2.681   1_655 S
H899   O915    0.991   .     S
H900   O918    0.991   .     S
H901   O921    0.990   .     S
H902   O925    0.991   .     S
H904   C719    1.083   1_655 S
H907   C717    1.080   1_655 S
O914   S933    1.502   .     D
O915   S933    1.683   .     S
O916   S934    1.504   .     D
O917   S934    1.502   .     D
O918   S934    1.677   .     S
O919   S935    1.502   .     D
O920   S935    1.504   .     D
O921   S935    1.681   .     S
O922   S936    1.503   .     D
O923   S936    1.504   .     D
O924   C714    1.294   1_655 S
O925   S936    1.682   .     S
O929   C712    1.299   1_655 S
O932   S933    1.500   .     D
C937   O1004   1.293   .     A
C937   C940    1.456   .     S
C937   O1069   1.294   .     S
C938   H972    1.082   .     S
C938   C1096   1.399   1_455 S
C939   C948    1.456   .     S
C939   C967    1.413   .     A
C939   C1124   1.399   1_455 S
C940   C966    1.412   .     A
C940   C1016   1.399   .     S
C941   H973    1.079   .     S
C941   N990    1.367   .     A
C941   C943    1.416   .     A
C942   H974    1.079   .     S
C942   N989    1.367   .     A
C942   C944    1.416   .     A
C943   N989    1.366   .     A
C943   H975    1.082   .     S
C944   N990    1.366   .     A
C944   H976    1.082   .     S
C945   O1008   1.296   .     A
C945   C947    1.473   .     S
C945   O1084   1.298   .     S
C946   O1009   1.296   .     A
C946   C949    1.473   .     S
C946   O1163   1.299   1_455 S
C947   C954    1.410   .     A
C947   C952    1.404   .     A
C948   O1005   1.293   .     A
C948   O1158   1.294   1_455 S
C949   C955    1.411   .     A
C949   C953    1.404   .     A
C950   C952    1.394   .     A
C950   C958    1.400   .     A
C950   H1062   1.079   .     S
C951   C960    1.400   .     A
C951   C953    1.393   .     A
C951   H1141   1.080   1_455 S
C952   H1061   1.083   .     S
C953   H1138   1.083   1_455 S
C954   S1012   1.784   .     S
C954   C956    1.407   .     A
C955   C957    1.407   .     A
C955   S1011   1.784   .     S
C956   C961    1.417   .     A
C956   C958    1.413   .     A
C957   C962    1.418   .     A
C957   C960    1.414   .     A
C958   C262    1.395   1_556 S
C959   C962    1.411   .     A
C959   H986    1.079   .     S
C959   C964    1.390   .     A
C961   C963    1.410   .     A
C961   C260    1.417   1_556 S
C963   C965    1.390   .     A
C963   H987    1.079   .     S
C964   H971    1.083   .     S
C965   H981    1.083   .     S
C965   C258    1.395   1_556 S
C966   S1013   1.771   .     S
C967   S1014   1.771   .     S
C967   C1172   1.388   .     S
C968   H988    1.082   .     S
C968   C1017   1.399   .     S
C968   C1200   1.387   .     S
Cu969  O991    1.967   .     S
Cu969  O1005   1.975   .     S
Cu969  N989    2.015   .     S
Cu969  O1006   1.960   .     S
Cu969  O1009   1.959   .     S
Cu969  Cu1126  2.681   1_455 S
Cu970  O1002   1.967   .     S
Cu970  N990    2.015   .     S
Cu970  O1004   1.975   .     S
Cu970  O1008   1.959   .     S
Cu970  O1007   1.960   .     S
Cu970  Cu1047  2.681   .     S
H977   O993    0.991   .     S
H978   O996    0.991   .     S
H979   O999    0.990   .     S
H980   O1003   0.991   .     S
H982   C1031   1.083   .     S
H983   C1108   1.083   1_455 S
H984   C1106   1.079   1_455 S
H985   C1029   1.080   .     S
O991   C1093   1.294   1_455 S
O992   S1011   1.502   .     D
O993   S1011   1.683   .     S
O994   S1012   1.504   .     D
O995   S1012   1.502   .     D
O996   S1012   1.677   .     S
O997   S1013   1.502   .     D
O998   S1013   1.504   .     D
O999   S1013   1.681   .     S
O1000  S1014   1.503   .     D
O1001  S1014   1.504   .     D
O1002  C1026   1.294   .     S
O1003  S1014   1.682   .     S
O1006  C1101   1.298   1_455 S
O1007  C1024   1.299   .     S
O1010  S1011   1.500   .     D
C1015  O1082   1.293   .     A
C1015  C1018   1.456   .     S
C1015  O1147   1.294   .     S
C1016  H1050   1.082   .     S
C1017  C1026   1.456   .     S
C1017  C1045   1.413   .     A
C1018  C1044   1.412   .     A
C1018  C1094   1.399   .     S
C1019  H1051   1.079   .     S
C1019  N1068   1.367   .     A
C1019  C1021   1.416   .     A
C1020  H1052   1.079   .     S
C1020  N1067   1.367   .     A
C1020  C1022   1.416   .     A
C1021  N1067   1.366   .     A
C1021  H1053   1.082   .     S
C1022  N1068   1.366   .     A
C1022  H1054   1.082   .     S
C1023  O1086   1.296   .     A
C1023  C1025   1.473   .     S
C1023  O1162   1.298   .     S
C1024  O1087   1.296   .     A
C1024  C1027   1.473   .     S
C1025  C1032   1.410   .     A
C1025  C1030   1.404   .     A
C1026  O1083   1.293   .     A
C1027  C1033   1.411   .     A
C1027  C1031   1.404   .     A
C1028  C1030   1.394   .     A
C1028  C1036   1.400   .     A
C1028  H1140   1.079   .     S
C1029  C1038   1.400   .     A
C1029  C1031   1.393   .     A
C1030  H1139   1.083   .     S
C1032  S1090   1.784   .     S
C1032  C1034   1.407   .     A
C1033  C1035   1.407   .     A
C1033  S1089   1.784   .     S
C1034  C1039   1.417   .     A
C1034  C1036   1.413   .     A
C1035  C1040   1.418   .     A
C1035  C1038   1.414   .     A
C1036  C340    1.395   1_556 S
C1037  C1040   1.411   .     A
C1037  H1064   1.079   .     S
C1037  C1042   1.390   .     A
C1039  C1041   1.410   .     A
C1039  C338    1.417   1_556 S
C1041  C1043   1.390   .     A
C1041  H1065   1.079   .     S
C1042  H1049   1.083   .     S
C1043  H1059   1.083   .     S
C1043  C336    1.395   1_556 S
C1044  S1091   1.771   .     S
C1045  S1092   1.771   .     S
C1045  C1250   1.388   .     S
C1046  H1066   1.082   .     S
C1046  C1095   1.399   .     S
C1046  C1278   1.387   .     S
Cu1047 O1069   1.967   .     S
Cu1047 O1083   1.975   .     S
Cu1047 N1067   2.015   .     S
Cu1047 O1084   1.960   .     S
Cu1047 O1087   1.959   .     S
Cu1048 O1080   1.967   .     S
Cu1048 N1068   2.015   .     S
Cu1048 O1082   1.975   .     S
Cu1048 O1086   1.959   .     S
Cu1048 O1085   1.960   .     S
Cu1048 Cu1125  2.681   .     S
H1055  O1071   0.991   .     S
H1056  O1074   0.991   .     S
H1057  O1077   0.990   .     S
H1058  O1081   0.991   .     S
H1060  C1109   1.083   .     S
H1063  C1107   1.080   .     S
O1070  S1089   1.502   .     D
O1071  S1089   1.683   .     S
O1072  S1090   1.504   .     D
O1073  S1090   1.502   .     D
O1074  S1090   1.677   .     S
O1075  S1091   1.502   .     D
O1076  S1091   1.504   .     D
O1077  S1091   1.681   .     S
O1078  S1092   1.503   .     D
O1079  S1092   1.504   .     D
O1080  C1104   1.294   .     S
O1081  S1092   1.682   .     S
O1085  C1102   1.299   .     S
O1088  S1089   1.500   .     D
C1093  O1160   1.293   .     A
C1093  C1096   1.456   .     S
C1093  O991    1.294   1_655 S
C1094  H1128   1.082   .     S
C1095  C1104   1.456   .     S
C1095  C1123   1.413   .     A
C1096  C1122   1.412   .     A
C1096  C938    1.399   1_655 S
C1097  H1129   1.079   .     S
C1097  N1146   1.367   .     A
C1097  C1099   1.416   .     A
C1098  H1130   1.079   .     S
C1098  N1145   1.367   .     A
C1098  C1100   1.416   .     A
C1099  N1145   1.366   .     A
C1099  H1131   1.082   .     S
C1100  N1146   1.366   .     A
C1100  H1132   1.082   .     S
C1101  O1164   1.296   .     A
C1101  C1103   1.473   .     S
C1101  O1006   1.298   1_655 S
C1102  O1165   1.296   .     A
C1102  C1105   1.473   .     S
C1103  C1110   1.410   .     A
C1103  C1108   1.404   .     A
C1104  O1161   1.293   .     A
C1105  C1111   1.411   .     A
C1105  C1109   1.404   .     A
C1106  C1108   1.394   .     A
C1106  C1114   1.400   .     A
C1106  H984    1.079   1_655 S
C1107  C1116   1.400   .     A
C1107  C1109   1.393   .     A
C1108  H983    1.083   1_655 S
C1110  S1168   1.784   .     S
C1110  C1112   1.407   .     A
C1111  C1113   1.407   .     A
C1111  S1167   1.784   .     S
C1112  C1117   1.417   .     A
C1112  C1114   1.413   .     A
C1113  C1118   1.418   .     A
C1113  C1116   1.414   .     A
C1114  C418    1.395   1_556 S
C1115  C1118   1.411   .     A
C1115  H1142   1.079   .     S
C1115  C1120   1.390   .     A
C1117  C1119   1.410   .     A
C1117  C416    1.417   1_556 S
C1119  C1121   1.390   .     A
C1119  H1143   1.079   .     S
C1120  H1127   1.083   .     S
C1121  H1137   1.083   .     S
C1121  C414    1.395   1_556 S
C1122  S1169   1.771   .     S
C1123  S1170   1.771   .     S
C1123  C1328   1.388   .     S
C1124  H1144   1.082   .     S
C1124  C939    1.399   1_655 S
C1124  C1356   1.387   .     S
Cu1125 O1147   1.967   .     S
Cu1125 O1161   1.975   .     S
Cu1125 N1145   2.015   .     S
Cu1125 O1162   1.960   .     S
Cu1125 O1165   1.959   .     S
Cu1126 O1158   1.967   .     S
Cu1126 N1146   2.015   .     S
Cu1126 O1160   1.975   .     S
Cu1126 O1164   1.959   .     S
Cu1126 O1163   1.960   .     S
Cu1126 Cu969   2.681   1_655 S
H1133  O1149   0.991   .     S
H1134  O1152   0.991   .     S
H1135  O1155   0.990   .     S
H1136  O1159   0.991   .     S
H1138  C953    1.083   1_655 S
H1141  C951    1.080   1_655 S
O1148  S1167   1.502   .     D
O1149  S1167   1.683   .     S
O1150  S1168   1.504   .     D
O1151  S1168   1.502   .     D
O1152  S1168   1.677   .     S
O1153  S1169   1.502   .     D
O1154  S1169   1.504   .     D
O1155  S1169   1.681   .     S
O1156  S1170   1.503   .     D
O1157  S1170   1.504   .     D
O1158  C948    1.294   1_655 S
O1159  S1170   1.682   .     S
O1163  C946    1.299   1_655 S
O1166  S1167   1.500   .     D
C1171  O1238   1.293   .     A
C1171  C1174   1.456   .     S
C1171  O1303   1.294   .     S
C1172  H1206   1.082   .     S
C1172  C1330   1.399   1_455 S
C1173  C1182   1.456   .     S
C1173  C1201   1.413   .     A
C1173  C1358   1.399   1_455 S
C1174  C1200   1.412   .     A
C1174  C1250   1.399   .     S
C1175  H1207   1.079   .     S
C1175  N1224   1.367   .     A
C1175  C1177   1.416   .     A
C1176  H1208   1.079   .     S
C1176  N1223   1.367   .     A
C1176  C1178   1.416   .     A
C1177  N1223   1.366   .     A
C1177  H1209   1.082   .     S
C1178  N1224   1.366   .     A
C1178  H1210   1.082   .     S
C1179  O1242   1.296   .     A
C1179  C1181   1.473   .     S
C1179  O1318   1.298   .     S
C1180  O1243   1.296   .     A
C1180  C1183   1.473   .     S
C1180  O1397   1.299   1_455 S
C1181  C1188   1.410   .     A
C1181  C1186   1.404   .     A
C1182  O1239   1.293   .     A
C1182  O1392   1.294   1_455 S
C1183  C1189   1.411   .     A
C1183  C1187   1.404   .     A
C1184  C1186   1.394   .     A
C1184  C1192   1.400   .     A
C1184  H1296   1.079   .     S
C1185  C1194   1.400   .     A
C1185  C1187   1.393   .     A
C1185  H1375   1.080   1_455 S
C1186  H1295   1.083   .     S
C1187  H1372   1.083   1_455 S
C1188  S1246   1.784   .     S
C1188  C1190   1.407   .     A
C1189  C1191   1.407   .     A
C1189  S1245   1.784   .     S
C1190  C1195   1.417   .     A
C1190  C1192   1.413   .     A
C1191  C1196   1.418   .     A
C1191  C1194   1.414   .     A
C1192  C496    1.395   1_556 S
C1193  C1196   1.411   .     A
C1193  H1220   1.079   .     S
C1193  C1198   1.390   .     A
C1195  C1197   1.410   .     A
C1195  C494    1.417   1_556 S
C1197  C1199   1.390   .     A
C1197  H1221   1.079   .     S
C1198  H1205   1.083   .     S
C1199  H1215   1.083   .     S
C1199  C492    1.395   1_556 S
C1200  S1247   1.771   .     S
C1201  S1248   1.771   .     S
C1201  C704    1.388   1_565 S
C1202  H1222   1.082   .     S
C1202  C1251   1.399   .     S
C1202  C732    1.387   1_565 S
Cu1203 O1225   1.967   .     S
Cu1203 O1239   1.975   .     S
Cu1203 N1223   2.015   .     S
Cu1203 O1240   1.960   .     S
Cu1203 O1243   1.959   .     S
Cu1203 Cu1360  2.681   1_455 S
Cu1204 O1236   1.967   .     S
Cu1204 N1224   2.015   .     S
Cu1204 O1238   1.975   .     S
Cu1204 O1242   1.959   .     S
Cu1204 O1241   1.960   .     S
Cu1204 Cu1281  2.681   .     S
H1211  O1227   0.991   .     S
H1212  O1230   0.991   .     S
H1213  O1233   0.990   .     S
H1214  O1237   0.991   .     S
H1216  C1265   1.083   .     S
H1217  C1342   1.083   1_455 S
H1218  C1340   1.079   1_455 S
H1219  C1263   1.080   .     S
O1225  C1327   1.294   1_455 S
O1226  S1245   1.502   .     D
O1227  S1245   1.683   .     S
O1228  S1246   1.504   .     D
O1229  S1246   1.502   .     D
O1230  S1246   1.677   .     S
O1231  S1247   1.502   .     D
O1232  S1247   1.504   .     D
O1233  S1247   1.681   .     S
O1234  S1248   1.503   .     D
O1235  S1248   1.504   .     D
O1236  C1260   1.294   .     S
O1237  S1248   1.682   .     S
O1240  C1335   1.298   1_455 S
O1241  C1258   1.299   .     S
O1244  S1245   1.500   .     D
C1249  O1316   1.293   .     A
C1249  C1252   1.456   .     S
C1249  O1381   1.294   .     S
C1250  H1284   1.082   .     S
C1251  C1260   1.456   .     S
C1251  C1279   1.413   .     A
C1252  C1278   1.412   .     A
C1252  C1328   1.399   .     S
C1253  H1285   1.079   .     S
C1253  N1302   1.367   .     A
C1253  C1255   1.416   .     A
C1254  H1286   1.079   .     S
C1254  N1301   1.367   .     A
C1254  C1256   1.416   .     A
C1255  N1301   1.366   .     A
C1255  H1287   1.082   .     S
C1256  N1302   1.366   .     A
C1256  H1288   1.082   .     S
C1257  O1320   1.296   .     A
C1257  C1259   1.473   .     S
C1257  O1396   1.298   .     S
C1258  O1321   1.296   .     A
C1258  C1261   1.473   .     S
C1259  C1266   1.410   .     A
C1259  C1264   1.404   .     A
C1260  O1317   1.293   .     A
C1261  C1267   1.411   .     A
C1261  C1265   1.404   .     A
C1262  C1264   1.394   .     A
C1262  C1270   1.400   .     A
C1262  H1374   1.079   .     S
C1263  C1272   1.400   .     A
C1263  C1265   1.393   .     A
C1264  H1373   1.083   .     S
C1266  S1324   1.784   .     S
C1266  C1268   1.407   .     A
C1267  C1269   1.407   .     A
C1267  S1323   1.784   .     S
C1268  C1273   1.417   .     A
C1268  C1270   1.413   .     A
C1269  C1274   1.418   .     A
C1269  C1272   1.414   .     A
C1270  C574    1.395   1_556 S
C1271  C1274   1.411   .     A
C1271  H1298   1.079   .     S
C1271  C1276   1.390   .     A
C1273  C1275   1.410   .     A
C1273  C572    1.417   1_556 S
C1275  C1277   1.390   .     A
C1275  H1299   1.079   .     S
C1276  H1283   1.083   .     S
C1277  H1293   1.083   .     S
C1277  C570    1.395   1_556 S
C1278  S1325   1.771   .     S
C1279  S1326   1.771   .     S
C1279  C782    1.388   1_565 S
C1280  H1300   1.082   .     S
C1280  C1329   1.399   .     S
C1280  C810    1.387   1_565 S
Cu1281 O1303   1.967   .     S
Cu1281 O1317   1.975   .     S
Cu1281 N1301   2.015   .     S
Cu1281 O1318   1.960   .     S
Cu1281 O1321   1.959   .     S
Cu1282 O1314   1.967   .     S
Cu1282 N1302   2.015   .     S
Cu1282 O1316   1.975   .     S
Cu1282 O1320   1.959   .     S
Cu1282 O1319   1.960   .     S
Cu1282 Cu1359  2.681   .     S
H1289  O1305   0.991   .     S
H1290  O1308   0.991   .     S
H1291  O1311   0.990   .     S
H1292  O1315   0.991   .     S
H1294  C1343   1.083   .     S
H1297  C1341   1.080   .     S
O1304  S1323   1.502   .     D
O1305  S1323   1.683   .     S
O1306  S1324   1.504   .     D
O1307  S1324   1.502   .     D
O1308  S1324   1.677   .     S
O1309  S1325   1.502   .     D
O1310  S1325   1.504   .     D
O1311  S1325   1.681   .     S
O1312  S1326   1.503   .     D
O1313  S1326   1.504   .     D
O1314  C1338   1.294   .     S
O1315  S1326   1.682   .     S
O1319  C1336   1.299   .     S
O1322  S1323   1.500   .     D
C1327  O1394   1.293   .     A
C1327  C1330   1.456   .     S
C1327  O1225   1.294   1_655 S
C1328  H1362   1.082   .     S
C1329  C1338   1.456   .     S
C1329  C1357   1.413   .     A
C1330  C1356   1.412   .     A
C1330  C1172   1.399   1_655 S
C1331  H1363   1.079   .     S
C1331  N1380   1.367   .     A
C1331  C1333   1.416   .     A
C1332  H1364   1.079   .     S
C1332  N1379   1.367   .     A
C1332  C1334   1.416   .     A
C1333  N1379   1.366   .     A
C1333  H1365   1.082   .     S
C1334  N1380   1.366   .     A
C1334  H1366   1.082   .     S
C1335  O1398   1.296   .     A
C1335  C1337   1.473   .     S
C1335  O1240   1.298   1_655 S
C1336  O1399   1.296   .     A
C1336  C1339   1.473   .     S
C1337  C1344   1.410   .     A
C1337  C1342   1.404   .     A
C1338  O1395   1.293   .     A
C1339  C1345   1.411   .     A
C1339  C1343   1.404   .     A
C1340  C1342   1.394   .     A
C1340  C1348   1.400   .     A
C1340  H1218   1.079   1_655 S
C1341  C1350   1.400   .     A
C1341  C1343   1.393   .     A
C1342  H1217   1.083   1_655 S
C1344  S1402   1.784   .     S
C1344  C1346   1.407   .     A
C1345  C1347   1.407   .     A
C1345  S1401   1.784   .     S
C1346  C1351   1.417   .     A
C1346  C1348   1.413   .     A
C1347  C1352   1.418   .     A
C1347  C1350   1.414   .     A
C1348  C652    1.395   1_556 S
C1349  C1352   1.411   .     A
C1349  H1376   1.079   .     S
C1349  C1354   1.390   .     A
C1351  C1353   1.410   .     A
C1351  C650    1.417   1_556 S
C1353  C1355   1.390   .     A
C1353  H1377   1.079   .     S
C1354  H1361   1.083   .     S
C1355  H1371   1.083   .     S
C1355  C648    1.395   1_556 S
C1356  S1403   1.771   .     S
C1357  S1404   1.771   .     S
C1357  C860    1.388   1_565 S
C1358  H1378   1.082   .     S
C1358  C1173   1.399   1_655 S
C1358  C888    1.387   1_565 S
Cu1359 O1381   1.967   .     S
Cu1359 O1395   1.975   .     S
Cu1359 N1379   2.015   .     S
Cu1359 O1396   1.960   .     S
Cu1359 O1399   1.959   .     S
Cu1360 O1392   1.967   .     S
Cu1360 N1380   2.015   .     S
Cu1360 O1394   1.975   .     S
Cu1360 O1398   1.959   .     S
Cu1360 O1397   1.960   .     S
Cu1360 Cu1203  2.681   1_655 S
H1367  O1383   0.991   .     S
H1368  O1386   0.991   .     S
H1369  O1389   0.990   .     S
H1370  O1393   0.991   .     S
H1372  C1187   1.083   1_655 S
H1375  C1185   1.080   1_655 S
O1382  S1401   1.502   .     D
O1383  S1401   1.683   .     S
O1384  S1402   1.504   .     D
O1385  S1402   1.502   .     D
O1386  S1402   1.677   .     S
O1387  S1403   1.502   .     D
O1388  S1403   1.504   .     D
O1389  S1403   1.681   .     S
O1390  S1404   1.503   .     D
O1391  S1404   1.504   .     D
O1392  C1182   1.294   1_655 S
O1393  S1404   1.682   .     S
O1397  C1180   1.299   1_655 S
O1400  S1401   1.500   .     D
