data_str_m2_o1_o16_pcu_sym.151
_audit_creation_date              2020-01-03
_audit_creation_method            'Materials Studio'
_symmetry_space_group_name_H-M    'P1'
_symmetry_Int_Tables_number       1
_symmetry_cell_setting            triclinic
loop_
_symmetry_equiv_pos_as_xyz
  x,y,z
_cell_length_a                    28.5000
_cell_length_b                    32.3717
_cell_length_c                    27.1770
_cell_angle_alpha                 89.4341
_cell_angle_beta                  73.6015
_cell_angle_gamma                 89.8985
loop_
_atom_site_label
_atom_site_type_symbol
_atom_site_fract_x
_atom_site_fract_y
_atom_site_fract_z
_atom_site_U_iso_or_equiv
_atom_site_adp_type
_atom_site_occupancy
C1     C     0.16603   0.24592   0.25214   0.00000  Uiso   1.00
C2     C     0.14970   0.15309   0.48824   0.00000  Uiso   1.00
C3     C     0.16491   0.15414   0.43371   0.00000  Uiso   1.00
C4     C     0.18523   0.15927   0.01551   0.00000  Uiso   1.00
C5     C     0.23259   0.17326   0.48843   0.00000  Uiso   1.00
C6     C     0.24824   0.16969   0.43569   0.00000  Uiso   1.00
C7     C     0.21604   0.15632   0.40964   0.00000  Uiso   1.00
C8     C     0.17604   0.15196   0.06852   0.00000  Uiso   1.00
C9     C     0.25048   0.18980   0.06798   0.00000  Uiso   1.00
C10    C     0.12866   0.15379   0.40589   0.00000  Uiso   1.00
C11    C     0.20728   0.31182   0.22653   0.00000  Uiso   1.00
C12    C     0.14138   0.16269   0.34970   0.00000  Uiso   1.00
C13    C     0.20792   0.02117   0.22547   0.00000  Uiso   1.00
C14    C     0.16625   0.04292   0.25175   0.00000  Uiso   1.00
C15    C     0.12444   0.02219   0.28067   0.00000  Uiso   1.00
C16    C     0.12375   0.31253   0.28373   0.00000  Uiso   1.00
C17    C     0.16532   0.29060   0.25470   0.00000  Uiso   1.00
C18    C     0.31538   0.19664   0.22424   0.00000  Uiso   1.00
C19    C     0.03183   0.19631   0.22368   0.00000  Uiso   1.00
C20    C     0.01803   0.13659   0.27551   0.00000  Uiso   1.00
C21    C     0.30184   0.13642   0.27520   0.00000  Uiso   1.00
C22    C     0.16663   0.08741   0.25020   0.00000  Uiso   1.00
C23    C     0.19243   0.16763   0.15057   0.00000  Uiso   1.00
C24    C     0.26430   0.18940   0.01435   0.00000  Uiso   1.00
C25    C     0.20697   0.16962   0.09479   0.00000  Uiso   1.00
C26    C     0.07936   0.14551   0.43293   0.00000  Uiso   1.00
C27    C     0.06548   0.14344   0.48628   0.00000  Uiso   1.00
C28    C     0.09940   0.14889   0.01352   0.00000  Uiso   1.00
Cu29   Cu    0.11978   0.16666   0.25000   0.00000  Uiso   1.00
Cu30   Cu    0.21355   0.16667   0.25000   0.00000  Uiso   1.00
H31    H     0.24046   0.03720   0.20320   0.00000  Uiso   1.00
H32    H     0.09292   0.03960   0.30228   0.00000  Uiso   1.00
H33    H     0.30208   0.22078   0.20391   0.00000  Uiso   1.00
H34    H     0.05626   0.21984   0.20222   0.00000  Uiso   1.00
H35    H     0.03138   0.11241   0.29572   0.00000  Uiso   1.00
H36    H     0.27790   0.11200   0.29514   0.00000  Uiso   1.00
H37    H     0.28607   0.17554   0.41465   0.00000  Uiso   1.00
H38    H     0.29844   0.20348   0.49273   0.00000  Uiso   1.00
H39    H     0.08475   0.15150   0.05446   0.00000  Uiso   1.00
H40    H     0.02732   0.13920   0.00686   0.00000  Uiso   1.00
H41    H     0.23352   0.14714   0.37118   0.00000  Uiso   1.00
H42    H     0.23938   0.29530   0.20457   0.00000  Uiso   1.00
N43    N     0.04931   0.16666   0.24998   0.00000  Uiso   1.00
N44    N     0.28402   0.16669   0.24999   0.00000  Uiso   1.00
O45    O     0.12708   0.22678   0.25000   0.00000  Uiso   1.00
O46    O     0.20627   0.22679   0.25000   0.00000  Uiso   1.00
O47    O     0.10775   0.16665   0.32549   0.00000  Uiso   1.00
O48    O     0.18694   0.16666   0.32549   0.00000  Uiso   1.00
O49    O     0.12706   0.10654   0.24999   0.00000  Uiso   1.00
O50    O     0.20625   0.10655   0.24999   0.00000  Uiso   1.00
O51    O     0.14640   0.16667   0.17451   0.00000  Uiso   1.00
O52    O     0.22559   0.16668   0.17451   0.00000  Uiso   1.00
O53    O     0.27529   0.21376   0.09463   0.00000  Uiso   1.00
C54    C     0.32394   0.20011   0.08530   0.00000  Uiso   1.00
H55    H     0.32573   0.16622   0.09193   0.00000  Uiso   1.00
H56    H     0.01292   0.20930   0.04629   0.00000  Uiso   1.00
H57    H     0.00715   0.21562   0.11253   0.00000  Uiso   1.00
C58    C     0.07981   0.29190   0.32063   0.00000  Uiso   1.00
C59    C     0.03602   0.29111   0.29835   0.00000  Uiso   1.00
C60    C     0.32742   0.26526   0.33185   0.00000  Uiso   1.00
H61    H     0.00600   0.23278   0.33432   0.00000  Uiso   1.00
H62    H     0.31487   0.27825   0.37107   0.00000  Uiso   1.00
H63    H     0.29628   0.26541   0.31483   0.00000  Uiso   1.00
H64    H     0.02285   0.32314   0.29547   0.00000  Uiso   1.00
H65    H     0.04729   0.27801   0.25919   0.00000  Uiso   1.00
H66    H     0.08864   0.26021   0.33112   0.00000  Uiso   1.00
H67    H     0.06957   0.30923   0.35727   0.00000  Uiso   1.00
O68    O     0.13860   0.12597   0.09474   0.00000  Uiso   1.00
C69    C     0.15628   0.08507   0.09004   0.00000  Uiso   1.00
H70    H     0.18718   0.08132   0.10724   0.00000  Uiso   1.00
H71    H     0.16748   0.07520   0.04925   0.00000  Uiso   1.00
H72    H     0.12639   0.06425   0.11133   0.00000  Uiso   1.00
O73    O     0.04357   0.14307   0.40767   0.00000  Uiso   1.00
C74    C     0.02883   0.10150   0.40758   0.00000  Uiso   1.00
H75    H     0.01224   0.08940   0.44713   0.00000  Uiso   1.00
H76    H     0.05998   0.08167   0.38690   0.00000  Uiso   1.00
H77    H     0.00025   0.09967   0.38719   0.00000  Uiso   1.00
C78    C     0.49936   0.24592   0.25214   0.00000  Uiso   1.00
C79    C     0.48304   0.15309   0.48824   0.00000  Uiso   1.00
C80    C     0.49824   0.15414   0.43371   0.00000  Uiso   1.00
C81    C     0.51857   0.15927   0.01551   0.00000  Uiso   1.00
C82    C     0.56592   0.17326   0.48843   0.00000  Uiso   1.00
C83    C     0.58158   0.16969   0.43569   0.00000  Uiso   1.00
C84    C     0.54938   0.15632   0.40964   0.00000  Uiso   1.00
C85    C     0.50937   0.15196   0.06852   0.00000  Uiso   1.00
C86    C     0.58381   0.18980   0.06798   0.00000  Uiso   1.00
C87    C     0.46200   0.15379   0.40589   0.00000  Uiso   1.00
C88    C     0.54062   0.31182   0.22653   0.00000  Uiso   1.00
C89    C     0.47471   0.16269   0.34970   0.00000  Uiso   1.00
C90    C     0.54125   0.02117   0.22547   0.00000  Uiso   1.00
C91    C     0.49958   0.04292   0.25175   0.00000  Uiso   1.00
C92    C     0.45777   0.02219   0.28067   0.00000  Uiso   1.00
C93    C     0.45708   0.31253   0.28373   0.00000  Uiso   1.00
C94    C     0.49865   0.29060   0.25470   0.00000  Uiso   1.00
C95    C     0.64872   0.19664   0.22424   0.00000  Uiso   1.00
C96    C     0.36516   0.19631   0.22368   0.00000  Uiso   1.00
C97    C     0.35137   0.13659   0.27551   0.00000  Uiso   1.00
C98    C     0.63517   0.13642   0.27520   0.00000  Uiso   1.00
C99    C     0.49997   0.08741   0.25020   0.00000  Uiso   1.00
C100   C     0.52577   0.16763   0.15057   0.00000  Uiso   1.00
C101   C     0.59763   0.18940   0.01435   0.00000  Uiso   1.00
C102   C     0.54031   0.16962   0.09479   0.00000  Uiso   1.00
C103   C     0.41269   0.14551   0.43293   0.00000  Uiso   1.00
C104   C     0.39881   0.14344   0.48628   0.00000  Uiso   1.00
C105   C     0.43273   0.14889   0.01352   0.00000  Uiso   1.00
Cu106  Cu    0.45311   0.16666   0.25000   0.00000  Uiso   1.00
Cu107  Cu    0.54689   0.16667   0.25000   0.00000  Uiso   1.00
H108   H     0.57380   0.03720   0.20320   0.00000  Uiso   1.00
H109   H     0.42625   0.03960   0.30228   0.00000  Uiso   1.00
H110   H     0.63541   0.22078   0.20391   0.00000  Uiso   1.00
H111   H     0.38960   0.21984   0.20222   0.00000  Uiso   1.00
H112   H     0.36471   0.11241   0.29572   0.00000  Uiso   1.00
H113   H     0.61123   0.11200   0.29514   0.00000  Uiso   1.00
H114   H     0.61940   0.17554   0.41465   0.00000  Uiso   1.00
H115   H     0.63177   0.20348   0.49273   0.00000  Uiso   1.00
H116   H     0.41808   0.15150   0.05446   0.00000  Uiso   1.00
H117   H     0.36065   0.13920   0.00686   0.00000  Uiso   1.00
H118   H     0.56685   0.14714   0.37118   0.00000  Uiso   1.00
H119   H     0.57272   0.29530   0.20457   0.00000  Uiso   1.00
N120   N     0.38265   0.16666   0.24998   0.00000  Uiso   1.00
N121   N     0.61735   0.16669   0.24999   0.00000  Uiso   1.00
O122   O     0.46042   0.22678   0.25000   0.00000  Uiso   1.00
O123   O     0.53961   0.22679   0.25000   0.00000  Uiso   1.00
O124   O     0.44108   0.16665   0.32549   0.00000  Uiso   1.00
O125   O     0.52027   0.16666   0.32549   0.00000  Uiso   1.00
O126   O     0.46039   0.10654   0.24999   0.00000  Uiso   1.00
O127   O     0.53958   0.10655   0.24999   0.00000  Uiso   1.00
O128   O     0.47973   0.16667   0.17451   0.00000  Uiso   1.00
O129   O     0.55892   0.16668   0.17451   0.00000  Uiso   1.00
O130   O     0.60862   0.21376   0.09463   0.00000  Uiso   1.00
C131   C     0.65727   0.20011   0.08530   0.00000  Uiso   1.00
H132   H     0.65906   0.16622   0.09193   0.00000  Uiso   1.00
H133   H     0.34625   0.20930   0.04629   0.00000  Uiso   1.00
H134   H     0.34049   0.21562   0.11253   0.00000  Uiso   1.00
C135   C     0.41314   0.29190   0.32063   0.00000  Uiso   1.00
C136   C     0.36936   0.29111   0.29835   0.00000  Uiso   1.00
C137   C     0.66075   0.26526   0.33185   0.00000  Uiso   1.00
H138   H     0.33933   0.23278   0.33432   0.00000  Uiso   1.00
H139   H     0.64821   0.27825   0.37107   0.00000  Uiso   1.00
H140   H     0.62961   0.26541   0.31483   0.00000  Uiso   1.00
H141   H     0.35618   0.32314   0.29547   0.00000  Uiso   1.00
H142   H     0.38062   0.27801   0.25919   0.00000  Uiso   1.00
H143   H     0.42197   0.26021   0.33112   0.00000  Uiso   1.00
H144   H     0.40290   0.30923   0.35727   0.00000  Uiso   1.00
O145   O     0.47193   0.12597   0.09474   0.00000  Uiso   1.00
C146   C     0.48961   0.08507   0.09004   0.00000  Uiso   1.00
H147   H     0.52052   0.08132   0.10724   0.00000  Uiso   1.00
H148   H     0.50082   0.07520   0.04925   0.00000  Uiso   1.00
H149   H     0.45972   0.06425   0.11133   0.00000  Uiso   1.00
O150   O     0.37691   0.14307   0.40767   0.00000  Uiso   1.00
C151   C     0.36216   0.10150   0.40758   0.00000  Uiso   1.00
H152   H     0.34557   0.08940   0.44713   0.00000  Uiso   1.00
H153   H     0.39331   0.08167   0.38690   0.00000  Uiso   1.00
H154   H     0.33359   0.09967   0.38719   0.00000  Uiso   1.00
C155   C     0.83270   0.24592   0.25214   0.00000  Uiso   1.00
C156   C     0.81637   0.15309   0.48824   0.00000  Uiso   1.00
C157   C     0.83157   0.15414   0.43371   0.00000  Uiso   1.00
C158   C     0.85190   0.15927   0.01551   0.00000  Uiso   1.00
C159   C     0.89925   0.17326   0.48843   0.00000  Uiso   1.00
C160   C     0.91491   0.16969   0.43569   0.00000  Uiso   1.00
C161   C     0.88271   0.15632   0.40964   0.00000  Uiso   1.00
C162   C     0.84271   0.15196   0.06852   0.00000  Uiso   1.00
C163   C     0.91715   0.18980   0.06798   0.00000  Uiso   1.00
C164   C     0.79533   0.15379   0.40589   0.00000  Uiso   1.00
C165   C     0.87395   0.31182   0.22653   0.00000  Uiso   1.00
C166   C     0.80804   0.16269   0.34970   0.00000  Uiso   1.00
C167   C     0.87458   0.02117   0.22547   0.00000  Uiso   1.00
C168   C     0.83292   0.04292   0.25175   0.00000  Uiso   1.00
C169   C     0.79111   0.02219   0.28067   0.00000  Uiso   1.00
C170   C     0.79042   0.31253   0.28373   0.00000  Uiso   1.00
C171   C     0.83199   0.29060   0.25470   0.00000  Uiso   1.00
C172   C     0.98205   0.19664   0.22424   0.00000  Uiso   1.00
C173   C     0.69850   0.19631   0.22368   0.00000  Uiso   1.00
C174   C     0.68470   0.13659   0.27551   0.00000  Uiso   1.00
C175   C     0.96850   0.13642   0.27520   0.00000  Uiso   1.00
C176   C     0.83330   0.08741   0.25020   0.00000  Uiso   1.00
C177   C     0.85910   0.16763   0.15057   0.00000  Uiso   1.00
C178   C     0.93096   0.18940   0.01435   0.00000  Uiso   1.00
C179   C     0.87364   0.16962   0.09479   0.00000  Uiso   1.00
C180   C     0.74603   0.14551   0.43293   0.00000  Uiso   1.00
C181   C     0.73215   0.14344   0.48628   0.00000  Uiso   1.00
C182   C     0.76606   0.14889   0.01352   0.00000  Uiso   1.00
Cu183  Cu    0.78645   0.16666   0.25000   0.00000  Uiso   1.00
Cu184  Cu    0.88022   0.16667   0.25000   0.00000  Uiso   1.00
H185   H     0.90713   0.03720   0.20320   0.00000  Uiso   1.00
H186   H     0.75959   0.03960   0.30228   0.00000  Uiso   1.00
H187   H     0.96874   0.22078   0.20391   0.00000  Uiso   1.00
H188   H     0.72293   0.21984   0.20222   0.00000  Uiso   1.00
H189   H     0.69804   0.11241   0.29572   0.00000  Uiso   1.00
H190   H     0.94457   0.11200   0.29514   0.00000  Uiso   1.00
H191   H     0.95273   0.17554   0.41465   0.00000  Uiso   1.00
H192   H     0.96510   0.20348   0.49273   0.00000  Uiso   1.00
H193   H     0.75141   0.15150   0.05446   0.00000  Uiso   1.00
H194   H     0.69399   0.13920   0.00686   0.00000  Uiso   1.00
H195   H     0.90018   0.14714   0.37118   0.00000  Uiso   1.00
H196   H     0.90605   0.29530   0.20457   0.00000  Uiso   1.00
N197   N     0.71598   0.16666   0.24998   0.00000  Uiso   1.00
N198   N     0.95069   0.16669   0.24999   0.00000  Uiso   1.00
O199   O     0.79375   0.22678   0.25000   0.00000  Uiso   1.00
O200   O     0.87294   0.22679   0.25000   0.00000  Uiso   1.00
O201   O     0.77441   0.16665   0.32549   0.00000  Uiso   1.00
O202   O     0.85360   0.16666   0.32549   0.00000  Uiso   1.00
O203   O     0.79373   0.10654   0.24999   0.00000  Uiso   1.00
O204   O     0.87292   0.10655   0.24999   0.00000  Uiso   1.00
O205   O     0.81306   0.16667   0.17451   0.00000  Uiso   1.00
O206   O     0.89225   0.16668   0.17451   0.00000  Uiso   1.00
O207   O     0.94195   0.21376   0.09463   0.00000  Uiso   1.00
C208   C     0.99060   0.20011   0.08530   0.00000  Uiso   1.00
H209   H     0.99240   0.16622   0.09193   0.00000  Uiso   1.00
H210   H     0.67958   0.20930   0.04629   0.00000  Uiso   1.00
H211   H     0.67382   0.21562   0.11253   0.00000  Uiso   1.00
C212   C     0.74647   0.29190   0.32063   0.00000  Uiso   1.00
C213   C     0.70269   0.29111   0.29835   0.00000  Uiso   1.00
C214   C     0.99409   0.26526   0.33185   0.00000  Uiso   1.00
H215   H     0.67266   0.23278   0.33432   0.00000  Uiso   1.00
H216   H     0.98154   0.27825   0.37107   0.00000  Uiso   1.00
H217   H     0.96295   0.26541   0.31483   0.00000  Uiso   1.00
H218   H     0.68951   0.32314   0.29547   0.00000  Uiso   1.00
H219   H     0.71395   0.27801   0.25919   0.00000  Uiso   1.00
H220   H     0.75531   0.26021   0.33112   0.00000  Uiso   1.00
H221   H     0.73624   0.30923   0.35727   0.00000  Uiso   1.00
O222   O     0.80527   0.12597   0.09474   0.00000  Uiso   1.00
C223   C     0.82294   0.08507   0.09004   0.00000  Uiso   1.00
H224   H     0.85385   0.08132   0.10724   0.00000  Uiso   1.00
H225   H     0.83415   0.07520   0.04925   0.00000  Uiso   1.00
H226   H     0.79306   0.06425   0.11133   0.00000  Uiso   1.00
O227   O     0.71024   0.14307   0.40767   0.00000  Uiso   1.00
C228   C     0.69549   0.10150   0.40758   0.00000  Uiso   1.00
H229   H     0.67891   0.08940   0.44713   0.00000  Uiso   1.00
H230   H     0.72664   0.08167   0.38690   0.00000  Uiso   1.00
H231   H     0.66692   0.09967   0.38719   0.00000  Uiso   1.00
C232   C     0.16603   0.57925   0.25214   0.00000  Uiso   1.00
C233   C     0.14970   0.48642   0.48824   0.00000  Uiso   1.00
C234   C     0.16491   0.48747   0.43371   0.00000  Uiso   1.00
C235   C     0.18523   0.49261   0.01551   0.00000  Uiso   1.00
C236   C     0.23259   0.50659   0.48843   0.00000  Uiso   1.00
C237   C     0.24824   0.50303   0.43569   0.00000  Uiso   1.00
C238   C     0.21604   0.48965   0.40964   0.00000  Uiso   1.00
C239   C     0.17604   0.48530   0.06852   0.00000  Uiso   1.00
C240   C     0.25048   0.52313   0.06798   0.00000  Uiso   1.00
C241   C     0.12866   0.48712   0.40589   0.00000  Uiso   1.00
C242   C     0.20728   0.64515   0.22653   0.00000  Uiso   1.00
C243   C     0.14138   0.49602   0.34970   0.00000  Uiso   1.00
C244   C     0.20792   0.35450   0.22547   0.00000  Uiso   1.00
C245   C     0.16625   0.37625   0.25175   0.00000  Uiso   1.00
C246   C     0.12444   0.35552   0.28067   0.00000  Uiso   1.00
C247   C     0.12375   0.64586   0.28373   0.00000  Uiso   1.00
C248   C     0.16532   0.62393   0.25470   0.00000  Uiso   1.00
C249   C     0.31538   0.52997   0.22424   0.00000  Uiso   1.00
C250   C     0.03183   0.52965   0.22368   0.00000  Uiso   1.00
C251   C     0.01803   0.46992   0.27551   0.00000  Uiso   1.00
C252   C     0.30184   0.46975   0.27520   0.00000  Uiso   1.00
C253   C     0.16663   0.42075   0.25020   0.00000  Uiso   1.00
C254   C     0.19243   0.50096   0.15057   0.00000  Uiso   1.00
C255   C     0.26430   0.52273   0.01435   0.00000  Uiso   1.00
C256   C     0.20697   0.50295   0.09479   0.00000  Uiso   1.00
C257   C     0.07936   0.47884   0.43293   0.00000  Uiso   1.00
C258   C     0.06548   0.47677   0.48628   0.00000  Uiso   1.00
C259   C     0.09940   0.48222   0.01352   0.00000  Uiso   1.00
Cu260  Cu    0.11978   0.49999   0.25000   0.00000  Uiso   1.00
Cu261  Cu    0.21355   0.50001   0.25000   0.00000  Uiso   1.00
H262   H     0.24046   0.37053   0.20320   0.00000  Uiso   1.00
H263   H     0.09292   0.37293   0.30228   0.00000  Uiso   1.00
H264   H     0.30208   0.55411   0.20391   0.00000  Uiso   1.00
H265   H     0.05626   0.55317   0.20222   0.00000  Uiso   1.00
H266   H     0.03138   0.44574   0.29572   0.00000  Uiso   1.00
H267   H     0.27790   0.44533   0.29514   0.00000  Uiso   1.00
H268   H     0.28607   0.50888   0.41465   0.00000  Uiso   1.00
H269   H     0.29844   0.53681   0.49273   0.00000  Uiso   1.00
H270   H     0.08475   0.48483   0.05446   0.00000  Uiso   1.00
H271   H     0.02732   0.47254   0.00686   0.00000  Uiso   1.00
H272   H     0.23352   0.48047   0.37118   0.00000  Uiso   1.00
H273   H     0.23938   0.62864   0.20457   0.00000  Uiso   1.00
N274   N     0.04931   0.49999   0.24998   0.00000  Uiso   1.00
N275   N     0.28402   0.50002   0.24999   0.00000  Uiso   1.00
O276   O     0.12708   0.56011   0.25000   0.00000  Uiso   1.00
O277   O     0.20627   0.56012   0.25000   0.00000  Uiso   1.00
O278   O     0.10775   0.49998   0.32549   0.00000  Uiso   1.00
O279   O     0.18694   0.49999   0.32549   0.00000  Uiso   1.00
O280   O     0.12706   0.43988   0.24999   0.00000  Uiso   1.00
O281   O     0.20625   0.43989   0.24999   0.00000  Uiso   1.00
O282   O     0.14640   0.50001   0.17451   0.00000  Uiso   1.00
O283   O     0.22559   0.50002   0.17451   0.00000  Uiso   1.00
O284   O     0.27529   0.54709   0.09463   0.00000  Uiso   1.00
C285   C     0.32394   0.53345   0.08530   0.00000  Uiso   1.00
H286   H     0.32573   0.49956   0.09193   0.00000  Uiso   1.00
H287   H     0.01292   0.54263   0.04629   0.00000  Uiso   1.00
H288   H     0.00715   0.54895   0.11253   0.00000  Uiso   1.00
C289   C     0.07981   0.62523   0.32063   0.00000  Uiso   1.00
C290   C     0.03602   0.62444   0.29835   0.00000  Uiso   1.00
C291   C     0.32742   0.59859   0.33185   0.00000  Uiso   1.00
H292   H     0.00600   0.56612   0.33432   0.00000  Uiso   1.00
H293   H     0.31487   0.61158   0.37107   0.00000  Uiso   1.00
H294   H     0.29628   0.59874   0.31483   0.00000  Uiso   1.00
H295   H     0.02285   0.65647   0.29547   0.00000  Uiso   1.00
H296   H     0.04729   0.61134   0.25919   0.00000  Uiso   1.00
H297   H     0.08864   0.59354   0.33112   0.00000  Uiso   1.00
H298   H     0.06957   0.64257   0.35727   0.00000  Uiso   1.00
O299   O     0.13860   0.45930   0.09474   0.00000  Uiso   1.00
C300   C     0.15628   0.41840   0.09004   0.00000  Uiso   1.00
H301   H     0.18718   0.41466   0.10724   0.00000  Uiso   1.00
H302   H     0.16748   0.40853   0.04925   0.00000  Uiso   1.00
H303   H     0.12639   0.39758   0.11133   0.00000  Uiso   1.00
O304   O     0.04357   0.47641   0.40767   0.00000  Uiso   1.00
C305   C     0.02883   0.43484   0.40758   0.00000  Uiso   1.00
H306   H     0.01224   0.42274   0.44713   0.00000  Uiso   1.00
H307   H     0.05998   0.41501   0.38690   0.00000  Uiso   1.00
H308   H     0.00025   0.43301   0.38719   0.00000  Uiso   1.00
C309   C     0.49936   0.57925   0.25214   0.00000  Uiso   1.00
C310   C     0.48304   0.48642   0.48824   0.00000  Uiso   1.00
C311   C     0.49824   0.48747   0.43371   0.00000  Uiso   1.00
C312   C     0.51857   0.49261   0.01551   0.00000  Uiso   1.00
C313   C     0.56592   0.50659   0.48843   0.00000  Uiso   1.00
C314   C     0.58158   0.50303   0.43569   0.00000  Uiso   1.00
C315   C     0.54938   0.48965   0.40964   0.00000  Uiso   1.00
C316   C     0.50937   0.48530   0.06852   0.00000  Uiso   1.00
C317   C     0.58381   0.52313   0.06798   0.00000  Uiso   1.00
C318   C     0.46200   0.48712   0.40589   0.00000  Uiso   1.00
C319   C     0.54062   0.64515   0.22653   0.00000  Uiso   1.00
C320   C     0.47471   0.49602   0.34970   0.00000  Uiso   1.00
C321   C     0.54125   0.35450   0.22547   0.00000  Uiso   1.00
C322   C     0.49958   0.37625   0.25175   0.00000  Uiso   1.00
C323   C     0.45777   0.35552   0.28067   0.00000  Uiso   1.00
C324   C     0.45708   0.64586   0.28373   0.00000  Uiso   1.00
C325   C     0.49865   0.62393   0.25470   0.00000  Uiso   1.00
C326   C     0.64872   0.52997   0.22424   0.00000  Uiso   1.00
C327   C     0.36516   0.52965   0.22368   0.00000  Uiso   1.00
C328   C     0.35137   0.46992   0.27551   0.00000  Uiso   1.00
C329   C     0.63517   0.46975   0.27520   0.00000  Uiso   1.00
C330   C     0.49997   0.42075   0.25020   0.00000  Uiso   1.00
C331   C     0.52577   0.50096   0.15057   0.00000  Uiso   1.00
C332   C     0.59763   0.52273   0.01435   0.00000  Uiso   1.00
C333   C     0.54031   0.50295   0.09479   0.00000  Uiso   1.00
C334   C     0.41269   0.47884   0.43293   0.00000  Uiso   1.00
C335   C     0.39881   0.47677   0.48628   0.00000  Uiso   1.00
C336   C     0.43273   0.48222   0.01352   0.00000  Uiso   1.00
Cu337  Cu    0.45311   0.49999   0.25000   0.00000  Uiso   1.00
Cu338  Cu    0.54689   0.50001   0.25000   0.00000  Uiso   1.00
H339   H     0.57380   0.37053   0.20320   0.00000  Uiso   1.00
H340   H     0.42625   0.37293   0.30228   0.00000  Uiso   1.00
H341   H     0.63541   0.55411   0.20391   0.00000  Uiso   1.00
H342   H     0.38960   0.55317   0.20222   0.00000  Uiso   1.00
H343   H     0.36471   0.44574   0.29572   0.00000  Uiso   1.00
H344   H     0.61123   0.44533   0.29514   0.00000  Uiso   1.00
H345   H     0.61940   0.50888   0.41465   0.00000  Uiso   1.00
H346   H     0.63177   0.53681   0.49273   0.00000  Uiso   1.00
H347   H     0.41808   0.48483   0.05446   0.00000  Uiso   1.00
H348   H     0.36065   0.47254   0.00686   0.00000  Uiso   1.00
H349   H     0.56685   0.48047   0.37118   0.00000  Uiso   1.00
H350   H     0.57272   0.62864   0.20457   0.00000  Uiso   1.00
N351   N     0.38265   0.49999   0.24998   0.00000  Uiso   1.00
N352   N     0.61735   0.50002   0.24999   0.00000  Uiso   1.00
O353   O     0.46042   0.56011   0.25000   0.00000  Uiso   1.00
O354   O     0.53961   0.56012   0.25000   0.00000  Uiso   1.00
O355   O     0.44108   0.49998   0.32549   0.00000  Uiso   1.00
O356   O     0.52027   0.49999   0.32549   0.00000  Uiso   1.00
O357   O     0.46039   0.43988   0.24999   0.00000  Uiso   1.00
O358   O     0.53958   0.43989   0.24999   0.00000  Uiso   1.00
O359   O     0.47973   0.50001   0.17451   0.00000  Uiso   1.00
O360   O     0.55892   0.50002   0.17451   0.00000  Uiso   1.00
O361   O     0.60862   0.54709   0.09463   0.00000  Uiso   1.00
C362   C     0.65727   0.53345   0.08530   0.00000  Uiso   1.00
H363   H     0.65906   0.49956   0.09193   0.00000  Uiso   1.00
H364   H     0.34625   0.54263   0.04629   0.00000  Uiso   1.00
H365   H     0.34049   0.54895   0.11253   0.00000  Uiso   1.00
C366   C     0.41314   0.62523   0.32063   0.00000  Uiso   1.00
C367   C     0.36936   0.62444   0.29835   0.00000  Uiso   1.00
C368   C     0.66075   0.59859   0.33185   0.00000  Uiso   1.00
H369   H     0.33933   0.56612   0.33432   0.00000  Uiso   1.00
H370   H     0.64821   0.61158   0.37107   0.00000  Uiso   1.00
H371   H     0.62961   0.59874   0.31483   0.00000  Uiso   1.00
H372   H     0.35618   0.65647   0.29547   0.00000  Uiso   1.00
H373   H     0.38062   0.61134   0.25919   0.00000  Uiso   1.00
H374   H     0.42197   0.59354   0.33112   0.00000  Uiso   1.00
H375   H     0.40290   0.64257   0.35727   0.00000  Uiso   1.00
O376   O     0.47193   0.45930   0.09474   0.00000  Uiso   1.00
C377   C     0.48961   0.41840   0.09004   0.00000  Uiso   1.00
H378   H     0.52052   0.41466   0.10724   0.00000  Uiso   1.00
H379   H     0.50082   0.40853   0.04925   0.00000  Uiso   1.00
H380   H     0.45972   0.39758   0.11133   0.00000  Uiso   1.00
O381   O     0.37691   0.47641   0.40767   0.00000  Uiso   1.00
C382   C     0.36216   0.43484   0.40758   0.00000  Uiso   1.00
H383   H     0.34557   0.42274   0.44713   0.00000  Uiso   1.00
H384   H     0.39331   0.41501   0.38690   0.00000  Uiso   1.00
H385   H     0.33359   0.43301   0.38719   0.00000  Uiso   1.00
C386   C     0.83270   0.57925   0.25214   0.00000  Uiso   1.00
C387   C     0.81637   0.48642   0.48824   0.00000  Uiso   1.00
C388   C     0.83157   0.48747   0.43371   0.00000  Uiso   1.00
C389   C     0.85190   0.49261   0.01551   0.00000  Uiso   1.00
C390   C     0.89925   0.50659   0.48843   0.00000  Uiso   1.00
C391   C     0.91491   0.50303   0.43569   0.00000  Uiso   1.00
C392   C     0.88271   0.48965   0.40964   0.00000  Uiso   1.00
C393   C     0.84271   0.48530   0.06852   0.00000  Uiso   1.00
C394   C     0.91715   0.52313   0.06798   0.00000  Uiso   1.00
C395   C     0.79533   0.48712   0.40589   0.00000  Uiso   1.00
C396   C     0.87395   0.64515   0.22653   0.00000  Uiso   1.00
C397   C     0.80804   0.49602   0.34970   0.00000  Uiso   1.00
C398   C     0.87458   0.35450   0.22547   0.00000  Uiso   1.00
C399   C     0.83292   0.37625   0.25175   0.00000  Uiso   1.00
C400   C     0.79111   0.35552   0.28067   0.00000  Uiso   1.00
C401   C     0.79042   0.64586   0.28373   0.00000  Uiso   1.00
C402   C     0.83199   0.62393   0.25470   0.00000  Uiso   1.00
C403   C     0.98205   0.52997   0.22424   0.00000  Uiso   1.00
C404   C     0.69850   0.52965   0.22368   0.00000  Uiso   1.00
C405   C     0.68470   0.46992   0.27551   0.00000  Uiso   1.00
C406   C     0.96850   0.46975   0.27520   0.00000  Uiso   1.00
C407   C     0.83330   0.42075   0.25020   0.00000  Uiso   1.00
C408   C     0.85910   0.50096   0.15057   0.00000  Uiso   1.00
C409   C     0.93096   0.52273   0.01435   0.00000  Uiso   1.00
C410   C     0.87364   0.50295   0.09479   0.00000  Uiso   1.00
C411   C     0.74603   0.47884   0.43293   0.00000  Uiso   1.00
C412   C     0.73215   0.47677   0.48628   0.00000  Uiso   1.00
C413   C     0.76606   0.48222   0.01352   0.00000  Uiso   1.00
Cu414  Cu    0.78645   0.49999   0.25000   0.00000  Uiso   1.00
Cu415  Cu    0.88022   0.50001   0.25000   0.00000  Uiso   1.00
H416   H     0.90713   0.37053   0.20320   0.00000  Uiso   1.00
H417   H     0.75959   0.37293   0.30228   0.00000  Uiso   1.00
H418   H     0.96874   0.55411   0.20391   0.00000  Uiso   1.00
H419   H     0.72293   0.55317   0.20222   0.00000  Uiso   1.00
H420   H     0.69804   0.44574   0.29572   0.00000  Uiso   1.00
H421   H     0.94457   0.44533   0.29514   0.00000  Uiso   1.00
H422   H     0.95273   0.50888   0.41465   0.00000  Uiso   1.00
H423   H     0.96510   0.53681   0.49273   0.00000  Uiso   1.00
H424   H     0.75141   0.48483   0.05446   0.00000  Uiso   1.00
H425   H     0.69399   0.47254   0.00686   0.00000  Uiso   1.00
H426   H     0.90018   0.48047   0.37118   0.00000  Uiso   1.00
H427   H     0.90605   0.62864   0.20457   0.00000  Uiso   1.00
N428   N     0.71598   0.49999   0.24998   0.00000  Uiso   1.00
N429   N     0.95069   0.50002   0.24999   0.00000  Uiso   1.00
O430   O     0.79375   0.56011   0.25000   0.00000  Uiso   1.00
O431   O     0.87294   0.56012   0.25000   0.00000  Uiso   1.00
O432   O     0.77441   0.49998   0.32549   0.00000  Uiso   1.00
O433   O     0.85360   0.49999   0.32549   0.00000  Uiso   1.00
O434   O     0.79373   0.43988   0.24999   0.00000  Uiso   1.00
O435   O     0.87292   0.43989   0.24999   0.00000  Uiso   1.00
O436   O     0.81306   0.50001   0.17451   0.00000  Uiso   1.00
O437   O     0.89225   0.50002   0.17451   0.00000  Uiso   1.00
O438   O     0.94195   0.54709   0.09463   0.00000  Uiso   1.00
C439   C     0.99060   0.53345   0.08530   0.00000  Uiso   1.00
H440   H     0.99240   0.49956   0.09193   0.00000  Uiso   1.00
H441   H     0.67958   0.54263   0.04629   0.00000  Uiso   1.00
H442   H     0.67382   0.54895   0.11253   0.00000  Uiso   1.00
C443   C     0.74647   0.62523   0.32063   0.00000  Uiso   1.00
C444   C     0.70269   0.62444   0.29835   0.00000  Uiso   1.00
C445   C     0.99409   0.59859   0.33185   0.00000  Uiso   1.00
H446   H     0.67266   0.56612   0.33432   0.00000  Uiso   1.00
H447   H     0.98154   0.61158   0.37107   0.00000  Uiso   1.00
H448   H     0.96295   0.59874   0.31483   0.00000  Uiso   1.00
H449   H     0.68951   0.65647   0.29547   0.00000  Uiso   1.00
H450   H     0.71395   0.61134   0.25919   0.00000  Uiso   1.00
H451   H     0.75531   0.59354   0.33112   0.00000  Uiso   1.00
H452   H     0.73624   0.64257   0.35727   0.00000  Uiso   1.00
O453   O     0.80527   0.45930   0.09474   0.00000  Uiso   1.00
C454   C     0.82294   0.41840   0.09004   0.00000  Uiso   1.00
H455   H     0.85385   0.41466   0.10724   0.00000  Uiso   1.00
H456   H     0.83415   0.40853   0.04925   0.00000  Uiso   1.00
H457   H     0.79306   0.39758   0.11133   0.00000  Uiso   1.00
O458   O     0.71024   0.47641   0.40767   0.00000  Uiso   1.00
C459   C     0.69549   0.43484   0.40758   0.00000  Uiso   1.00
H460   H     0.67891   0.42274   0.44713   0.00000  Uiso   1.00
H461   H     0.72664   0.41501   0.38690   0.00000  Uiso   1.00
H462   H     0.66692   0.43301   0.38719   0.00000  Uiso   1.00
C463   C     0.16603   0.91258   0.25214   0.00000  Uiso   1.00
C464   C     0.14970   0.81975   0.48824   0.00000  Uiso   1.00
C465   C     0.16491   0.82080   0.43371   0.00000  Uiso   1.00
C466   C     0.18523   0.82594   0.01551   0.00000  Uiso   1.00
C467   C     0.23259   0.83992   0.48843   0.00000  Uiso   1.00
C468   C     0.24824   0.83636   0.43569   0.00000  Uiso   1.00
C469   C     0.21604   0.82299   0.40964   0.00000  Uiso   1.00
C470   C     0.17604   0.81863   0.06852   0.00000  Uiso   1.00
C471   C     0.25048   0.85646   0.06798   0.00000  Uiso   1.00
C472   C     0.12866   0.82046   0.40589   0.00000  Uiso   1.00
C473   C     0.20728   0.97848   0.22653   0.00000  Uiso   1.00
C474   C     0.14138   0.82936   0.34970   0.00000  Uiso   1.00
C475   C     0.20792   0.68784   0.22547   0.00000  Uiso   1.00
C476   C     0.16625   0.70959   0.25175   0.00000  Uiso   1.00
C477   C     0.12444   0.68886   0.28067   0.00000  Uiso   1.00
C478   C     0.12375   0.97920   0.28373   0.00000  Uiso   1.00
C479   C     0.16532   0.95726   0.25470   0.00000  Uiso   1.00
C480   C     0.31538   0.86330   0.22424   0.00000  Uiso   1.00
C481   C     0.03183   0.86298   0.22368   0.00000  Uiso   1.00
C482   C     0.01803   0.80325   0.27551   0.00000  Uiso   1.00
C483   C     0.30184   0.80309   0.27520   0.00000  Uiso   1.00
C484   C     0.16663   0.75408   0.25020   0.00000  Uiso   1.00
C485   C     0.19243   0.83429   0.15057   0.00000  Uiso   1.00
C486   C     0.26430   0.85607   0.01435   0.00000  Uiso   1.00
C487   C     0.20697   0.83628   0.09479   0.00000  Uiso   1.00
C488   C     0.07936   0.81217   0.43293   0.00000  Uiso   1.00
C489   C     0.06548   0.81011   0.48628   0.00000  Uiso   1.00
C490   C     0.09940   0.81556   0.01352   0.00000  Uiso   1.00
Cu491  Cu    0.11978   0.83333   0.25000   0.00000  Uiso   1.00
Cu492  Cu    0.21355   0.83334   0.25000   0.00000  Uiso   1.00
H493   H     0.24046   0.70387   0.20320   0.00000  Uiso   1.00
H494   H     0.09292   0.70627   0.30228   0.00000  Uiso   1.00
H495   H     0.30208   0.88744   0.20391   0.00000  Uiso   1.00
H496   H     0.05626   0.88650   0.20222   0.00000  Uiso   1.00
H497   H     0.03138   0.77908   0.29572   0.00000  Uiso   1.00
H498   H     0.27790   0.77867   0.29514   0.00000  Uiso   1.00
H499   H     0.28607   0.84221   0.41465   0.00000  Uiso   1.00
H500   H     0.29844   0.87014   0.49273   0.00000  Uiso   1.00
H501   H     0.08475   0.81816   0.05446   0.00000  Uiso   1.00
H502   H     0.02732   0.80587   0.00686   0.00000  Uiso   1.00
H503   H     0.23352   0.81381   0.37118   0.00000  Uiso   1.00
H504   H     0.23938   0.96197   0.20457   0.00000  Uiso   1.00
N505   N     0.04931   0.83332   0.24998   0.00000  Uiso   1.00
N506   N     0.28402   0.83335   0.24999   0.00000  Uiso   1.00
O507   O     0.12708   0.89345   0.25000   0.00000  Uiso   1.00
O508   O     0.20627   0.89346   0.25000   0.00000  Uiso   1.00
O509   O     0.10775   0.83332   0.32549   0.00000  Uiso   1.00
O510   O     0.18694   0.83333   0.32549   0.00000  Uiso   1.00
O511   O     0.12706   0.77321   0.24999   0.00000  Uiso   1.00
O512   O     0.20625   0.77322   0.24999   0.00000  Uiso   1.00
O513   O     0.14640   0.83334   0.17451   0.00000  Uiso   1.00
O514   O     0.22559   0.83335   0.17451   0.00000  Uiso   1.00
O515   O     0.27529   0.88042   0.09463   0.00000  Uiso   1.00
C516   C     0.32394   0.86678   0.08530   0.00000  Uiso   1.00
H517   H     0.32573   0.83289   0.09193   0.00000  Uiso   1.00
H518   H     0.01292   0.87597   0.04629   0.00000  Uiso   1.00
H519   H     0.00715   0.88228   0.11253   0.00000  Uiso   1.00
C520   C     0.07981   0.95857   0.32063   0.00000  Uiso   1.00
C521   C     0.03602   0.95777   0.29835   0.00000  Uiso   1.00
C522   C     0.32742   0.93192   0.33185   0.00000  Uiso   1.00
H523   H     0.00600   0.89945   0.33432   0.00000  Uiso   1.00
H524   H     0.31487   0.94491   0.37107   0.00000  Uiso   1.00
H525   H     0.29628   0.93207   0.31483   0.00000  Uiso   1.00
H526   H     0.02285   0.98981   0.29547   0.00000  Uiso   1.00
H527   H     0.04729   0.94468   0.25919   0.00000  Uiso   1.00
H528   H     0.08864   0.92688   0.33112   0.00000  Uiso   1.00
H529   H     0.06957   0.97590   0.35727   0.00000  Uiso   1.00
O530   O     0.13860   0.79263   0.09474   0.00000  Uiso   1.00
C531   C     0.15628   0.75173   0.09004   0.00000  Uiso   1.00
H532   H     0.18718   0.74799   0.10724   0.00000  Uiso   1.00
H533   H     0.16748   0.74186   0.04925   0.00000  Uiso   1.00
H534   H     0.12639   0.73092   0.11133   0.00000  Uiso   1.00
O535   O     0.04357   0.80974   0.40767   0.00000  Uiso   1.00
C536   C     0.02883   0.76817   0.40758   0.00000  Uiso   1.00
H537   H     0.01224   0.75607   0.44713   0.00000  Uiso   1.00
H538   H     0.05998   0.74834   0.38690   0.00000  Uiso   1.00
H539   H     0.00025   0.76634   0.38719   0.00000  Uiso   1.00
C540   C     0.49936   0.91258   0.25214   0.00000  Uiso   1.00
C541   C     0.48304   0.81975   0.48824   0.00000  Uiso   1.00
C542   C     0.49824   0.82080   0.43371   0.00000  Uiso   1.00
C543   C     0.51857   0.82594   0.01551   0.00000  Uiso   1.00
C544   C     0.56592   0.83992   0.48843   0.00000  Uiso   1.00
C545   C     0.58158   0.83636   0.43569   0.00000  Uiso   1.00
C546   C     0.54938   0.82299   0.40964   0.00000  Uiso   1.00
C547   C     0.50937   0.81863   0.06852   0.00000  Uiso   1.00
C548   C     0.58381   0.85646   0.06798   0.00000  Uiso   1.00
C549   C     0.46200   0.82046   0.40589   0.00000  Uiso   1.00
C550   C     0.54062   0.97848   0.22653   0.00000  Uiso   1.00
C551   C     0.47471   0.82936   0.34970   0.00000  Uiso   1.00
C552   C     0.54125   0.68784   0.22547   0.00000  Uiso   1.00
C553   C     0.49958   0.70959   0.25175   0.00000  Uiso   1.00
C554   C     0.45777   0.68886   0.28067   0.00000  Uiso   1.00
C555   C     0.45708   0.97920   0.28373   0.00000  Uiso   1.00
C556   C     0.49865   0.95726   0.25470   0.00000  Uiso   1.00
C557   C     0.64872   0.86330   0.22424   0.00000  Uiso   1.00
C558   C     0.36516   0.86298   0.22368   0.00000  Uiso   1.00
C559   C     0.35137   0.80325   0.27551   0.00000  Uiso   1.00
C560   C     0.63517   0.80309   0.27520   0.00000  Uiso   1.00
C561   C     0.49997   0.75408   0.25020   0.00000  Uiso   1.00
C562   C     0.52577   0.83429   0.15057   0.00000  Uiso   1.00
C563   C     0.59763   0.85607   0.01435   0.00000  Uiso   1.00
C564   C     0.54031   0.83628   0.09479   0.00000  Uiso   1.00
C565   C     0.41269   0.81217   0.43293   0.00000  Uiso   1.00
C566   C     0.39881   0.81011   0.48628   0.00000  Uiso   1.00
C567   C     0.43273   0.81556   0.01352   0.00000  Uiso   1.00
Cu568  Cu    0.45311   0.83333   0.25000   0.00000  Uiso   1.00
Cu569  Cu    0.54689   0.83334   0.25000   0.00000  Uiso   1.00
H570   H     0.57380   0.70387   0.20320   0.00000  Uiso   1.00
H571   H     0.42625   0.70627   0.30228   0.00000  Uiso   1.00
H572   H     0.63541   0.88744   0.20391   0.00000  Uiso   1.00
H573   H     0.38960   0.88650   0.20222   0.00000  Uiso   1.00
H574   H     0.36471   0.77908   0.29572   0.00000  Uiso   1.00
H575   H     0.61123   0.77867   0.29514   0.00000  Uiso   1.00
H576   H     0.61940   0.84221   0.41465   0.00000  Uiso   1.00
H577   H     0.63177   0.87014   0.49273   0.00000  Uiso   1.00
H578   H     0.41808   0.81816   0.05446   0.00000  Uiso   1.00
H579   H     0.36065   0.80587   0.00686   0.00000  Uiso   1.00
H580   H     0.56685   0.81381   0.37118   0.00000  Uiso   1.00
H581   H     0.57272   0.96197   0.20457   0.00000  Uiso   1.00
N582   N     0.38265   0.83332   0.24998   0.00000  Uiso   1.00
N583   N     0.61735   0.83335   0.24999   0.00000  Uiso   1.00
O584   O     0.46042   0.89345   0.25000   0.00000  Uiso   1.00
O585   O     0.53961   0.89346   0.25000   0.00000  Uiso   1.00
O586   O     0.44108   0.83332   0.32549   0.00000  Uiso   1.00
O587   O     0.52027   0.83333   0.32549   0.00000  Uiso   1.00
O588   O     0.46039   0.77321   0.24999   0.00000  Uiso   1.00
O589   O     0.53958   0.77322   0.24999   0.00000  Uiso   1.00
O590   O     0.47973   0.83334   0.17451   0.00000  Uiso   1.00
O591   O     0.55892   0.83335   0.17451   0.00000  Uiso   1.00
O592   O     0.60862   0.88042   0.09463   0.00000  Uiso   1.00
C593   C     0.65727   0.86678   0.08530   0.00000  Uiso   1.00
H594   H     0.65906   0.83289   0.09193   0.00000  Uiso   1.00
H595   H     0.34625   0.87597   0.04629   0.00000  Uiso   1.00
H596   H     0.34049   0.88228   0.11253   0.00000  Uiso   1.00
C597   C     0.41314   0.95857   0.32063   0.00000  Uiso   1.00
C598   C     0.36936   0.95777   0.29835   0.00000  Uiso   1.00
C599   C     0.66075   0.93192   0.33185   0.00000  Uiso   1.00
H600   H     0.33933   0.89945   0.33432   0.00000  Uiso   1.00
H601   H     0.64821   0.94491   0.37107   0.00000  Uiso   1.00
H602   H     0.62961   0.93207   0.31483   0.00000  Uiso   1.00
H603   H     0.35618   0.98981   0.29547   0.00000  Uiso   1.00
H604   H     0.38062   0.94468   0.25919   0.00000  Uiso   1.00
H605   H     0.42197   0.92688   0.33112   0.00000  Uiso   1.00
H606   H     0.40290   0.97590   0.35727   0.00000  Uiso   1.00
O607   O     0.47193   0.79263   0.09474   0.00000  Uiso   1.00
C608   C     0.48961   0.75173   0.09004   0.00000  Uiso   1.00
H609   H     0.52052   0.74799   0.10724   0.00000  Uiso   1.00
H610   H     0.50082   0.74186   0.04925   0.00000  Uiso   1.00
H611   H     0.45972   0.73092   0.11133   0.00000  Uiso   1.00
O612   O     0.37691   0.80974   0.40767   0.00000  Uiso   1.00
C613   C     0.36216   0.76817   0.40758   0.00000  Uiso   1.00
H614   H     0.34557   0.75607   0.44713   0.00000  Uiso   1.00
H615   H     0.39331   0.74834   0.38690   0.00000  Uiso   1.00
H616   H     0.33359   0.76634   0.38719   0.00000  Uiso   1.00
C617   C     0.83270   0.91258   0.25214   0.00000  Uiso   1.00
C618   C     0.81637   0.81975   0.48824   0.00000  Uiso   1.00
C619   C     0.83157   0.82080   0.43371   0.00000  Uiso   1.00
C620   C     0.85190   0.82594   0.01551   0.00000  Uiso   1.00
C621   C     0.89925   0.83992   0.48843   0.00000  Uiso   1.00
C622   C     0.91491   0.83636   0.43569   0.00000  Uiso   1.00
C623   C     0.88271   0.82299   0.40964   0.00000  Uiso   1.00
C624   C     0.84271   0.81863   0.06852   0.00000  Uiso   1.00
C625   C     0.91715   0.85646   0.06798   0.00000  Uiso   1.00
C626   C     0.79533   0.82046   0.40589   0.00000  Uiso   1.00
C627   C     0.87395   0.97848   0.22653   0.00000  Uiso   1.00
C628   C     0.80804   0.82936   0.34970   0.00000  Uiso   1.00
C629   C     0.87458   0.68784   0.22547   0.00000  Uiso   1.00
C630   C     0.83292   0.70959   0.25175   0.00000  Uiso   1.00
C631   C     0.79111   0.68886   0.28067   0.00000  Uiso   1.00
C632   C     0.79042   0.97920   0.28373   0.00000  Uiso   1.00
C633   C     0.83199   0.95726   0.25470   0.00000  Uiso   1.00
C634   C     0.98205   0.86330   0.22424   0.00000  Uiso   1.00
C635   C     0.69850   0.86298   0.22368   0.00000  Uiso   1.00
C636   C     0.68470   0.80325   0.27551   0.00000  Uiso   1.00
C637   C     0.96850   0.80309   0.27520   0.00000  Uiso   1.00
C638   C     0.83330   0.75408   0.25020   0.00000  Uiso   1.00
C639   C     0.85910   0.83429   0.15057   0.00000  Uiso   1.00
C640   C     0.93096   0.85607   0.01435   0.00000  Uiso   1.00
C641   C     0.87364   0.83628   0.09479   0.00000  Uiso   1.00
C642   C     0.74603   0.81217   0.43293   0.00000  Uiso   1.00
C643   C     0.73215   0.81011   0.48628   0.00000  Uiso   1.00
C644   C     0.76606   0.81556   0.01352   0.00000  Uiso   1.00
Cu645  Cu    0.78645   0.83333   0.25000   0.00000  Uiso   1.00
Cu646  Cu    0.88022   0.83334   0.25000   0.00000  Uiso   1.00
H647   H     0.90713   0.70387   0.20320   0.00000  Uiso   1.00
H648   H     0.75959   0.70627   0.30228   0.00000  Uiso   1.00
H649   H     0.96874   0.88744   0.20391   0.00000  Uiso   1.00
H650   H     0.72293   0.88650   0.20222   0.00000  Uiso   1.00
H651   H     0.69804   0.77908   0.29572   0.00000  Uiso   1.00
H652   H     0.94457   0.77867   0.29514   0.00000  Uiso   1.00
H653   H     0.95273   0.84221   0.41465   0.00000  Uiso   1.00
H654   H     0.96510   0.87014   0.49273   0.00000  Uiso   1.00
H655   H     0.75141   0.81816   0.05446   0.00000  Uiso   1.00
H656   H     0.69399   0.80587   0.00686   0.00000  Uiso   1.00
H657   H     0.90018   0.81381   0.37118   0.00000  Uiso   1.00
H658   H     0.90605   0.96197   0.20457   0.00000  Uiso   1.00
N659   N     0.71598   0.83332   0.24998   0.00000  Uiso   1.00
N660   N     0.95069   0.83335   0.24999   0.00000  Uiso   1.00
O661   O     0.79375   0.89345   0.25000   0.00000  Uiso   1.00
O662   O     0.87294   0.89346   0.25000   0.00000  Uiso   1.00
O663   O     0.77441   0.83332   0.32549   0.00000  Uiso   1.00
O664   O     0.85360   0.83333   0.32549   0.00000  Uiso   1.00
O665   O     0.79373   0.77321   0.24999   0.00000  Uiso   1.00
O666   O     0.87292   0.77322   0.24999   0.00000  Uiso   1.00
O667   O     0.81306   0.83334   0.17451   0.00000  Uiso   1.00
O668   O     0.89225   0.83335   0.17451   0.00000  Uiso   1.00
O669   O     0.94195   0.88042   0.09463   0.00000  Uiso   1.00
C670   C     0.99060   0.86678   0.08530   0.00000  Uiso   1.00
H671   H     0.99240   0.83289   0.09193   0.00000  Uiso   1.00
H672   H     0.67958   0.87597   0.04629   0.00000  Uiso   1.00
H673   H     0.67382   0.88228   0.11253   0.00000  Uiso   1.00
C674   C     0.74647   0.95857   0.32063   0.00000  Uiso   1.00
C675   C     0.70269   0.95777   0.29835   0.00000  Uiso   1.00
C676   C     0.99409   0.93192   0.33185   0.00000  Uiso   1.00
H677   H     0.67266   0.89945   0.33432   0.00000  Uiso   1.00
H678   H     0.98154   0.94491   0.37107   0.00000  Uiso   1.00
H679   H     0.96295   0.93207   0.31483   0.00000  Uiso   1.00
H680   H     0.68951   0.98981   0.29547   0.00000  Uiso   1.00
H681   H     0.71395   0.94468   0.25919   0.00000  Uiso   1.00
H682   H     0.75531   0.92688   0.33112   0.00000  Uiso   1.00
H683   H     0.73624   0.97590   0.35727   0.00000  Uiso   1.00
O684   O     0.80527   0.79263   0.09474   0.00000  Uiso   1.00
C685   C     0.82294   0.75173   0.09004   0.00000  Uiso   1.00
H686   H     0.85385   0.74799   0.10724   0.00000  Uiso   1.00
H687   H     0.83415   0.74186   0.04925   0.00000  Uiso   1.00
H688   H     0.79306   0.73092   0.11133   0.00000  Uiso   1.00
O689   O     0.71024   0.80974   0.40767   0.00000  Uiso   1.00
C690   C     0.69549   0.76817   0.40758   0.00000  Uiso   1.00
H691   H     0.67891   0.75607   0.44713   0.00000  Uiso   1.00
H692   H     0.72664   0.74834   0.38690   0.00000  Uiso   1.00
H693   H     0.66692   0.76634   0.38719   0.00000  Uiso   1.00
C694   C     0.16603   0.24592   0.75214   0.00000  Uiso   1.00
C695   C     0.14970   0.15309   0.98824   0.00000  Uiso   1.00
C696   C     0.16491   0.15414   0.93371   0.00000  Uiso   1.00
C697   C     0.18523   0.15927   0.51551   0.00000  Uiso   1.00
C698   C     0.23259   0.17326   0.98843   0.00000  Uiso   1.00
C699   C     0.24824   0.16969   0.93569   0.00000  Uiso   1.00
C700   C     0.21604   0.15632   0.90964   0.00000  Uiso   1.00
C701   C     0.17604   0.15196   0.56852   0.00000  Uiso   1.00
C702   C     0.25048   0.18980   0.56798   0.00000  Uiso   1.00
C703   C     0.12866   0.15379   0.90589   0.00000  Uiso   1.00
C704   C     0.20728   0.31182   0.72653   0.00000  Uiso   1.00
C705   C     0.14138   0.16269   0.84970   0.00000  Uiso   1.00
C706   C     0.20792   0.02117   0.72547   0.00000  Uiso   1.00
C707   C     0.16625   0.04292   0.75175   0.00000  Uiso   1.00
C708   C     0.12444   0.02219   0.78067   0.00000  Uiso   1.00
C709   C     0.12375   0.31253   0.78373   0.00000  Uiso   1.00
C710   C     0.16532   0.29060   0.75470   0.00000  Uiso   1.00
C711   C     0.31538   0.19664   0.72424   0.00000  Uiso   1.00
C712   C     0.03183   0.19631   0.72368   0.00000  Uiso   1.00
C713   C     0.01803   0.13659   0.77551   0.00000  Uiso   1.00
C714   C     0.30184   0.13642   0.77520   0.00000  Uiso   1.00
C715   C     0.16663   0.08741   0.75020   0.00000  Uiso   1.00
C716   C     0.19243   0.16763   0.65057   0.00000  Uiso   1.00
C717   C     0.26430   0.18940   0.51435   0.00000  Uiso   1.00
C718   C     0.20697   0.16962   0.59479   0.00000  Uiso   1.00
C719   C     0.07936   0.14551   0.93293   0.00000  Uiso   1.00
C720   C     0.06548   0.14344   0.98628   0.00000  Uiso   1.00
C721   C     0.09940   0.14889   0.51352   0.00000  Uiso   1.00
Cu722  Cu    0.11978   0.16666   0.75000   0.00000  Uiso   1.00
Cu723  Cu    0.21355   0.16667   0.75000   0.00000  Uiso   1.00
H724   H     0.24046   0.03720   0.70320   0.00000  Uiso   1.00
H725   H     0.09292   0.03960   0.80228   0.00000  Uiso   1.00
H726   H     0.30208   0.22078   0.70391   0.00000  Uiso   1.00
H727   H     0.05626   0.21984   0.70222   0.00000  Uiso   1.00
H728   H     0.03138   0.11241   0.79572   0.00000  Uiso   1.00
H729   H     0.27790   0.11200   0.79514   0.00000  Uiso   1.00
H730   H     0.28607   0.17554   0.91465   0.00000  Uiso   1.00
H731   H     0.29844   0.20348   0.99273   0.00000  Uiso   1.00
H732   H     0.08475   0.15150   0.55446   0.00000  Uiso   1.00
H733   H     0.02732   0.13920   0.50686   0.00000  Uiso   1.00
H734   H     0.23352   0.14714   0.87118   0.00000  Uiso   1.00
H735   H     0.23938   0.29530   0.70457   0.00000  Uiso   1.00
N736   N     0.04931   0.16666   0.74998   0.00000  Uiso   1.00
N737   N     0.28402   0.16669   0.74999   0.00000  Uiso   1.00
O738   O     0.12708   0.22678   0.75000   0.00000  Uiso   1.00
O739   O     0.20627   0.22679   0.75000   0.00000  Uiso   1.00
O740   O     0.10775   0.16665   0.82549   0.00000  Uiso   1.00
O741   O     0.18694   0.16666   0.82549   0.00000  Uiso   1.00
O742   O     0.12706   0.10654   0.74999   0.00000  Uiso   1.00
O743   O     0.20625   0.10655   0.74999   0.00000  Uiso   1.00
O744   O     0.14640   0.16667   0.67451   0.00000  Uiso   1.00
O745   O     0.22559   0.16668   0.67451   0.00000  Uiso   1.00
O746   O     0.27529   0.21376   0.59463   0.00000  Uiso   1.00
C747   C     0.32394   0.20011   0.58530   0.00000  Uiso   1.00
H748   H     0.32573   0.16622   0.59193   0.00000  Uiso   1.00
H749   H     0.01292   0.20930   0.54629   0.00000  Uiso   1.00
H750   H     0.00715   0.21562   0.61253   0.00000  Uiso   1.00
C751   C     0.07981   0.29190   0.82063   0.00000  Uiso   1.00
C752   C     0.03602   0.29111   0.79835   0.00000  Uiso   1.00
C753   C     0.32742   0.26526   0.83185   0.00000  Uiso   1.00
H754   H     0.00600   0.23278   0.83432   0.00000  Uiso   1.00
H755   H     0.31487   0.27825   0.87107   0.00000  Uiso   1.00
H756   H     0.29628   0.26541   0.81483   0.00000  Uiso   1.00
H757   H     0.02285   0.32314   0.79547   0.00000  Uiso   1.00
H758   H     0.04729   0.27801   0.75919   0.00000  Uiso   1.00
H759   H     0.08864   0.26021   0.83112   0.00000  Uiso   1.00
H760   H     0.06957   0.30923   0.85727   0.00000  Uiso   1.00
O761   O     0.13860   0.12597   0.59474   0.00000  Uiso   1.00
C762   C     0.15628   0.08507   0.59004   0.00000  Uiso   1.00
H763   H     0.18718   0.08132   0.60724   0.00000  Uiso   1.00
H764   H     0.16748   0.07520   0.54925   0.00000  Uiso   1.00
H765   H     0.12639   0.06425   0.61133   0.00000  Uiso   1.00
O766   O     0.04357   0.14307   0.90767   0.00000  Uiso   1.00
C767   C     0.02883   0.10150   0.90758   0.00000  Uiso   1.00
H768   H     0.01224   0.08940   0.94713   0.00000  Uiso   1.00
H769   H     0.05998   0.08167   0.88690   0.00000  Uiso   1.00
H770   H     0.00025   0.09967   0.88719   0.00000  Uiso   1.00
C771   C     0.49936   0.24592   0.75214   0.00000  Uiso   1.00
C772   C     0.48304   0.15309   0.98824   0.00000  Uiso   1.00
C773   C     0.49824   0.15414   0.93371   0.00000  Uiso   1.00
C774   C     0.51857   0.15927   0.51551   0.00000  Uiso   1.00
C775   C     0.56592   0.17326   0.98843   0.00000  Uiso   1.00
C776   C     0.58158   0.16969   0.93569   0.00000  Uiso   1.00
C777   C     0.54938   0.15632   0.90964   0.00000  Uiso   1.00
C778   C     0.50937   0.15196   0.56852   0.00000  Uiso   1.00
C779   C     0.58381   0.18980   0.56798   0.00000  Uiso   1.00
C780   C     0.46200   0.15379   0.90589   0.00000  Uiso   1.00
C781   C     0.54062   0.31182   0.72653   0.00000  Uiso   1.00
C782   C     0.47471   0.16269   0.84970   0.00000  Uiso   1.00
C783   C     0.54125   0.02117   0.72547   0.00000  Uiso   1.00
C784   C     0.49958   0.04292   0.75175   0.00000  Uiso   1.00
C785   C     0.45777   0.02219   0.78067   0.00000  Uiso   1.00
C786   C     0.45708   0.31253   0.78373   0.00000  Uiso   1.00
C787   C     0.49865   0.29060   0.75470   0.00000  Uiso   1.00
C788   C     0.64872   0.19664   0.72424   0.00000  Uiso   1.00
C789   C     0.36516   0.19631   0.72368   0.00000  Uiso   1.00
C790   C     0.35137   0.13659   0.77551   0.00000  Uiso   1.00
C791   C     0.63517   0.13642   0.77520   0.00000  Uiso   1.00
C792   C     0.49997   0.08741   0.75020   0.00000  Uiso   1.00
C793   C     0.52577   0.16763   0.65057   0.00000  Uiso   1.00
C794   C     0.59763   0.18940   0.51435   0.00000  Uiso   1.00
C795   C     0.54031   0.16962   0.59479   0.00000  Uiso   1.00
C796   C     0.41269   0.14551   0.93293   0.00000  Uiso   1.00
C797   C     0.39881   0.14344   0.98628   0.00000  Uiso   1.00
C798   C     0.43273   0.14889   0.51352   0.00000  Uiso   1.00
Cu799  Cu    0.45311   0.16666   0.75000   0.00000  Uiso   1.00
Cu800  Cu    0.54689   0.16667   0.75000   0.00000  Uiso   1.00
H801   H     0.57380   0.03720   0.70320   0.00000  Uiso   1.00
H802   H     0.42625   0.03960   0.80228   0.00000  Uiso   1.00
H803   H     0.63541   0.22078   0.70391   0.00000  Uiso   1.00
H804   H     0.38960   0.21984   0.70222   0.00000  Uiso   1.00
H805   H     0.36471   0.11241   0.79572   0.00000  Uiso   1.00
H806   H     0.61123   0.11200   0.79514   0.00000  Uiso   1.00
H807   H     0.61940   0.17554   0.91465   0.00000  Uiso   1.00
H808   H     0.63177   0.20348   0.99273   0.00000  Uiso   1.00
H809   H     0.41808   0.15150   0.55446   0.00000  Uiso   1.00
H810   H     0.36065   0.13920   0.50686   0.00000  Uiso   1.00
H811   H     0.56685   0.14714   0.87118   0.00000  Uiso   1.00
H812   H     0.57272   0.29530   0.70457   0.00000  Uiso   1.00
N813   N     0.38265   0.16666   0.74998   0.00000  Uiso   1.00
N814   N     0.61735   0.16669   0.74999   0.00000  Uiso   1.00
O815   O     0.46042   0.22678   0.75000   0.00000  Uiso   1.00
O816   O     0.53961   0.22679   0.75000   0.00000  Uiso   1.00
O817   O     0.44108   0.16665   0.82549   0.00000  Uiso   1.00
O818   O     0.52027   0.16666   0.82549   0.00000  Uiso   1.00
O819   O     0.46039   0.10654   0.74999   0.00000  Uiso   1.00
O820   O     0.53958   0.10655   0.74999   0.00000  Uiso   1.00
O821   O     0.47973   0.16667   0.67451   0.00000  Uiso   1.00
O822   O     0.55892   0.16668   0.67451   0.00000  Uiso   1.00
O823   O     0.60862   0.21376   0.59463   0.00000  Uiso   1.00
C824   C     0.65727   0.20011   0.58530   0.00000  Uiso   1.00
H825   H     0.65906   0.16622   0.59193   0.00000  Uiso   1.00
H826   H     0.34625   0.20930   0.54629   0.00000  Uiso   1.00
H827   H     0.34049   0.21562   0.61253   0.00000  Uiso   1.00
C828   C     0.41314   0.29190   0.82063   0.00000  Uiso   1.00
C829   C     0.36936   0.29111   0.79835   0.00000  Uiso   1.00
C830   C     0.66075   0.26526   0.83185   0.00000  Uiso   1.00
H831   H     0.33933   0.23278   0.83432   0.00000  Uiso   1.00
H832   H     0.64821   0.27825   0.87107   0.00000  Uiso   1.00
H833   H     0.62961   0.26541   0.81483   0.00000  Uiso   1.00
H834   H     0.35618   0.32314   0.79547   0.00000  Uiso   1.00
H835   H     0.38062   0.27801   0.75919   0.00000  Uiso   1.00
H836   H     0.42197   0.26021   0.83112   0.00000  Uiso   1.00
H837   H     0.40290   0.30923   0.85727   0.00000  Uiso   1.00
O838   O     0.47193   0.12597   0.59474   0.00000  Uiso   1.00
C839   C     0.48961   0.08507   0.59004   0.00000  Uiso   1.00
H840   H     0.52052   0.08132   0.60724   0.00000  Uiso   1.00
H841   H     0.50082   0.07520   0.54925   0.00000  Uiso   1.00
H842   H     0.45972   0.06425   0.61133   0.00000  Uiso   1.00
O843   O     0.37691   0.14307   0.90767   0.00000  Uiso   1.00
C844   C     0.36216   0.10150   0.90758   0.00000  Uiso   1.00
H845   H     0.34557   0.08940   0.94713   0.00000  Uiso   1.00
H846   H     0.39331   0.08167   0.88690   0.00000  Uiso   1.00
H847   H     0.33359   0.09967   0.88719   0.00000  Uiso   1.00
C848   C     0.83270   0.24592   0.75214   0.00000  Uiso   1.00
C849   C     0.81637   0.15309   0.98824   0.00000  Uiso   1.00
C850   C     0.83157   0.15414   0.93371   0.00000  Uiso   1.00
C851   C     0.85190   0.15927   0.51551   0.00000  Uiso   1.00
C852   C     0.89925   0.17326   0.98843   0.00000  Uiso   1.00
C853   C     0.91491   0.16969   0.93569   0.00000  Uiso   1.00
C854   C     0.88271   0.15632   0.90964   0.00000  Uiso   1.00
C855   C     0.84271   0.15196   0.56852   0.00000  Uiso   1.00
C856   C     0.91715   0.18980   0.56798   0.00000  Uiso   1.00
C857   C     0.79533   0.15379   0.90589   0.00000  Uiso   1.00
C858   C     0.87395   0.31182   0.72653   0.00000  Uiso   1.00
C859   C     0.80804   0.16269   0.84970   0.00000  Uiso   1.00
C860   C     0.87458   0.02117   0.72547   0.00000  Uiso   1.00
C861   C     0.83292   0.04292   0.75175   0.00000  Uiso   1.00
C862   C     0.79111   0.02219   0.78067   0.00000  Uiso   1.00
C863   C     0.79042   0.31253   0.78373   0.00000  Uiso   1.00
C864   C     0.83199   0.29060   0.75470   0.00000  Uiso   1.00
C865   C     0.98205   0.19664   0.72424   0.00000  Uiso   1.00
C866   C     0.69850   0.19631   0.72368   0.00000  Uiso   1.00
C867   C     0.68470   0.13659   0.77551   0.00000  Uiso   1.00
C868   C     0.96850   0.13642   0.77520   0.00000  Uiso   1.00
C869   C     0.83330   0.08741   0.75020   0.00000  Uiso   1.00
C870   C     0.85910   0.16763   0.65057   0.00000  Uiso   1.00
C871   C     0.93096   0.18940   0.51435   0.00000  Uiso   1.00
C872   C     0.87364   0.16962   0.59479   0.00000  Uiso   1.00
C873   C     0.74603   0.14551   0.93293   0.00000  Uiso   1.00
C874   C     0.73215   0.14344   0.98628   0.00000  Uiso   1.00
C875   C     0.76606   0.14889   0.51352   0.00000  Uiso   1.00
Cu876  Cu    0.78645   0.16666   0.75000   0.00000  Uiso   1.00
Cu877  Cu    0.88022   0.16667   0.75000   0.00000  Uiso   1.00
H878   H     0.90713   0.03720   0.70320   0.00000  Uiso   1.00
H879   H     0.75959   0.03960   0.80228   0.00000  Uiso   1.00
H880   H     0.96874   0.22078   0.70391   0.00000  Uiso   1.00
H881   H     0.72293   0.21984   0.70222   0.00000  Uiso   1.00
H882   H     0.69804   0.11241   0.79572   0.00000  Uiso   1.00
H883   H     0.94457   0.11200   0.79514   0.00000  Uiso   1.00
H884   H     0.95273   0.17554   0.91465   0.00000  Uiso   1.00
H885   H     0.96510   0.20348   0.99273   0.00000  Uiso   1.00
H886   H     0.75141   0.15150   0.55446   0.00000  Uiso   1.00
H887   H     0.69399   0.13920   0.50686   0.00000  Uiso   1.00
H888   H     0.90018   0.14714   0.87118   0.00000  Uiso   1.00
H889   H     0.90605   0.29530   0.70457   0.00000  Uiso   1.00
N890   N     0.71598   0.16666   0.74998   0.00000  Uiso   1.00
N891   N     0.95069   0.16669   0.74999   0.00000  Uiso   1.00
O892   O     0.79375   0.22678   0.75000   0.00000  Uiso   1.00
O893   O     0.87294   0.22679   0.75000   0.00000  Uiso   1.00
O894   O     0.77441   0.16665   0.82549   0.00000  Uiso   1.00
O895   O     0.85360   0.16666   0.82549   0.00000  Uiso   1.00
O896   O     0.79373   0.10654   0.74999   0.00000  Uiso   1.00
O897   O     0.87292   0.10655   0.74999   0.00000  Uiso   1.00
O898   O     0.81306   0.16667   0.67451   0.00000  Uiso   1.00
O899   O     0.89225   0.16668   0.67451   0.00000  Uiso   1.00
O900   O     0.94195   0.21376   0.59463   0.00000  Uiso   1.00
C901   C     0.99060   0.20011   0.58530   0.00000  Uiso   1.00
H902   H     0.99240   0.16622   0.59193   0.00000  Uiso   1.00
H903   H     0.67958   0.20930   0.54629   0.00000  Uiso   1.00
H904   H     0.67382   0.21562   0.61253   0.00000  Uiso   1.00
C905   C     0.74647   0.29190   0.82063   0.00000  Uiso   1.00
C906   C     0.70269   0.29111   0.79835   0.00000  Uiso   1.00
C907   C     0.99409   0.26526   0.83185   0.00000  Uiso   1.00
H908   H     0.67266   0.23278   0.83432   0.00000  Uiso   1.00
H909   H     0.98154   0.27825   0.87107   0.00000  Uiso   1.00
H910   H     0.96295   0.26541   0.81483   0.00000  Uiso   1.00
H911   H     0.68951   0.32314   0.79547   0.00000  Uiso   1.00
H912   H     0.71395   0.27801   0.75919   0.00000  Uiso   1.00
H913   H     0.75531   0.26021   0.83112   0.00000  Uiso   1.00
H914   H     0.73624   0.30923   0.85727   0.00000  Uiso   1.00
O915   O     0.80527   0.12597   0.59474   0.00000  Uiso   1.00
C916   C     0.82294   0.08507   0.59004   0.00000  Uiso   1.00
H917   H     0.85385   0.08132   0.60724   0.00000  Uiso   1.00
H918   H     0.83415   0.07520   0.54925   0.00000  Uiso   1.00
H919   H     0.79306   0.06425   0.61133   0.00000  Uiso   1.00
O920   O     0.71024   0.14307   0.90767   0.00000  Uiso   1.00
C921   C     0.69549   0.10150   0.90758   0.00000  Uiso   1.00
H922   H     0.67891   0.08940   0.94713   0.00000  Uiso   1.00
H923   H     0.72664   0.08167   0.88690   0.00000  Uiso   1.00
H924   H     0.66692   0.09967   0.88719   0.00000  Uiso   1.00
C925   C     0.16603   0.57925   0.75214   0.00000  Uiso   1.00
C926   C     0.14970   0.48642   0.98824   0.00000  Uiso   1.00
C927   C     0.16491   0.48747   0.93371   0.00000  Uiso   1.00
C928   C     0.18523   0.49261   0.51551   0.00000  Uiso   1.00
C929   C     0.23259   0.50659   0.98843   0.00000  Uiso   1.00
C930   C     0.24824   0.50303   0.93569   0.00000  Uiso   1.00
C931   C     0.21604   0.48965   0.90964   0.00000  Uiso   1.00
C932   C     0.17604   0.48530   0.56852   0.00000  Uiso   1.00
C933   C     0.25048   0.52313   0.56798   0.00000  Uiso   1.00
C934   C     0.12866   0.48712   0.90589   0.00000  Uiso   1.00
C935   C     0.20728   0.64515   0.72653   0.00000  Uiso   1.00
C936   C     0.14138   0.49602   0.84970   0.00000  Uiso   1.00
C937   C     0.20792   0.35450   0.72547   0.00000  Uiso   1.00
C938   C     0.16625   0.37625   0.75175   0.00000  Uiso   1.00
C939   C     0.12444   0.35552   0.78067   0.00000  Uiso   1.00
C940   C     0.12375   0.64586   0.78373   0.00000  Uiso   1.00
C941   C     0.16532   0.62393   0.75470   0.00000  Uiso   1.00
C942   C     0.31538   0.52997   0.72424   0.00000  Uiso   1.00
C943   C     0.03183   0.52965   0.72368   0.00000  Uiso   1.00
C944   C     0.01803   0.46992   0.77551   0.00000  Uiso   1.00
C945   C     0.30184   0.46975   0.77520   0.00000  Uiso   1.00
C946   C     0.16663   0.42075   0.75020   0.00000  Uiso   1.00
C947   C     0.19243   0.50096   0.65057   0.00000  Uiso   1.00
C948   C     0.26430   0.52273   0.51435   0.00000  Uiso   1.00
C949   C     0.20697   0.50295   0.59479   0.00000  Uiso   1.00
C950   C     0.07936   0.47884   0.93293   0.00000  Uiso   1.00
C951   C     0.06548   0.47677   0.98628   0.00000  Uiso   1.00
C952   C     0.09940   0.48222   0.51352   0.00000  Uiso   1.00
Cu953  Cu    0.11978   0.49999   0.75000   0.00000  Uiso   1.00
Cu954  Cu    0.21355   0.50001   0.75000   0.00000  Uiso   1.00
H955   H     0.24046   0.37053   0.70320   0.00000  Uiso   1.00
H956   H     0.09292   0.37293   0.80228   0.00000  Uiso   1.00
H957   H     0.30208   0.55411   0.70391   0.00000  Uiso   1.00
H958   H     0.05626   0.55317   0.70222   0.00000  Uiso   1.00
H959   H     0.03138   0.44574   0.79572   0.00000  Uiso   1.00
H960   H     0.27790   0.44533   0.79514   0.00000  Uiso   1.00
H961   H     0.28607   0.50888   0.91465   0.00000  Uiso   1.00
H962   H     0.29844   0.53681   0.99273   0.00000  Uiso   1.00
H963   H     0.08475   0.48483   0.55446   0.00000  Uiso   1.00
H964   H     0.02732   0.47254   0.50686   0.00000  Uiso   1.00
H965   H     0.23352   0.48047   0.87118   0.00000  Uiso   1.00
H966   H     0.23938   0.62864   0.70457   0.00000  Uiso   1.00
N967   N     0.04931   0.49999   0.74998   0.00000  Uiso   1.00
N968   N     0.28402   0.50002   0.74999   0.00000  Uiso   1.00
O969   O     0.12708   0.56011   0.75000   0.00000  Uiso   1.00
O970   O     0.20627   0.56012   0.75000   0.00000  Uiso   1.00
O971   O     0.10775   0.49998   0.82549   0.00000  Uiso   1.00
O972   O     0.18694   0.49999   0.82549   0.00000  Uiso   1.00
O973   O     0.12706   0.43988   0.74999   0.00000  Uiso   1.00
O974   O     0.20625   0.43989   0.74999   0.00000  Uiso   1.00
O975   O     0.14640   0.50001   0.67451   0.00000  Uiso   1.00
O976   O     0.22559   0.50002   0.67451   0.00000  Uiso   1.00
O977   O     0.27529   0.54709   0.59463   0.00000  Uiso   1.00
C978   C     0.32394   0.53345   0.58530   0.00000  Uiso   1.00
H979   H     0.32573   0.49956   0.59193   0.00000  Uiso   1.00
H980   H     0.01292   0.54263   0.54629   0.00000  Uiso   1.00
H981   H     0.00715   0.54895   0.61253   0.00000  Uiso   1.00
C982   C     0.07981   0.62523   0.82063   0.00000  Uiso   1.00
C983   C     0.03602   0.62444   0.79835   0.00000  Uiso   1.00
C984   C     0.32742   0.59859   0.83185   0.00000  Uiso   1.00
H985   H     0.00600   0.56612   0.83432   0.00000  Uiso   1.00
H986   H     0.31487   0.61158   0.87107   0.00000  Uiso   1.00
H987   H     0.29628   0.59874   0.81483   0.00000  Uiso   1.00
H988   H     0.02285   0.65647   0.79547   0.00000  Uiso   1.00
H989   H     0.04729   0.61134   0.75919   0.00000  Uiso   1.00
H990   H     0.08864   0.59354   0.83112   0.00000  Uiso   1.00
H991   H     0.06957   0.64257   0.85727   0.00000  Uiso   1.00
O992   O     0.13860   0.45930   0.59474   0.00000  Uiso   1.00
C993   C     0.15628   0.41840   0.59004   0.00000  Uiso   1.00
H994   H     0.18718   0.41466   0.60724   0.00000  Uiso   1.00
H995   H     0.16748   0.40853   0.54925   0.00000  Uiso   1.00
H996   H     0.12639   0.39758   0.61133   0.00000  Uiso   1.00
O997   O     0.04357   0.47641   0.90767   0.00000  Uiso   1.00
C998   C     0.02883   0.43484   0.90758   0.00000  Uiso   1.00
H999   H     0.01224   0.42274   0.94713   0.00000  Uiso   1.00
H1000  H     0.05998   0.41501   0.88690   0.00000  Uiso   1.00
H1001  H     0.00025   0.43301   0.88719   0.00000  Uiso   1.00
C1002  C     0.49936   0.57925   0.75214   0.00000  Uiso   1.00
C1003  C     0.48304   0.48642   0.98824   0.00000  Uiso   1.00
C1004  C     0.49824   0.48747   0.93371   0.00000  Uiso   1.00
C1005  C     0.51857   0.49261   0.51551   0.00000  Uiso   1.00
C1006  C     0.56592   0.50659   0.98843   0.00000  Uiso   1.00
C1007  C     0.58158   0.50303   0.93569   0.00000  Uiso   1.00
C1008  C     0.54938   0.48965   0.90964   0.00000  Uiso   1.00
C1009  C     0.50937   0.48530   0.56852   0.00000  Uiso   1.00
C1010  C     0.58381   0.52313   0.56798   0.00000  Uiso   1.00
C1011  C     0.46200   0.48712   0.90589   0.00000  Uiso   1.00
C1012  C     0.54062   0.64515   0.72653   0.00000  Uiso   1.00
C1013  C     0.47471   0.49602   0.84970   0.00000  Uiso   1.00
C1014  C     0.54125   0.35450   0.72547   0.00000  Uiso   1.00
C1015  C     0.49958   0.37625   0.75175   0.00000  Uiso   1.00
C1016  C     0.45777   0.35552   0.78067   0.00000  Uiso   1.00
C1017  C     0.45708   0.64586   0.78373   0.00000  Uiso   1.00
C1018  C     0.49865   0.62393   0.75470   0.00000  Uiso   1.00
C1019  C     0.64872   0.52997   0.72424   0.00000  Uiso   1.00
C1020  C     0.36516   0.52965   0.72368   0.00000  Uiso   1.00
C1021  C     0.35137   0.46992   0.77551   0.00000  Uiso   1.00
C1022  C     0.63517   0.46975   0.77520   0.00000  Uiso   1.00
C1023  C     0.49997   0.42075   0.75020   0.00000  Uiso   1.00
C1024  C     0.52577   0.50096   0.65057   0.00000  Uiso   1.00
C1025  C     0.59763   0.52273   0.51435   0.00000  Uiso   1.00
C1026  C     0.54031   0.50295   0.59479   0.00000  Uiso   1.00
C1027  C     0.41269   0.47884   0.93293   0.00000  Uiso   1.00
C1028  C     0.39881   0.47677   0.98628   0.00000  Uiso   1.00
C1029  C     0.43273   0.48222   0.51352   0.00000  Uiso   1.00
Cu1030 Cu    0.45311   0.49999   0.75000   0.00000  Uiso   1.00
Cu1031 Cu    0.54689   0.50001   0.75000   0.00000  Uiso   1.00
H1032  H     0.57380   0.37053   0.70320   0.00000  Uiso   1.00
H1033  H     0.42625   0.37293   0.80228   0.00000  Uiso   1.00
H1034  H     0.63541   0.55411   0.70391   0.00000  Uiso   1.00
H1035  H     0.38960   0.55317   0.70222   0.00000  Uiso   1.00
H1036  H     0.36471   0.44574   0.79572   0.00000  Uiso   1.00
H1037  H     0.61123   0.44533   0.79514   0.00000  Uiso   1.00
H1038  H     0.61940   0.50888   0.91465   0.00000  Uiso   1.00
H1039  H     0.63177   0.53681   0.99273   0.00000  Uiso   1.00
H1040  H     0.41808   0.48483   0.55446   0.00000  Uiso   1.00
H1041  H     0.36065   0.47254   0.50686   0.00000  Uiso   1.00
H1042  H     0.56685   0.48047   0.87118   0.00000  Uiso   1.00
H1043  H     0.57272   0.62864   0.70457   0.00000  Uiso   1.00
N1044  N     0.38265   0.49999   0.74998   0.00000  Uiso   1.00
N1045  N     0.61735   0.50002   0.74999   0.00000  Uiso   1.00
O1046  O     0.46042   0.56011   0.75000   0.00000  Uiso   1.00
O1047  O     0.53961   0.56012   0.75000   0.00000  Uiso   1.00
O1048  O     0.44108   0.49998   0.82549   0.00000  Uiso   1.00
O1049  O     0.52027   0.49999   0.82549   0.00000  Uiso   1.00
O1050  O     0.46039   0.43988   0.74999   0.00000  Uiso   1.00
O1051  O     0.53958   0.43989   0.74999   0.00000  Uiso   1.00
O1052  O     0.47973   0.50001   0.67451   0.00000  Uiso   1.00
O1053  O     0.55892   0.50002   0.67451   0.00000  Uiso   1.00
O1054  O     0.60862   0.54709   0.59463   0.00000  Uiso   1.00
C1055  C     0.65727   0.53345   0.58530   0.00000  Uiso   1.00
H1056  H     0.65906   0.49956   0.59193   0.00000  Uiso   1.00
H1057  H     0.34625   0.54263   0.54629   0.00000  Uiso   1.00
H1058  H     0.34049   0.54895   0.61253   0.00000  Uiso   1.00
C1059  C     0.41314   0.62523   0.82063   0.00000  Uiso   1.00
C1060  C     0.36936   0.62444   0.79835   0.00000  Uiso   1.00
C1061  C     0.66075   0.59859   0.83185   0.00000  Uiso   1.00
H1062  H     0.33933   0.56612   0.83432   0.00000  Uiso   1.00
H1063  H     0.64821   0.61158   0.87107   0.00000  Uiso   1.00
H1064  H     0.62961   0.59874   0.81483   0.00000  Uiso   1.00
H1065  H     0.35618   0.65647   0.79547   0.00000  Uiso   1.00
H1066  H     0.38062   0.61134   0.75919   0.00000  Uiso   1.00
H1067  H     0.42197   0.59354   0.83112   0.00000  Uiso   1.00
H1068  H     0.40290   0.64257   0.85727   0.00000  Uiso   1.00
O1069  O     0.47193   0.45930   0.59474   0.00000  Uiso   1.00
C1070  C     0.48961   0.41840   0.59004   0.00000  Uiso   1.00
H1071  H     0.52052   0.41466   0.60724   0.00000  Uiso   1.00
H1072  H     0.50082   0.40853   0.54925   0.00000  Uiso   1.00
H1073  H     0.45972   0.39758   0.61133   0.00000  Uiso   1.00
O1074  O     0.37691   0.47641   0.90767   0.00000  Uiso   1.00
C1075  C     0.36216   0.43484   0.90758   0.00000  Uiso   1.00
H1076  H     0.34557   0.42274   0.94713   0.00000  Uiso   1.00
H1077  H     0.39331   0.41501   0.88690   0.00000  Uiso   1.00
H1078  H     0.33359   0.43301   0.88719   0.00000  Uiso   1.00
C1079  C     0.83270   0.57925   0.75214   0.00000  Uiso   1.00
C1080  C     0.81637   0.48642   0.98824   0.00000  Uiso   1.00
C1081  C     0.83157   0.48747   0.93371   0.00000  Uiso   1.00
C1082  C     0.85190   0.49261   0.51551   0.00000  Uiso   1.00
C1083  C     0.89925   0.50659   0.98843   0.00000  Uiso   1.00
C1084  C     0.91491   0.50303   0.93569   0.00000  Uiso   1.00
C1085  C     0.88271   0.48965   0.90964   0.00000  Uiso   1.00
C1086  C     0.84271   0.48530   0.56852   0.00000  Uiso   1.00
C1087  C     0.91715   0.52313   0.56798   0.00000  Uiso   1.00
C1088  C     0.79533   0.48712   0.90589   0.00000  Uiso   1.00
C1089  C     0.87395   0.64515   0.72653   0.00000  Uiso   1.00
C1090  C     0.80804   0.49602   0.84970   0.00000  Uiso   1.00
C1091  C     0.87458   0.35450   0.72547   0.00000  Uiso   1.00
C1092  C     0.83292   0.37625   0.75175   0.00000  Uiso   1.00
C1093  C     0.79111   0.35552   0.78067   0.00000  Uiso   1.00
C1094  C     0.79042   0.64586   0.78373   0.00000  Uiso   1.00
C1095  C     0.83199   0.62393   0.75470   0.00000  Uiso   1.00
C1096  C     0.98205   0.52997   0.72424   0.00000  Uiso   1.00
C1097  C     0.69850   0.52965   0.72368   0.00000  Uiso   1.00
C1098  C     0.68470   0.46992   0.77551   0.00000  Uiso   1.00
C1099  C     0.96850   0.46975   0.77520   0.00000  Uiso   1.00
C1100  C     0.83330   0.42075   0.75020   0.00000  Uiso   1.00
C1101  C     0.85910   0.50096   0.65057   0.00000  Uiso   1.00
C1102  C     0.93096   0.52273   0.51435   0.00000  Uiso   1.00
C1103  C     0.87364   0.50295   0.59479   0.00000  Uiso   1.00
C1104  C     0.74603   0.47884   0.93293   0.00000  Uiso   1.00
C1105  C     0.73215   0.47677   0.98628   0.00000  Uiso   1.00
C1106  C     0.76606   0.48222   0.51352   0.00000  Uiso   1.00
Cu1107 Cu    0.78645   0.49999   0.75000   0.00000  Uiso   1.00
Cu1108 Cu    0.88022   0.50001   0.75000   0.00000  Uiso   1.00
H1109  H     0.90713   0.37053   0.70320   0.00000  Uiso   1.00
H1110  H     0.75959   0.37293   0.80228   0.00000  Uiso   1.00
H1111  H     0.96874   0.55411   0.70391   0.00000  Uiso   1.00
H1112  H     0.72293   0.55317   0.70222   0.00000  Uiso   1.00
H1113  H     0.69804   0.44574   0.79572   0.00000  Uiso   1.00
H1114  H     0.94457   0.44533   0.79514   0.00000  Uiso   1.00
H1115  H     0.95273   0.50888   0.91465   0.00000  Uiso   1.00
H1116  H     0.96510   0.53681   0.99273   0.00000  Uiso   1.00
H1117  H     0.75141   0.48483   0.55446   0.00000  Uiso   1.00
H1118  H     0.69399   0.47254   0.50686   0.00000  Uiso   1.00
H1119  H     0.90018   0.48047   0.87118   0.00000  Uiso   1.00
H1120  H     0.90605   0.62864   0.70457   0.00000  Uiso   1.00
N1121  N     0.71598   0.49999   0.74998   0.00000  Uiso   1.00
N1122  N     0.95069   0.50002   0.74999   0.00000  Uiso   1.00
O1123  O     0.79375   0.56011   0.75000   0.00000  Uiso   1.00
O1124  O     0.87294   0.56012   0.75000   0.00000  Uiso   1.00
O1125  O     0.77441   0.49998   0.82549   0.00000  Uiso   1.00
O1126  O     0.85360   0.49999   0.82549   0.00000  Uiso   1.00
O1127  O     0.79373   0.43988   0.74999   0.00000  Uiso   1.00
O1128  O     0.87292   0.43989   0.74999   0.00000  Uiso   1.00
O1129  O     0.81306   0.50001   0.67451   0.00000  Uiso   1.00
O1130  O     0.89225   0.50002   0.67451   0.00000  Uiso   1.00
O1131  O     0.94195   0.54709   0.59463   0.00000  Uiso   1.00
C1132  C     0.99060   0.53345   0.58530   0.00000  Uiso   1.00
H1133  H     0.99240   0.49956   0.59193   0.00000  Uiso   1.00
H1134  H     0.67958   0.54263   0.54629   0.00000  Uiso   1.00
H1135  H     0.67382   0.54895   0.61253   0.00000  Uiso   1.00
C1136  C     0.74647   0.62523   0.82063   0.00000  Uiso   1.00
C1137  C     0.70269   0.62444   0.79835   0.00000  Uiso   1.00
C1138  C     0.99409   0.59859   0.83185   0.00000  Uiso   1.00
H1139  H     0.67266   0.56612   0.83432   0.00000  Uiso   1.00
H1140  H     0.98154   0.61158   0.87107   0.00000  Uiso   1.00
H1141  H     0.96295   0.59874   0.81483   0.00000  Uiso   1.00
H1142  H     0.68951   0.65647   0.79547   0.00000  Uiso   1.00
H1143  H     0.71395   0.61134   0.75919   0.00000  Uiso   1.00
H1144  H     0.75531   0.59354   0.83112   0.00000  Uiso   1.00
H1145  H     0.73624   0.64257   0.85727   0.00000  Uiso   1.00
O1146  O     0.80527   0.45930   0.59474   0.00000  Uiso   1.00
C1147  C     0.82294   0.41840   0.59004   0.00000  Uiso   1.00
H1148  H     0.85385   0.41466   0.60724   0.00000  Uiso   1.00
H1149  H     0.83415   0.40853   0.54925   0.00000  Uiso   1.00
H1150  H     0.79306   0.39758   0.61133   0.00000  Uiso   1.00
O1151  O     0.71024   0.47641   0.90767   0.00000  Uiso   1.00
C1152  C     0.69549   0.43484   0.90758   0.00000  Uiso   1.00
H1153  H     0.67891   0.42274   0.94713   0.00000  Uiso   1.00
H1154  H     0.72664   0.41501   0.88690   0.00000  Uiso   1.00
H1155  H     0.66692   0.43301   0.88719   0.00000  Uiso   1.00
C1156  C     0.16603   0.91258   0.75214   0.00000  Uiso   1.00
C1157  C     0.14970   0.81975   0.98824   0.00000  Uiso   1.00
C1158  C     0.16491   0.82080   0.93371   0.00000  Uiso   1.00
C1159  C     0.18523   0.82594   0.51551   0.00000  Uiso   1.00
C1160  C     0.23259   0.83992   0.98843   0.00000  Uiso   1.00
C1161  C     0.24824   0.83636   0.93569   0.00000  Uiso   1.00
C1162  C     0.21604   0.82299   0.90964   0.00000  Uiso   1.00
C1163  C     0.17604   0.81863   0.56852   0.00000  Uiso   1.00
C1164  C     0.25048   0.85646   0.56798   0.00000  Uiso   1.00
C1165  C     0.12866   0.82046   0.90589   0.00000  Uiso   1.00
C1166  C     0.20728   0.97848   0.72653   0.00000  Uiso   1.00
C1167  C     0.14138   0.82936   0.84970   0.00000  Uiso   1.00
C1168  C     0.20792   0.68784   0.72547   0.00000  Uiso   1.00
C1169  C     0.16625   0.70959   0.75175   0.00000  Uiso   1.00
C1170  C     0.12444   0.68886   0.78067   0.00000  Uiso   1.00
C1171  C     0.12375   0.97920   0.78373   0.00000  Uiso   1.00
C1172  C     0.16532   0.95726   0.75470   0.00000  Uiso   1.00
C1173  C     0.31538   0.86330   0.72424   0.00000  Uiso   1.00
C1174  C     0.03183   0.86298   0.72368   0.00000  Uiso   1.00
C1175  C     0.01803   0.80325   0.77551   0.00000  Uiso   1.00
C1176  C     0.30184   0.80309   0.77520   0.00000  Uiso   1.00
C1177  C     0.16663   0.75408   0.75020   0.00000  Uiso   1.00
C1178  C     0.19243   0.83429   0.65057   0.00000  Uiso   1.00
C1179  C     0.26430   0.85607   0.51435   0.00000  Uiso   1.00
C1180  C     0.20697   0.83628   0.59479   0.00000  Uiso   1.00
C1181  C     0.07936   0.81217   0.93293   0.00000  Uiso   1.00
C1182  C     0.06548   0.81011   0.98628   0.00000  Uiso   1.00
C1183  C     0.09940   0.81556   0.51352   0.00000  Uiso   1.00
Cu1184 Cu    0.11978   0.83333   0.75000   0.00000  Uiso   1.00
Cu1185 Cu    0.21355   0.83334   0.75000   0.00000  Uiso   1.00
H1186  H     0.24046   0.70387   0.70320   0.00000  Uiso   1.00
H1187  H     0.09292   0.70627   0.80228   0.00000  Uiso   1.00
H1188  H     0.30208   0.88744   0.70391   0.00000  Uiso   1.00
H1189  H     0.05626   0.88650   0.70222   0.00000  Uiso   1.00
H1190  H     0.03138   0.77908   0.79572   0.00000  Uiso   1.00
H1191  H     0.27790   0.77867   0.79514   0.00000  Uiso   1.00
H1192  H     0.28607   0.84221   0.91465   0.00000  Uiso   1.00
H1193  H     0.29844   0.87014   0.99273   0.00000  Uiso   1.00
H1194  H     0.08475   0.81816   0.55446   0.00000  Uiso   1.00
H1195  H     0.02732   0.80587   0.50686   0.00000  Uiso   1.00
H1196  H     0.23352   0.81381   0.87118   0.00000  Uiso   1.00
H1197  H     0.23938   0.96197   0.70457   0.00000  Uiso   1.00
N1198  N     0.04931   0.83332   0.74998   0.00000  Uiso   1.00
N1199  N     0.28402   0.83335   0.74999   0.00000  Uiso   1.00
O1200  O     0.12708   0.89345   0.75000   0.00000  Uiso   1.00
O1201  O     0.20627   0.89346   0.75000   0.00000  Uiso   1.00
O1202  O     0.10775   0.83332   0.82549   0.00000  Uiso   1.00
O1203  O     0.18694   0.83333   0.82549   0.00000  Uiso   1.00
O1204  O     0.12706   0.77321   0.74999   0.00000  Uiso   1.00
O1205  O     0.20625   0.77322   0.74999   0.00000  Uiso   1.00
O1206  O     0.14640   0.83334   0.67451   0.00000  Uiso   1.00
O1207  O     0.22559   0.83335   0.67451   0.00000  Uiso   1.00
O1208  O     0.27529   0.88042   0.59463   0.00000  Uiso   1.00
C1209  C     0.32394   0.86678   0.58530   0.00000  Uiso   1.00
H1210  H     0.32573   0.83289   0.59193   0.00000  Uiso   1.00
H1211  H     0.01292   0.87597   0.54629   0.00000  Uiso   1.00
H1212  H     0.00715   0.88228   0.61253   0.00000  Uiso   1.00
C1213  C     0.07981   0.95857   0.82063   0.00000  Uiso   1.00
C1214  C     0.03602   0.95777   0.79835   0.00000  Uiso   1.00
C1215  C     0.32742   0.93192   0.83185   0.00000  Uiso   1.00
H1216  H     0.00600   0.89945   0.83432   0.00000  Uiso   1.00
H1217  H     0.31487   0.94491   0.87107   0.00000  Uiso   1.00
H1218  H     0.29628   0.93207   0.81483   0.00000  Uiso   1.00
H1219  H     0.02285   0.98981   0.79547   0.00000  Uiso   1.00
H1220  H     0.04729   0.94468   0.75919   0.00000  Uiso   1.00
H1221  H     0.08864   0.92688   0.83112   0.00000  Uiso   1.00
H1222  H     0.06957   0.97590   0.85727   0.00000  Uiso   1.00
O1223  O     0.13860   0.79263   0.59474   0.00000  Uiso   1.00
C1224  C     0.15628   0.75173   0.59004   0.00000  Uiso   1.00
H1225  H     0.18718   0.74799   0.60724   0.00000  Uiso   1.00
H1226  H     0.16748   0.74186   0.54925   0.00000  Uiso   1.00
H1227  H     0.12639   0.73092   0.61133   0.00000  Uiso   1.00
O1228  O     0.04357   0.80974   0.90767   0.00000  Uiso   1.00
C1229  C     0.02883   0.76817   0.90758   0.00000  Uiso   1.00
H1230  H     0.01224   0.75607   0.94713   0.00000  Uiso   1.00
H1231  H     0.05998   0.74834   0.88690   0.00000  Uiso   1.00
H1232  H     0.00025   0.76634   0.88719   0.00000  Uiso   1.00
C1233  C     0.49936   0.91258   0.75214   0.00000  Uiso   1.00
C1234  C     0.48304   0.81975   0.98824   0.00000  Uiso   1.00
C1235  C     0.49824   0.82080   0.93371   0.00000  Uiso   1.00
C1236  C     0.51857   0.82594   0.51551   0.00000  Uiso   1.00
C1237  C     0.56592   0.83992   0.98843   0.00000  Uiso   1.00
C1238  C     0.58158   0.83636   0.93569   0.00000  Uiso   1.00
C1239  C     0.54938   0.82299   0.90964   0.00000  Uiso   1.00
C1240  C     0.50937   0.81863   0.56852   0.00000  Uiso   1.00
C1241  C     0.58381   0.85646   0.56798   0.00000  Uiso   1.00
C1242  C     0.46200   0.82046   0.90589   0.00000  Uiso   1.00
C1243  C     0.54062   0.97848   0.72653   0.00000  Uiso   1.00
C1244  C     0.47471   0.82936   0.84970   0.00000  Uiso   1.00
C1245  C     0.54125   0.68784   0.72547   0.00000  Uiso   1.00
C1246  C     0.49958   0.70959   0.75175   0.00000  Uiso   1.00
C1247  C     0.45777   0.68886   0.78067   0.00000  Uiso   1.00
C1248  C     0.45708   0.97920   0.78373   0.00000  Uiso   1.00
C1249  C     0.49865   0.95726   0.75470   0.00000  Uiso   1.00
C1250  C     0.64872   0.86330   0.72424   0.00000  Uiso   1.00
C1251  C     0.36516   0.86298   0.72368   0.00000  Uiso   1.00
C1252  C     0.35137   0.80325   0.77551   0.00000  Uiso   1.00
C1253  C     0.63517   0.80309   0.77520   0.00000  Uiso   1.00
C1254  C     0.49997   0.75408   0.75020   0.00000  Uiso   1.00
C1255  C     0.52577   0.83429   0.65057   0.00000  Uiso   1.00
C1256  C     0.59763   0.85607   0.51435   0.00000  Uiso   1.00
C1257  C     0.54031   0.83628   0.59479   0.00000  Uiso   1.00
C1258  C     0.41269   0.81217   0.93293   0.00000  Uiso   1.00
C1259  C     0.39881   0.81011   0.98628   0.00000  Uiso   1.00
C1260  C     0.43273   0.81556   0.51352   0.00000  Uiso   1.00
Cu1261 Cu    0.45311   0.83333   0.75000   0.00000  Uiso   1.00
Cu1262 Cu    0.54689   0.83334   0.75000   0.00000  Uiso   1.00
H1263  H     0.57380   0.70387   0.70320   0.00000  Uiso   1.00
H1264  H     0.42625   0.70627   0.80228   0.00000  Uiso   1.00
H1265  H     0.63541   0.88744   0.70391   0.00000  Uiso   1.00
H1266  H     0.38960   0.88650   0.70222   0.00000  Uiso   1.00
H1267  H     0.36471   0.77908   0.79572   0.00000  Uiso   1.00
H1268  H     0.61123   0.77867   0.79514   0.00000  Uiso   1.00
H1269  H     0.61940   0.84221   0.91465   0.00000  Uiso   1.00
H1270  H     0.63177   0.87014   0.99273   0.00000  Uiso   1.00
H1271  H     0.41808   0.81816   0.55446   0.00000  Uiso   1.00
H1272  H     0.36065   0.80587   0.50686   0.00000  Uiso   1.00
H1273  H     0.56685   0.81381   0.87118   0.00000  Uiso   1.00
H1274  H     0.57272   0.96197   0.70457   0.00000  Uiso   1.00
N1275  N     0.38265   0.83332   0.74998   0.00000  Uiso   1.00
N1276  N     0.61735   0.83335   0.74999   0.00000  Uiso   1.00
O1277  O     0.46042   0.89345   0.75000   0.00000  Uiso   1.00
O1278  O     0.53961   0.89346   0.75000   0.00000  Uiso   1.00
O1279  O     0.44108   0.83332   0.82549   0.00000  Uiso   1.00
O1280  O     0.52027   0.83333   0.82549   0.00000  Uiso   1.00
O1281  O     0.46039   0.77321   0.74999   0.00000  Uiso   1.00
O1282  O     0.53958   0.77322   0.74999   0.00000  Uiso   1.00
O1283  O     0.47973   0.83334   0.67451   0.00000  Uiso   1.00
O1284  O     0.55892   0.83335   0.67451   0.00000  Uiso   1.00
O1285  O     0.60862   0.88042   0.59463   0.00000  Uiso   1.00
C1286  C     0.65727   0.86678   0.58530   0.00000  Uiso   1.00
H1287  H     0.65906   0.83289   0.59193   0.00000  Uiso   1.00
H1288  H     0.34625   0.87597   0.54629   0.00000  Uiso   1.00
H1289  H     0.34049   0.88228   0.61253   0.00000  Uiso   1.00
C1290  C     0.41314   0.95857   0.82063   0.00000  Uiso   1.00
C1291  C     0.36936   0.95777   0.79835   0.00000  Uiso   1.00
C1292  C     0.66075   0.93192   0.83185   0.00000  Uiso   1.00
H1293  H     0.33933   0.89945   0.83432   0.00000  Uiso   1.00
H1294  H     0.64821   0.94491   0.87107   0.00000  Uiso   1.00
H1295  H     0.62961   0.93207   0.81483   0.00000  Uiso   1.00
H1296  H     0.35618   0.98981   0.79547   0.00000  Uiso   1.00
H1297  H     0.38062   0.94468   0.75919   0.00000  Uiso   1.00
H1298  H     0.42197   0.92688   0.83112   0.00000  Uiso   1.00
H1299  H     0.40290   0.97590   0.85727   0.00000  Uiso   1.00
O1300  O     0.47193   0.79263   0.59474   0.00000  Uiso   1.00
C1301  C     0.48961   0.75173   0.59004   0.00000  Uiso   1.00
H1302  H     0.52052   0.74799   0.60724   0.00000  Uiso   1.00
H1303  H     0.50082   0.74186   0.54925   0.00000  Uiso   1.00
H1304  H     0.45972   0.73092   0.61133   0.00000  Uiso   1.00
O1305  O     0.37691   0.80974   0.90767   0.00000  Uiso   1.00
C1306  C     0.36216   0.76817   0.90758   0.00000  Uiso   1.00
H1307  H     0.34557   0.75607   0.94713   0.00000  Uiso   1.00
H1308  H     0.39331   0.74834   0.88690   0.00000  Uiso   1.00
H1309  H     0.33359   0.76634   0.88719   0.00000  Uiso   1.00
C1310  C     0.83270   0.91258   0.75214   0.00000  Uiso   1.00
C1311  C     0.81637   0.81975   0.98824   0.00000  Uiso   1.00
C1312  C     0.83157   0.82080   0.93371   0.00000  Uiso   1.00
C1313  C     0.85190   0.82594   0.51551   0.00000  Uiso   1.00
C1314  C     0.89925   0.83992   0.98843   0.00000  Uiso   1.00
C1315  C     0.91491   0.83636   0.93569   0.00000  Uiso   1.00
C1316  C     0.88271   0.82299   0.90964   0.00000  Uiso   1.00
C1317  C     0.84271   0.81863   0.56852   0.00000  Uiso   1.00
C1318  C     0.91715   0.85646   0.56798   0.00000  Uiso   1.00
C1319  C     0.79533   0.82046   0.90589   0.00000  Uiso   1.00
C1320  C     0.87395   0.97848   0.72653   0.00000  Uiso   1.00
C1321  C     0.80804   0.82936   0.84970   0.00000  Uiso   1.00
C1322  C     0.87458   0.68784   0.72547   0.00000  Uiso   1.00
C1323  C     0.83292   0.70959   0.75175   0.00000  Uiso   1.00
C1324  C     0.79111   0.68886   0.78067   0.00000  Uiso   1.00
C1325  C     0.79042   0.97920   0.78373   0.00000  Uiso   1.00
C1326  C     0.83199   0.95726   0.75470   0.00000  Uiso   1.00
C1327  C     0.98205   0.86330   0.72424   0.00000  Uiso   1.00
C1328  C     0.69850   0.86298   0.72368   0.00000  Uiso   1.00
C1329  C     0.68470   0.80325   0.77551   0.00000  Uiso   1.00
C1330  C     0.96850   0.80309   0.77520   0.00000  Uiso   1.00
C1331  C     0.83330   0.75408   0.75020   0.00000  Uiso   1.00
C1332  C     0.85910   0.83429   0.65057   0.00000  Uiso   1.00
C1333  C     0.93096   0.85607   0.51435   0.00000  Uiso   1.00
C1334  C     0.87364   0.83628   0.59479   0.00000  Uiso   1.00
C1335  C     0.74603   0.81217   0.93293   0.00000  Uiso   1.00
C1336  C     0.73215   0.81011   0.98628   0.00000  Uiso   1.00
C1337  C     0.76606   0.81556   0.51352   0.00000  Uiso   1.00
Cu1338 Cu    0.78645   0.83333   0.75000   0.00000  Uiso   1.00
Cu1339 Cu    0.88022   0.83334   0.75000   0.00000  Uiso   1.00
H1340  H     0.90713   0.70387   0.70320   0.00000  Uiso   1.00
H1341  H     0.75959   0.70627   0.80228   0.00000  Uiso   1.00
H1342  H     0.96874   0.88744   0.70391   0.00000  Uiso   1.00
H1343  H     0.72293   0.88650   0.70222   0.00000  Uiso   1.00
H1344  H     0.69804   0.77908   0.79572   0.00000  Uiso   1.00
H1345  H     0.94457   0.77867   0.79514   0.00000  Uiso   1.00
H1346  H     0.95273   0.84221   0.91465   0.00000  Uiso   1.00
H1347  H     0.96510   0.87014   0.99273   0.00000  Uiso   1.00
H1348  H     0.75141   0.81816   0.55446   0.00000  Uiso   1.00
H1349  H     0.69399   0.80587   0.50686   0.00000  Uiso   1.00
H1350  H     0.90018   0.81381   0.87118   0.00000  Uiso   1.00
H1351  H     0.90605   0.96197   0.70457   0.00000  Uiso   1.00
N1352  N     0.71598   0.83332   0.74998   0.00000  Uiso   1.00
N1353  N     0.95069   0.83335   0.74999   0.00000  Uiso   1.00
O1354  O     0.79375   0.89345   0.75000   0.00000  Uiso   1.00
O1355  O     0.87294   0.89346   0.75000   0.00000  Uiso   1.00
O1356  O     0.77441   0.83332   0.82549   0.00000  Uiso   1.00
O1357  O     0.85360   0.83333   0.82549   0.00000  Uiso   1.00
O1358  O     0.79373   0.77321   0.74999   0.00000  Uiso   1.00
O1359  O     0.87292   0.77322   0.74999   0.00000  Uiso   1.00
O1360  O     0.81306   0.83334   0.67451   0.00000  Uiso   1.00
O1361  O     0.89225   0.83335   0.67451   0.00000  Uiso   1.00
O1362  O     0.94195   0.88042   0.59463   0.00000  Uiso   1.00
C1363  C     0.99060   0.86678   0.58530   0.00000  Uiso   1.00
H1364  H     0.99240   0.83289   0.59193   0.00000  Uiso   1.00
H1365  H     0.67958   0.87597   0.54629   0.00000  Uiso   1.00
H1366  H     0.67382   0.88228   0.61253   0.00000  Uiso   1.00
C1367  C     0.74647   0.95857   0.82063   0.00000  Uiso   1.00
C1368  C     0.70269   0.95777   0.79835   0.00000  Uiso   1.00
C1369  C     0.99409   0.93192   0.83185   0.00000  Uiso   1.00
H1370  H     0.67266   0.89945   0.83432   0.00000  Uiso   1.00
H1371  H     0.98154   0.94491   0.87107   0.00000  Uiso   1.00
H1372  H     0.96295   0.93207   0.81483   0.00000  Uiso   1.00
H1373  H     0.68951   0.98981   0.79547   0.00000  Uiso   1.00
H1374  H     0.71395   0.94468   0.75919   0.00000  Uiso   1.00
H1375  H     0.75531   0.92688   0.83112   0.00000  Uiso   1.00
H1376  H     0.73624   0.97590   0.85727   0.00000  Uiso   1.00
O1377  O     0.80527   0.79263   0.59474   0.00000  Uiso   1.00
C1378  C     0.82294   0.75173   0.59004   0.00000  Uiso   1.00
H1379  H     0.85385   0.74799   0.60724   0.00000  Uiso   1.00
H1380  H     0.83415   0.74186   0.54925   0.00000  Uiso   1.00
H1381  H     0.79306   0.73092   0.61133   0.00000  Uiso   1.00
O1382  O     0.71024   0.80974   0.90767   0.00000  Uiso   1.00
C1383  C     0.69549   0.76817   0.90758   0.00000  Uiso   1.00
H1384  H     0.67891   0.75607   0.94713   0.00000  Uiso   1.00
H1385  H     0.72664   0.74834   0.88690   0.00000  Uiso   1.00
H1386  H     0.66692   0.76634   0.88719   0.00000  Uiso   1.00
loop_
_geom_bond_atom_site_label_1
_geom_bond_atom_site_label_2
_geom_bond_distance
_geom_bond_site_symmetry_2
_ccdc_geom_bond_type
C1     O46     1.289   .     A
C1     C17     1.449   .     S
C1     O45     1.288   .     A
C2     C3      1.422   .     A
C2     C697    1.429   .     S
C2     C721    1.410   .     S
C3     C7      1.421   .     A
C3     C10     1.442   .     A
C4     C8      1.407   .     A
C4     C695    1.429   1_554 S
C4     C698    1.415   1_554 S
C5     C6      1.381   .     A
C5     C697    1.415   .     S
C5     C717    1.398   .     S
C6     H37     1.084   .     S
C6     C7      1.380   .     A
C7     H41     1.068   .     S
C8     C25     1.407   .     A
C8     O68     1.384   .     S
C9     C25     1.407   .     A
C9     O53     1.389   .     S
C9     C24     1.398   .     A
C10    C26     1.414   .     A
C10    C12     1.492   .     S
C11    H42     1.084   .     S
C11    C17     1.401   .     A
C11    C244    1.382   .     S
C12    O48     1.285   .     A
C12    O47     1.312   .     A
C13    C14     1.394   .     A
C13    H31     1.084   .     S
C13    C473    1.382   1_545 S
C14    C22     1.441   .     S
C14    C15     1.397   .     A
C15    H32     1.085   .     S
C15    C478    1.393   1_545 S
C16    C17     1.418   .     A
C16    C58     1.517   .     S
C16    C246    1.393   .     S
C18    N44     1.366   .     A
C18    H33     1.081   .     S
C18    C96     1.415   .     S
C19    N43     1.366   .     A
C19    H34     1.081   .     S
C19    C172    1.415   1_455 S
C20    H35     1.080   .     S
C20    N43     1.365   .     A
C20    C175    1.414   1_455 S
C21    H36     1.081   .     S
C21    N44     1.367   .     A
C21    C97     1.414   .     S
C22    O50     1.287   .     A
C22    O49     1.287   .     A
C23    O51     1.290   .     A
C23    O52     1.290   .     A
C23    C25     1.455   .     S
C24    C698    1.398   1_554 S
C24    H731    1.083   1_554 S
C26    O73     1.384   .     S
C26    C27     1.392   .     A
C27    C721    1.386   .     S
C27    H733    1.082   .     S
C28    H39     1.076   .     S
C28    C720    1.386   1_554 S
C28    C695    1.410   1_554 S
Cu29   O49     1.957   .     S
Cu29   O47     1.982   .     S
Cu29   N43     2.008   .     S
Cu29   O45     1.958   .     S
Cu29   Cu30    2.673   .     S
Cu29   O51     1.976   .     S
Cu30   O48     1.976   .     S
Cu30   O50     1.958   .     S
Cu30   N44     2.008   .     S
Cu30   O52     1.982   .     S
Cu30   O46     1.957   .     S
H38    C717    1.083   .     S
H40    C720    1.082   1_554 S
O53    C54     1.408   .     S
C54    H55     1.113   .     S
C54    H133    1.109   .     S
C54    H134    1.108   .     S
H56    C208    1.109   1_455 S
H57    C208    1.108   1_455 S
C58    H66     1.109   .     S
C58    C59     1.533   .     S
C58    H67     1.113   .     S
C59    H64     1.112   .     S
C59    H65     1.109   .     S
C59    C214    1.527   1_455 S
C60    H63     1.111   .     S
C60    H62     1.111   .     S
C60    C136    1.527   .     S
C60    H138    1.111   .     S
H61    C214    1.111   1_455 S
O68    C69     1.410   .     S
C69    H71     1.113   .     S
C69    H72     1.109   .     S
C69    H70     1.114   .     S
O73    C74     1.411   .     S
C74    H76     1.113   .     S
C74    H77     1.109   .     S
C74    H75     1.112   .     S
C78    O123    1.289   .     A
C78    C94     1.449   .     S
C78    O122    1.288   .     A
C79    C80     1.422   .     A
C79    C774    1.429   .     S
C79    C798    1.410   .     S
C80    C84     1.421   .     A
C80    C87     1.442   .     A
C81    C85     1.407   .     A
C81    C772    1.429   1_554 S
C81    C775    1.415   1_554 S
C82    C83     1.381   .     A
C82    C774    1.415   .     S
C82    C794    1.398   .     S
C83    H114    1.084   .     S
C83    C84     1.380   .     A
C84    H118    1.068   .     S
C85    C102    1.407   .     A
C85    O145    1.384   .     S
C86    C102    1.407   .     A
C86    O130    1.389   .     S
C86    C101    1.398   .     A
C87    C103    1.414   .     A
C87    C89     1.492   .     S
C88    H119    1.084   .     S
C88    C94     1.401   .     A
C88    C321    1.382   .     S
C89    O125    1.285   .     A
C89    O124    1.312   .     A
C90    C91     1.394   .     A
C90    H108    1.084   .     S
C90    C550    1.382   1_545 S
C91    C99     1.441   .     S
C91    C92     1.397   .     A
C92    H109    1.085   .     S
C92    C555    1.393   1_545 S
C93    C94     1.418   .     A
C93    C135    1.517   .     S
C93    C323    1.393   .     S
C95    N121    1.366   .     A
C95    H110    1.081   .     S
C95    C173    1.415   .     S
C96    N120    1.366   .     A
C96    H111    1.081   .     S
C97    H112    1.080   .     S
C97    N120    1.365   .     A
C98    H113    1.081   .     S
C98    N121    1.367   .     A
C98    C174    1.414   .     S
C99    O127    1.287   .     A
C99    O126    1.287   .     A
C100   O128    1.290   .     A
C100   O129    1.290   .     A
C100   C102    1.455   .     S
C101   C775    1.398   1_554 S
C101   H808    1.083   1_554 S
C103   O150    1.384   .     S
C103   C104    1.392   .     A
C104   C798    1.386   .     S
C104   H810    1.082   .     S
C105   H116    1.076   .     S
C105   C797    1.386   1_554 S
C105   C772    1.410   1_554 S
Cu106  O126    1.957   .     S
Cu106  O124    1.982   .     S
Cu106  N120    2.008   .     S
Cu106  O122    1.958   .     S
Cu106  Cu107   2.673   .     S
Cu106  O128    1.976   .     S
Cu107  O125    1.976   .     S
Cu107  O127    1.958   .     S
Cu107  N121    2.008   .     S
Cu107  O129    1.982   .     S
Cu107  O123    1.957   .     S
H115   C794    1.083   .     S
H117   C797    1.082   1_554 S
O130   C131    1.408   .     S
C131   H132    1.113   .     S
C131   H210    1.109   .     S
C131   H211    1.108   .     S
C135   H143    1.109   .     S
C135   C136    1.533   .     S
C135   H144    1.113   .     S
C136   H141    1.112   .     S
C136   H142    1.109   .     S
C137   H140    1.111   .     S
C137   H139    1.111   .     S
C137   C213    1.527   .     S
C137   H215    1.111   .     S
O145   C146    1.410   .     S
C146   H148    1.113   .     S
C146   H149    1.109   .     S
C146   H147    1.114   .     S
O150   C151    1.411   .     S
C151   H153    1.113   .     S
C151   H154    1.109   .     S
C151   H152    1.112   .     S
C155   O200    1.289   .     A
C155   C171    1.449   .     S
C155   O199    1.288   .     A
C156   C157    1.422   .     A
C156   C851    1.429   .     S
C156   C875    1.410   .     S
C157   C161    1.421   .     A
C157   C164    1.442   .     A
C158   C162    1.407   .     A
C158   C849    1.429   1_554 S
C158   C852    1.415   1_554 S
C159   C160    1.381   .     A
C159   C851    1.415   .     S
C159   C871    1.398   .     S
C160   H191    1.084   .     S
C160   C161    1.380   .     A
C161   H195    1.068   .     S
C162   C179    1.407   .     A
C162   O222    1.384   .     S
C163   C179    1.407   .     A
C163   O207    1.389   .     S
C163   C178    1.398   .     A
C164   C180    1.414   .     A
C164   C166    1.492   .     S
C165   H196    1.084   .     S
C165   C171    1.401   .     A
C165   C398    1.382   .     S
C166   O202    1.285   .     A
C166   O201    1.312   .     A
C167   C168    1.394   .     A
C167   H185    1.084   .     S
C167   C627    1.382   1_545 S
C168   C176    1.441   .     S
C168   C169    1.397   .     A
C169   H186    1.085   .     S
C169   C632    1.393   1_545 S
C170   C171    1.418   .     A
C170   C212    1.517   .     S
C170   C400    1.393   .     S
C172   N198    1.366   .     A
C172   H187    1.081   .     S
C172   C19     1.415   1_655 S
C173   N197    1.366   .     A
C173   H188    1.081   .     S
C174   H189    1.080   .     S
C174   N197    1.365   .     A
C175   H190    1.081   .     S
C175   N198    1.367   .     A
C175   C20     1.414   1_655 S
C176   O204    1.287   .     A
C176   O203    1.287   .     A
C177   O205    1.290   .     A
C177   O206    1.290   .     A
C177   C179    1.455   .     S
C178   C852    1.398   1_554 S
C178   H885    1.083   1_554 S
C180   O227    1.384   .     S
C180   C181    1.392   .     A
C181   C875    1.386   .     S
C181   H887    1.082   .     S
C182   H193    1.076   .     S
C182   C874    1.386   1_554 S
C182   C849    1.410   1_554 S
Cu183  O203    1.957   .     S
Cu183  O201    1.982   .     S
Cu183  N197    2.008   .     S
Cu183  O199    1.958   .     S
Cu183  Cu184   2.673   .     S
Cu183  O205    1.976   .     S
Cu184  O202    1.976   .     S
Cu184  O204    1.958   .     S
Cu184  N198    2.008   .     S
Cu184  O206    1.982   .     S
Cu184  O200    1.957   .     S
H192   C871    1.083   .     S
H194   C874    1.082   1_554 S
O207   C208    1.408   .     S
C208   H209    1.113   .     S
C208   H56     1.109   1_655 S
C208   H57     1.108   1_655 S
C212   H220    1.109   .     S
C212   C213    1.533   .     S
C212   H221    1.113   .     S
C213   H218    1.112   .     S
C213   H219    1.109   .     S
C214   H217    1.111   .     S
C214   H216    1.111   .     S
C214   C59     1.527   1_655 S
C214   H61     1.111   1_655 S
O222   C223    1.410   .     S
C223   H225    1.113   .     S
C223   H226    1.109   .     S
C223   H224    1.114   .     S
O227   C228    1.411   .     S
C228   H230    1.113   .     S
C228   H231    1.109   .     S
C228   H229    1.112   .     S
C232   O277    1.289   .     A
C232   C248    1.449   .     S
C232   O276    1.288   .     A
C233   C234    1.422   .     A
C233   C928    1.429   .     S
C233   C952    1.410   .     S
C234   C238    1.421   .     A
C234   C241    1.442   .     A
C235   C239    1.407   .     A
C235   C926    1.429   1_554 S
C235   C929    1.415   1_554 S
C236   C237    1.381   .     A
C236   C928    1.415   .     S
C236   C948    1.398   .     S
C237   H268    1.084   .     S
C237   C238    1.380   .     A
C238   H272    1.068   .     S
C239   C256    1.407   .     A
C239   O299    1.384   .     S
C240   C256    1.407   .     A
C240   O284    1.389   .     S
C240   C255    1.398   .     A
C241   C257    1.414   .     A
C241   C243    1.492   .     S
C242   H273    1.084   .     S
C242   C248    1.401   .     A
C242   C475    1.382   .     S
C243   O279    1.285   .     A
C243   O278    1.312   .     A
C244   C245    1.394   .     A
C244   H262    1.084   .     S
C245   C253    1.441   .     S
C245   C246    1.397   .     A
C246   H263    1.085   .     S
C247   C248    1.418   .     A
C247   C289    1.517   .     S
C247   C477    1.393   .     S
C249   N275    1.366   .     A
C249   H264    1.081   .     S
C249   C327    1.415   .     S
C250   N274    1.366   .     A
C250   H265    1.081   .     S
C250   C403    1.415   1_455 S
C251   H266    1.080   .     S
C251   N274    1.365   .     A
C251   C406    1.414   1_455 S
C252   H267    1.081   .     S
C252   N275    1.367   .     A
C252   C328    1.414   .     S
C253   O281    1.287   .     A
C253   O280    1.287   .     A
C254   O282    1.290   .     A
C254   O283    1.290   .     A
C254   C256    1.455   .     S
C255   C929    1.398   1_554 S
C255   H962    1.083   1_554 S
C257   O304    1.384   .     S
C257   C258    1.392   .     A
C258   C952    1.386   .     S
C258   H964    1.082   .     S
C259   H270    1.076   .     S
C259   C951    1.386   1_554 S
C259   C926    1.410   1_554 S
Cu260  O280    1.957   .     S
Cu260  O278    1.982   .     S
Cu260  N274    2.008   .     S
Cu260  O276    1.958   .     S
Cu260  Cu261   2.673   .     S
Cu260  O282    1.976   .     S
Cu261  O279    1.976   .     S
Cu261  O281    1.958   .     S
Cu261  N275    2.008   .     S
Cu261  O283    1.982   .     S
Cu261  O277    1.957   .     S
H269   C948    1.083   .     S
H271   C951    1.082   1_554 S
O284   C285    1.408   .     S
C285   H286    1.113   .     S
C285   H364    1.109   .     S
C285   H365    1.108   .     S
H287   C439    1.109   1_455 S
H288   C439    1.108   1_455 S
C289   H297    1.109   .     S
C289   C290    1.533   .     S
C289   H298    1.113   .     S
C290   H295    1.112   .     S
C290   H296    1.109   .     S
C290   C445    1.527   1_455 S
C291   H294    1.111   .     S
C291   H293    1.111   .     S
C291   C367    1.527   .     S
C291   H369    1.111   .     S
H292   C445    1.111   1_455 S
O299   C300    1.410   .     S
C300   H302    1.113   .     S
C300   H303    1.109   .     S
C300   H301    1.114   .     S
O304   C305    1.411   .     S
C305   H307    1.113   .     S
C305   H308    1.109   .     S
C305   H306    1.112   .     S
C309   O354    1.289   .     A
C309   C325    1.449   .     S
C309   O353    1.288   .     A
C310   C311    1.422   .     A
C310   C1005   1.429   .     S
C310   C1029   1.410   .     S
C311   C315    1.421   .     A
C311   C318    1.442   .     A
C312   C316    1.407   .     A
C312   C1003   1.429   1_554 S
C312   C1006   1.415   1_554 S
C313   C314    1.381   .     A
C313   C1005   1.415   .     S
C313   C1025   1.398   .     S
C314   H345    1.084   .     S
C314   C315    1.380   .     A
C315   H349    1.068   .     S
C316   C333    1.407   .     A
C316   O376    1.384   .     S
C317   C333    1.407   .     A
C317   O361    1.389   .     S
C317   C332    1.398   .     A
C318   C334    1.414   .     A
C318   C320    1.492   .     S
C319   H350    1.084   .     S
C319   C325    1.401   .     A
C319   C552    1.382   .     S
C320   O356    1.285   .     A
C320   O355    1.312   .     A
C321   C322    1.394   .     A
C321   H339    1.084   .     S
C322   C330    1.441   .     S
C322   C323    1.397   .     A
C323   H340    1.085   .     S
C324   C325    1.418   .     A
C324   C366    1.517   .     S
C324   C554    1.393   .     S
C326   N352    1.366   .     A
C326   H341    1.081   .     S
C326   C404    1.415   .     S
C327   N351    1.366   .     A
C327   H342    1.081   .     S
C328   H343    1.080   .     S
C328   N351    1.365   .     A
C329   H344    1.081   .     S
C329   N352    1.367   .     A
C329   C405    1.414   .     S
C330   O358    1.287   .     A
C330   O357    1.287   .     A
C331   O359    1.290   .     A
C331   O360    1.290   .     A
C331   C333    1.455   .     S
C332   C1006   1.398   1_554 S
C332   H1039   1.083   1_554 S
C334   O381    1.384   .     S
C334   C335    1.392   .     A
C335   C1029   1.386   .     S
C335   H1041   1.082   .     S
C336   H347    1.076   .     S
C336   C1028   1.386   1_554 S
C336   C1003   1.410   1_554 S
Cu337  O357    1.957   .     S
Cu337  O355    1.982   .     S
Cu337  N351    2.008   .     S
Cu337  O353    1.958   .     S
Cu337  Cu338   2.673   .     S
Cu337  O359    1.976   .     S
Cu338  O356    1.976   .     S
Cu338  O358    1.958   .     S
Cu338  N352    2.008   .     S
Cu338  O360    1.982   .     S
Cu338  O354    1.957   .     S
H346   C1025   1.083   .     S
H348   C1028   1.082   1_554 S
O361   C362    1.408   .     S
C362   H363    1.113   .     S
C362   H441    1.109   .     S
C362   H442    1.108   .     S
C366   H374    1.109   .     S
C366   C367    1.533   .     S
C366   H375    1.113   .     S
C367   H372    1.112   .     S
C367   H373    1.109   .     S
C368   H371    1.111   .     S
C368   H370    1.111   .     S
C368   C444    1.527   .     S
C368   H446    1.111   .     S
O376   C377    1.410   .     S
C377   H379    1.113   .     S
C377   H380    1.109   .     S
C377   H378    1.114   .     S
O381   C382    1.411   .     S
C382   H384    1.113   .     S
C382   H385    1.109   .     S
C382   H383    1.112   .     S
C386   O431    1.289   .     A
C386   C402    1.449   .     S
C386   O430    1.288   .     A
C387   C388    1.422   .     A
C387   C1082   1.429   .     S
C387   C1106   1.410   .     S
C388   C392    1.421   .     A
C388   C395    1.442   .     A
C389   C393    1.407   .     A
C389   C1080   1.429   1_554 S
C389   C1083   1.415   1_554 S
C390   C391    1.381   .     A
C390   C1082   1.415   .     S
C390   C1102   1.398   .     S
C391   H422    1.084   .     S
C391   C392    1.380   .     A
C392   H426    1.068   .     S
C393   C410    1.407   .     A
C393   O453    1.384   .     S
C394   C410    1.407   .     A
C394   O438    1.389   .     S
C394   C409    1.398   .     A
C395   C411    1.414   .     A
C395   C397    1.492   .     S
C396   H427    1.084   .     S
C396   C402    1.401   .     A
C396   C629    1.382   .     S
C397   O433    1.285   .     A
C397   O432    1.312   .     A
C398   C399    1.394   .     A
C398   H416    1.084   .     S
C399   C407    1.441   .     S
C399   C400    1.397   .     A
C400   H417    1.085   .     S
C401   C402    1.418   .     A
C401   C443    1.517   .     S
C401   C631    1.393   .     S
C403   N429    1.366   .     A
C403   H418    1.081   .     S
C403   C250    1.415   1_655 S
C404   N428    1.366   .     A
C404   H419    1.081   .     S
C405   H420    1.080   .     S
C405   N428    1.365   .     A
C406   H421    1.081   .     S
C406   N429    1.367   .     A
C406   C251    1.414   1_655 S
C407   O435    1.287   .     A
C407   O434    1.287   .     A
C408   O436    1.290   .     A
C408   O437    1.290   .     A
C408   C410    1.455   .     S
C409   C1083   1.398   1_554 S
C409   H1116   1.083   1_554 S
C411   O458    1.384   .     S
C411   C412    1.392   .     A
C412   C1106   1.386   .     S
C412   H1118   1.082   .     S
C413   H424    1.076   .     S
C413   C1105   1.386   1_554 S
C413   C1080   1.410   1_554 S
Cu414  O434    1.957   .     S
Cu414  O432    1.982   .     S
Cu414  N428    2.008   .     S
Cu414  O430    1.958   .     S
Cu414  Cu415   2.673   .     S
Cu414  O436    1.976   .     S
Cu415  O433    1.976   .     S
Cu415  O435    1.958   .     S
Cu415  N429    2.008   .     S
Cu415  O437    1.982   .     S
Cu415  O431    1.957   .     S
H423   C1102   1.083   .     S
H425   C1105   1.082   1_554 S
O438   C439    1.408   .     S
C439   H440    1.113   .     S
C439   H287    1.109   1_655 S
C439   H288    1.108   1_655 S
C443   H451    1.109   .     S
C443   C444    1.533   .     S
C443   H452    1.113   .     S
C444   H449    1.112   .     S
C444   H450    1.109   .     S
C445   H448    1.111   .     S
C445   H447    1.111   .     S
C445   C290    1.527   1_655 S
C445   H292    1.111   1_655 S
O453   C454    1.410   .     S
C454   H456    1.113   .     S
C454   H457    1.109   .     S
C454   H455    1.114   .     S
O458   C459    1.411   .     S
C459   H461    1.113   .     S
C459   H462    1.109   .     S
C459   H460    1.112   .     S
C463   O508    1.289   .     A
C463   C479    1.449   .     S
C463   O507    1.288   .     A
C464   C465    1.422   .     A
C464   C1159   1.429   .     S
C464   C1183   1.410   .     S
C465   C469    1.421   .     A
C465   C472    1.442   .     A
C466   C470    1.407   .     A
C466   C1157   1.429   1_554 S
C466   C1160   1.415   1_554 S
C467   C468    1.381   .     A
C467   C1159   1.415   .     S
C467   C1179   1.398   .     S
C468   H499    1.084   .     S
C468   C469    1.380   .     A
C469   H503    1.068   .     S
C470   C487    1.407   .     A
C470   O530    1.384   .     S
C471   C487    1.407   .     A
C471   O515    1.389   .     S
C471   C486    1.398   .     A
C472   C488    1.414   .     A
C472   C474    1.492   .     S
C473   H504    1.084   .     S
C473   C479    1.401   .     A
C473   C13     1.382   1_565 S
C474   O510    1.285   .     A
C474   O509    1.312   .     A
C475   C476    1.394   .     A
C475   H493    1.084   .     S
C476   C484    1.441   .     S
C476   C477    1.397   .     A
C477   H494    1.085   .     S
C478   C479    1.418   .     A
C478   C520    1.517   .     S
C478   C15     1.393   1_565 S
C480   N506    1.366   .     A
C480   H495    1.081   .     S
C480   C558    1.415   .     S
C481   N505    1.366   .     A
C481   H496    1.081   .     S
C481   C634    1.415   1_455 S
C482   H497    1.080   .     S
C482   N505    1.365   .     A
C482   C637    1.414   1_455 S
C483   H498    1.081   .     S
C483   N506    1.367   .     A
C483   C559    1.414   .     S
C484   O512    1.287   .     A
C484   O511    1.287   .     A
C485   O513    1.290   .     A
C485   O514    1.290   .     A
C485   C487    1.455   .     S
C486   C1160   1.398   1_554 S
C486   H1193   1.083   1_554 S
C488   O535    1.384   .     S
C488   C489    1.392   .     A
C489   C1183   1.386   .     S
C489   H1195   1.082   .     S
C490   H501    1.076   .     S
C490   C1182   1.386   1_554 S
C490   C1157   1.410   1_554 S
Cu491  O511    1.957   .     S
Cu491  O509    1.982   .     S
Cu491  N505    2.008   .     S
Cu491  O507    1.958   .     S
Cu491  Cu492   2.673   .     S
Cu491  O513    1.976   .     S
Cu492  O510    1.976   .     S
Cu492  O512    1.958   .     S
Cu492  N506    2.008   .     S
Cu492  O514    1.982   .     S
Cu492  O508    1.957   .     S
H500   C1179   1.083   .     S
H502   C1182   1.082   1_554 S
O515   C516    1.408   .     S
C516   H517    1.113   .     S
C516   H595    1.109   .     S
C516   H596    1.108   .     S
H518   C670    1.109   1_455 S
H519   C670    1.108   1_455 S
C520   H528    1.109   .     S
C520   C521    1.533   .     S
C520   H529    1.113   .     S
C521   H526    1.112   .     S
C521   H527    1.109   .     S
C521   C676    1.527   1_455 S
C522   H525    1.111   .     S
C522   H524    1.111   .     S
C522   C598    1.527   .     S
C522   H600    1.111   .     S
H523   C676    1.111   1_455 S
O530   C531    1.410   .     S
C531   H533    1.113   .     S
C531   H534    1.109   .     S
C531   H532    1.114   .     S
O535   C536    1.411   .     S
C536   H538    1.113   .     S
C536   H539    1.109   .     S
C536   H537    1.112   .     S
C540   O585    1.289   .     A
C540   C556    1.449   .     S
C540   O584    1.288   .     A
C541   C542    1.422   .     A
C541   C1236   1.429   .     S
C541   C1260   1.410   .     S
C542   C546    1.421   .     A
C542   C549    1.442   .     A
C543   C547    1.407   .     A
C543   C1234   1.429   1_554 S
C543   C1237   1.415   1_554 S
C544   C545    1.381   .     A
C544   C1236   1.415   .     S
C544   C1256   1.398   .     S
C545   H576    1.084   .     S
C545   C546    1.380   .     A
C546   H580    1.068   .     S
C547   C564    1.407   .     A
C547   O607    1.384   .     S
C548   C564    1.407   .     A
C548   O592    1.389   .     S
C548   C563    1.398   .     A
C549   C565    1.414   .     A
C549   C551    1.492   .     S
C550   H581    1.084   .     S
C550   C556    1.401   .     A
C550   C90     1.382   1_565 S
C551   O587    1.285   .     A
C551   O586    1.312   .     A
C552   C553    1.394   .     A
C552   H570    1.084   .     S
C553   C561    1.441   .     S
C553   C554    1.397   .     A
C554   H571    1.085   .     S
C555   C556    1.418   .     A
C555   C597    1.517   .     S
C555   C92     1.393   1_565 S
C557   N583    1.366   .     A
C557   H572    1.081   .     S
C557   C635    1.415   .     S
C558   N582    1.366   .     A
C558   H573    1.081   .     S
C559   H574    1.080   .     S
C559   N582    1.365   .     A
C560   H575    1.081   .     S
C560   N583    1.367   .     A
C560   C636    1.414   .     S
C561   O589    1.287   .     A
C561   O588    1.287   .     A
C562   O590    1.290   .     A
C562   O591    1.290   .     A
C562   C564    1.455   .     S
C563   C1237   1.398   1_554 S
C563   H1270   1.083   1_554 S
C565   O612    1.384   .     S
C565   C566    1.392   .     A
C566   C1260   1.386   .     S
C566   H1272   1.082   .     S
C567   H578    1.076   .     S
C567   C1259   1.386   1_554 S
C567   C1234   1.410   1_554 S
Cu568  O588    1.957   .     S
Cu568  O586    1.982   .     S
Cu568  N582    2.008   .     S
Cu568  O584    1.958   .     S
Cu568  Cu569   2.673   .     S
Cu568  O590    1.976   .     S
Cu569  O587    1.976   .     S
Cu569  O589    1.958   .     S
Cu569  N583    2.008   .     S
Cu569  O591    1.982   .     S
Cu569  O585    1.957   .     S
H577   C1256   1.083   .     S
H579   C1259   1.082   1_554 S
O592   C593    1.408   .     S
C593   H594    1.113   .     S
C593   H672    1.109   .     S
C593   H673    1.108   .     S
C597   H605    1.109   .     S
C597   C598    1.533   .     S
C597   H606    1.113   .     S
C598   H603    1.112   .     S
C598   H604    1.109   .     S
C599   H602    1.111   .     S
C599   H601    1.111   .     S
C599   C675    1.527   .     S
C599   H677    1.111   .     S
O607   C608    1.410   .     S
C608   H610    1.113   .     S
C608   H611    1.109   .     S
C608   H609    1.114   .     S
O612   C613    1.411   .     S
C613   H615    1.113   .     S
C613   H616    1.109   .     S
C613   H614    1.112   .     S
C617   O662    1.289   .     A
C617   C633    1.449   .     S
C617   O661    1.288   .     A
C618   C619    1.422   .     A
C618   C1313   1.429   .     S
C618   C1337   1.410   .     S
C619   C623    1.421   .     A
C619   C626    1.442   .     A
C620   C624    1.407   .     A
C620   C1311   1.429   1_554 S
C620   C1314   1.415   1_554 S
C621   C622    1.381   .     A
C621   C1313   1.415   .     S
C621   C1333   1.398   .     S
C622   H653    1.084   .     S
C622   C623    1.380   .     A
C623   H657    1.068   .     S
C624   C641    1.407   .     A
C624   O684    1.384   .     S
C625   C641    1.407   .     A
C625   O669    1.389   .     S
C625   C640    1.398   .     A
C626   C642    1.414   .     A
C626   C628    1.492   .     S
C627   H658    1.084   .     S
C627   C633    1.401   .     A
C627   C167    1.382   1_565 S
C628   O664    1.285   .     A
C628   O663    1.312   .     A
C629   C630    1.394   .     A
C629   H647    1.084   .     S
C630   C638    1.441   .     S
C630   C631    1.397   .     A
C631   H648    1.085   .     S
C632   C633    1.418   .     A
C632   C674    1.517   .     S
C632   C169    1.393   1_565 S
C634   N660    1.366   .     A
C634   H649    1.081   .     S
C634   C481    1.415   1_655 S
C635   N659    1.366   .     A
C635   H650    1.081   .     S
C636   H651    1.080   .     S
C636   N659    1.365   .     A
C637   H652    1.081   .     S
C637   N660    1.367   .     A
C637   C482    1.414   1_655 S
C638   O666    1.287   .     A
C638   O665    1.287   .     A
C639   O667    1.290   .     A
C639   O668    1.290   .     A
C639   C641    1.455   .     S
C640   C1314   1.398   1_554 S
C640   H1347   1.083   1_554 S
C642   O689    1.384   .     S
C642   C643    1.392   .     A
C643   C1337   1.386   .     S
C643   H1349   1.082   .     S
C644   H655    1.076   .     S
C644   C1336   1.386   1_554 S
C644   C1311   1.410   1_554 S
Cu645  O665    1.957   .     S
Cu645  O663    1.982   .     S
Cu645  N659    2.008   .     S
Cu645  O661    1.958   .     S
Cu645  Cu646   2.673   .     S
Cu645  O667    1.976   .     S
Cu646  O664    1.976   .     S
Cu646  O666    1.958   .     S
Cu646  N660    2.008   .     S
Cu646  O668    1.982   .     S
Cu646  O662    1.957   .     S
H654   C1333   1.083   .     S
H656   C1336   1.082   1_554 S
O669   C670    1.408   .     S
C670   H671    1.113   .     S
C670   H518    1.109   1_655 S
C670   H519    1.108   1_655 S
C674   H682    1.109   .     S
C674   C675    1.533   .     S
C674   H683    1.113   .     S
C675   H680    1.112   .     S
C675   H681    1.109   .     S
C676   H679    1.111   .     S
C676   H678    1.111   .     S
C676   C521    1.527   1_655 S
C676   H523    1.111   1_655 S
O684   C685    1.410   .     S
C685   H687    1.113   .     S
C685   H688    1.109   .     S
C685   H686    1.114   .     S
O689   C690    1.411   .     S
C690   H692    1.113   .     S
C690   H693    1.109   .     S
C690   H691    1.112   .     S
C694   O739    1.289   .     A
C694   C710    1.449   .     S
C694   O738    1.288   .     A
C695   C696    1.422   .     A
C695   C4      1.429   1_556 S
C695   C28     1.410   1_556 S
C696   C700    1.421   .     A
C696   C703    1.442   .     A
C697   C701    1.407   .     A
C698   C699    1.381   .     A
C698   C4      1.415   1_556 S
C698   C24     1.398   1_556 S
C699   H730    1.084   .     S
C699   C700    1.380   .     A
C700   H734    1.068   .     S
C701   C718    1.407   .     A
C701   O761    1.384   .     S
C702   C718    1.407   .     A
C702   O746    1.389   .     S
C702   C717    1.398   .     A
C703   C719    1.414   .     A
C703   C705    1.492   .     S
C704   H735    1.084   .     S
C704   C710    1.401   .     A
C704   C937    1.382   .     S
C705   O741    1.285   .     A
C705   O740    1.312   .     A
C706   C707    1.394   .     A
C706   H724    1.084   .     S
C706   C1166   1.382   1_545 S
C707   C715    1.441   .     S
C707   C708    1.397   .     A
C708   H725    1.085   .     S
C708   C1171   1.393   1_545 S
C709   C710    1.418   .     A
C709   C751    1.517   .     S
C709   C939    1.393   .     S
C711   N737    1.366   .     A
C711   H726    1.081   .     S
C711   C789    1.415   .     S
C712   N736    1.366   .     A
C712   H727    1.081   .     S
C712   C865    1.415   1_455 S
C713   H728    1.080   .     S
C713   N736    1.365   .     A
C713   C868    1.414   1_455 S
C714   H729    1.081   .     S
C714   N737    1.367   .     A
C714   C790    1.414   .     S
C715   O743    1.287   .     A
C715   O742    1.287   .     A
C716   O744    1.290   .     A
C716   O745    1.290   .     A
C716   C718    1.455   .     S
C719   O766    1.384   .     S
C719   C720    1.392   .     A
C720   C28     1.386   1_556 S
C720   H40     1.082   1_556 S
C721   H732    1.076   .     S
Cu722  O742    1.957   .     S
Cu722  O740    1.982   .     S
Cu722  N736    2.008   .     S
Cu722  O738    1.958   .     S
Cu722  Cu723   2.673   .     S
Cu722  O744    1.976   .     S
Cu723  O741    1.976   .     S
Cu723  O743    1.958   .     S
Cu723  N737    2.008   .     S
Cu723  O745    1.982   .     S
Cu723  O739    1.957   .     S
H731   C24     1.083   1_556 S
O746   C747    1.408   .     S
C747   H748    1.113   .     S
C747   H826    1.109   .     S
C747   H827    1.108   .     S
H749   C901    1.109   1_455 S
H750   C901    1.108   1_455 S
C751   H759    1.109   .     S
C751   C752    1.533   .     S
C751   H760    1.113   .     S
C752   H757    1.112   .     S
C752   H758    1.109   .     S
C752   C907    1.527   1_455 S
C753   H756    1.111   .     S
C753   H755    1.111   .     S
C753   C829    1.527   .     S
C753   H831    1.111   .     S
H754   C907    1.111   1_455 S
O761   C762    1.410   .     S
C762   H764    1.113   .     S
C762   H765    1.109   .     S
C762   H763    1.114   .     S
O766   C767    1.411   .     S
C767   H769    1.113   .     S
C767   H770    1.109   .     S
C767   H768    1.112   .     S
C771   O816    1.289   .     A
C771   C787    1.449   .     S
C771   O815    1.288   .     A
C772   C773    1.422   .     A
C772   C81     1.429   1_556 S
C772   C105    1.410   1_556 S
C773   C777    1.421   .     A
C773   C780    1.442   .     A
C774   C778    1.407   .     A
C775   C776    1.381   .     A
C775   C81     1.415   1_556 S
C775   C101    1.398   1_556 S
C776   H807    1.084   .     S
C776   C777    1.380   .     A
C777   H811    1.068   .     S
C778   C795    1.407   .     A
C778   O838    1.384   .     S
C779   C795    1.407   .     A
C779   O823    1.389   .     S
C779   C794    1.398   .     A
C780   C796    1.414   .     A
C780   C782    1.492   .     S
C781   H812    1.084   .     S
C781   C787    1.401   .     A
C781   C1014   1.382   .     S
C782   O818    1.285   .     A
C782   O817    1.312   .     A
C783   C784    1.394   .     A
C783   H801    1.084   .     S
C783   C1243   1.382   1_545 S
C784   C792    1.441   .     S
C784   C785    1.397   .     A
C785   H802    1.085   .     S
C785   C1248   1.393   1_545 S
C786   C787    1.418   .     A
C786   C828    1.517   .     S
C786   C1016   1.393   .     S
C788   N814    1.366   .     A
C788   H803    1.081   .     S
C788   C866    1.415   .     S
C789   N813    1.366   .     A
C789   H804    1.081   .     S
C790   H805    1.080   .     S
C790   N813    1.365   .     A
C791   H806    1.081   .     S
C791   N814    1.367   .     A
C791   C867    1.414   .     S
C792   O820    1.287   .     A
C792   O819    1.287   .     A
C793   O821    1.290   .     A
C793   O822    1.290   .     A
C793   C795    1.455   .     S
C796   O843    1.384   .     S
C796   C797    1.392   .     A
C797   C105    1.386   1_556 S
C797   H117    1.082   1_556 S
C798   H809    1.076   .     S
Cu799  O819    1.957   .     S
Cu799  O817    1.982   .     S
Cu799  N813    2.008   .     S
Cu799  O815    1.958   .     S
Cu799  Cu800   2.673   .     S
Cu799  O821    1.976   .     S
Cu800  O818    1.976   .     S
Cu800  O820    1.958   .     S
Cu800  N814    2.008   .     S
Cu800  O822    1.982   .     S
Cu800  O816    1.957   .     S
H808   C101    1.083   1_556 S
O823   C824    1.408   .     S
C824   H825    1.113   .     S
C824   H903    1.109   .     S
C824   H904    1.108   .     S
C828   H836    1.109   .     S
C828   C829    1.533   .     S
C828   H837    1.113   .     S
C829   H834    1.112   .     S
C829   H835    1.109   .     S
C830   H833    1.111   .     S
C830   H832    1.111   .     S
C830   C906    1.527   .     S
C830   H908    1.111   .     S
O838   C839    1.410   .     S
C839   H841    1.113   .     S
C839   H842    1.109   .     S
C839   H840    1.114   .     S
O843   C844    1.411   .     S
C844   H846    1.113   .     S
C844   H847    1.109   .     S
C844   H845    1.112   .     S
C848   O893    1.289   .     A
C848   C864    1.449   .     S
C848   O892    1.288   .     A
C849   C850    1.422   .     A
C849   C158    1.429   1_556 S
C849   C182    1.410   1_556 S
C850   C854    1.421   .     A
C850   C857    1.442   .     A
C851   C855    1.407   .     A
C852   C853    1.381   .     A
C852   C158    1.415   1_556 S
C852   C178    1.398   1_556 S
C853   H884    1.084   .     S
C853   C854    1.380   .     A
C854   H888    1.068   .     S
C855   C872    1.407   .     A
C855   O915    1.384   .     S
C856   C872    1.407   .     A
C856   O900    1.389   .     S
C856   C871    1.398   .     A
C857   C873    1.414   .     A
C857   C859    1.492   .     S
C858   H889    1.084   .     S
C858   C864    1.401   .     A
C858   C1091   1.382   .     S
C859   O895    1.285   .     A
C859   O894    1.312   .     A
C860   C861    1.394   .     A
C860   H878    1.084   .     S
C860   C1320   1.382   1_545 S
C861   C869    1.441   .     S
C861   C862    1.397   .     A
C862   H879    1.085   .     S
C862   C1325   1.393   1_545 S
C863   C864    1.418   .     A
C863   C905    1.517   .     S
C863   C1093   1.393   .     S
C865   N891    1.366   .     A
C865   H880    1.081   .     S
C865   C712    1.415   1_655 S
C866   N890    1.366   .     A
C866   H881    1.081   .     S
C867   H882    1.080   .     S
C867   N890    1.365   .     A
C868   H883    1.081   .     S
C868   N891    1.367   .     A
C868   C713    1.414   1_655 S
C869   O897    1.287   .     A
C869   O896    1.287   .     A
C870   O898    1.290   .     A
C870   O899    1.290   .     A
C870   C872    1.455   .     S
C873   O920    1.384   .     S
C873   C874    1.392   .     A
C874   C182    1.386   1_556 S
C874   H194    1.082   1_556 S
C875   H886    1.076   .     S
Cu876  O896    1.957   .     S
Cu876  O894    1.982   .     S
Cu876  N890    2.008   .     S
Cu876  O892    1.958   .     S
Cu876  Cu877   2.673   .     S
Cu876  O898    1.976   .     S
Cu877  O895    1.976   .     S
Cu877  O897    1.958   .     S
Cu877  N891    2.008   .     S
Cu877  O899    1.982   .     S
Cu877  O893    1.957   .     S
H885   C178    1.083   1_556 S
O900   C901    1.408   .     S
C901   H902    1.113   .     S
C901   H749    1.109   1_655 S
C901   H750    1.108   1_655 S
C905   H913    1.109   .     S
C905   C906    1.533   .     S
C905   H914    1.113   .     S
C906   H911    1.112   .     S
C906   H912    1.109   .     S
C907   H910    1.111   .     S
C907   H909    1.111   .     S
C907   C752    1.527   1_655 S
C907   H754    1.111   1_655 S
O915   C916    1.410   .     S
C916   H918    1.113   .     S
C916   H919    1.109   .     S
C916   H917    1.114   .     S
O920   C921    1.411   .     S
C921   H923    1.113   .     S
C921   H924    1.109   .     S
C921   H922    1.112   .     S
C925   O970    1.289   .     A
C925   C941    1.449   .     S
C925   O969    1.288   .     A
C926   C927    1.422   .     A
C926   C235    1.429   1_556 S
C926   C259    1.410   1_556 S
C927   C931    1.421   .     A
C927   C934    1.442   .     A
C928   C932    1.407   .     A
C929   C930    1.381   .     A
C929   C235    1.415   1_556 S
C929   C255    1.398   1_556 S
C930   H961    1.084   .     S
C930   C931    1.380   .     A
C931   H965    1.068   .     S
C932   C949    1.407   .     A
C932   O992    1.384   .     S
C933   C949    1.407   .     A
C933   O977    1.389   .     S
C933   C948    1.398   .     A
C934   C950    1.414   .     A
C934   C936    1.492   .     S
C935   H966    1.084   .     S
C935   C941    1.401   .     A
C935   C1168   1.382   .     S
C936   O972    1.285   .     A
C936   O971    1.312   .     A
C937   C938    1.394   .     A
C937   H955    1.084   .     S
C938   C946    1.441   .     S
C938   C939    1.397   .     A
C939   H956    1.085   .     S
C940   C941    1.418   .     A
C940   C982    1.517   .     S
C940   C1170   1.393   .     S
C942   N968    1.366   .     A
C942   H957    1.081   .     S
C942   C1020   1.415   .     S
C943   N967    1.366   .     A
C943   H958    1.081   .     S
C943   C1096   1.415   1_455 S
C944   H959    1.080   .     S
C944   N967    1.365   .     A
C944   C1099   1.414   1_455 S
C945   H960    1.081   .     S
C945   N968    1.367   .     A
C945   C1021   1.414   .     S
C946   O974    1.287   .     A
C946   O973    1.287   .     A
C947   O975    1.290   .     A
C947   O976    1.290   .     A
C947   C949    1.455   .     S
C950   O997    1.384   .     S
C950   C951    1.392   .     A
C951   C259    1.386   1_556 S
C951   H271    1.082   1_556 S
C952   H963    1.076   .     S
Cu953  O973    1.957   .     S
Cu953  O971    1.982   .     S
Cu953  N967    2.008   .     S
Cu953  O969    1.958   .     S
Cu953  Cu954   2.673   .     S
Cu953  O975    1.976   .     S
Cu954  O972    1.976   .     S
Cu954  O974    1.958   .     S
Cu954  N968    2.008   .     S
Cu954  O976    1.982   .     S
Cu954  O970    1.957   .     S
H962   C255    1.083   1_556 S
O977   C978    1.408   .     S
C978   H979    1.113   .     S
C978   H1057   1.109   .     S
C978   H1058   1.108   .     S
H980   C1132   1.109   1_455 S
H981   C1132   1.108   1_455 S
C982   H990    1.109   .     S
C982   C983    1.533   .     S
C982   H991    1.113   .     S
C983   H988    1.112   .     S
C983   H989    1.109   .     S
C983   C1138   1.527   1_455 S
C984   H987    1.111   .     S
C984   H986    1.111   .     S
C984   C1060   1.527   .     S
C984   H1062   1.111   .     S
H985   C1138   1.111   1_455 S
O992   C993    1.410   .     S
C993   H995    1.113   .     S
C993   H996    1.109   .     S
C993   H994    1.114   .     S
O997   C998    1.411   .     S
C998   H1000   1.113   .     S
C998   H1001   1.109   .     S
C998   H999    1.112   .     S
C1002  O1047   1.289   .     A
C1002  C1018   1.449   .     S
C1002  O1046   1.288   .     A
C1003  C1004   1.422   .     A
C1003  C312    1.429   1_556 S
C1003  C336    1.410   1_556 S
C1004  C1008   1.421   .     A
C1004  C1011   1.442   .     A
C1005  C1009   1.407   .     A
C1006  C1007   1.381   .     A
C1006  C312    1.415   1_556 S
C1006  C332    1.398   1_556 S
C1007  H1038   1.084   .     S
C1007  C1008   1.380   .     A
C1008  H1042   1.068   .     S
C1009  C1026   1.407   .     A
C1009  O1069   1.384   .     S
C1010  C1026   1.407   .     A
C1010  O1054   1.389   .     S
C1010  C1025   1.398   .     A
C1011  C1027   1.414   .     A
C1011  C1013   1.492   .     S
C1012  H1043   1.084   .     S
C1012  C1018   1.401   .     A
C1012  C1245   1.382   .     S
C1013  O1049   1.285   .     A
C1013  O1048   1.312   .     A
C1014  C1015   1.394   .     A
C1014  H1032   1.084   .     S
C1015  C1023   1.441   .     S
C1015  C1016   1.397   .     A
C1016  H1033   1.085   .     S
C1017  C1018   1.418   .     A
C1017  C1059   1.517   .     S
C1017  C1247   1.393   .     S
C1019  N1045   1.366   .     A
C1019  H1034   1.081   .     S
C1019  C1097   1.415   .     S
C1020  N1044   1.366   .     A
C1020  H1035   1.081   .     S
C1021  H1036   1.080   .     S
C1021  N1044   1.365   .     A
C1022  H1037   1.081   .     S
C1022  N1045   1.367   .     A
C1022  C1098   1.414   .     S
C1023  O1051   1.287   .     A
C1023  O1050   1.287   .     A
C1024  O1052   1.290   .     A
C1024  O1053   1.290   .     A
C1024  C1026   1.455   .     S
C1027  O1074   1.384   .     S
C1027  C1028   1.392   .     A
C1028  C336    1.386   1_556 S
C1028  H348    1.082   1_556 S
C1029  H1040   1.076   .     S
Cu1030 O1050   1.957   .     S
Cu1030 O1048   1.982   .     S
Cu1030 N1044   2.008   .     S
Cu1030 O1046   1.958   .     S
Cu1030 Cu1031  2.673   .     S
Cu1030 O1052   1.976   .     S
Cu1031 O1049   1.976   .     S
Cu1031 O1051   1.958   .     S
Cu1031 N1045   2.008   .     S
Cu1031 O1053   1.982   .     S
Cu1031 O1047   1.957   .     S
H1039  C332    1.083   1_556 S
O1054  C1055   1.408   .     S
C1055  H1056   1.113   .     S
C1055  H1134   1.109   .     S
C1055  H1135   1.108   .     S
C1059  H1067   1.109   .     S
C1059  C1060   1.533   .     S
C1059  H1068   1.113   .     S
C1060  H1065   1.112   .     S
C1060  H1066   1.109   .     S
C1061  H1064   1.111   .     S
C1061  H1063   1.111   .     S
C1061  C1137   1.527   .     S
C1061  H1139   1.111   .     S
O1069  C1070   1.410   .     S
C1070  H1072   1.113   .     S
C1070  H1073   1.109   .     S
C1070  H1071   1.114   .     S
O1074  C1075   1.411   .     S
C1075  H1077   1.113   .     S
C1075  H1078   1.109   .     S
C1075  H1076   1.112   .     S
C1079  O1124   1.289   .     A
C1079  C1095   1.449   .     S
C1079  O1123   1.288   .     A
C1080  C1081   1.422   .     A
C1080  C389    1.429   1_556 S
C1080  C413    1.410   1_556 S
C1081  C1085   1.421   .     A
C1081  C1088   1.442   .     A
C1082  C1086   1.407   .     A
C1083  C1084   1.381   .     A
C1083  C389    1.415   1_556 S
C1083  C409    1.398   1_556 S
C1084  H1115   1.084   .     S
C1084  C1085   1.380   .     A
C1085  H1119   1.068   .     S
C1086  C1103   1.407   .     A
C1086  O1146   1.384   .     S
C1087  C1103   1.407   .     A
C1087  O1131   1.389   .     S
C1087  C1102   1.398   .     A
C1088  C1104   1.414   .     A
C1088  C1090   1.492   .     S
C1089  H1120   1.084   .     S
C1089  C1095   1.401   .     A
C1089  C1322   1.382   .     S
C1090  O1126   1.285   .     A
C1090  O1125   1.312   .     A
C1091  C1092   1.394   .     A
C1091  H1109   1.084   .     S
C1092  C1100   1.441   .     S
C1092  C1093   1.397   .     A
C1093  H1110   1.085   .     S
C1094  C1095   1.418   .     A
C1094  C1136   1.517   .     S
C1094  C1324   1.393   .     S
C1096  N1122   1.366   .     A
C1096  H1111   1.081   .     S
C1096  C943    1.415   1_655 S
C1097  N1121   1.366   .     A
C1097  H1112   1.081   .     S
C1098  H1113   1.080   .     S
C1098  N1121   1.365   .     A
C1099  H1114   1.081   .     S
C1099  N1122   1.367   .     A
C1099  C944    1.414   1_655 S
C1100  O1128   1.287   .     A
C1100  O1127   1.287   .     A
C1101  O1129   1.290   .     A
C1101  O1130   1.290   .     A
C1101  C1103   1.455   .     S
C1104  O1151   1.384   .     S
C1104  C1105   1.392   .     A
C1105  C413    1.386   1_556 S
C1105  H425    1.082   1_556 S
C1106  H1117   1.076   .     S
Cu1107 O1127   1.957   .     S
Cu1107 O1125   1.982   .     S
Cu1107 N1121   2.008   .     S
Cu1107 O1123   1.958   .     S
Cu1107 Cu1108  2.673   .     S
Cu1107 O1129   1.976   .     S
Cu1108 O1126   1.976   .     S
Cu1108 O1128   1.958   .     S
Cu1108 N1122   2.008   .     S
Cu1108 O1130   1.982   .     S
Cu1108 O1124   1.957   .     S
H1116  C409    1.083   1_556 S
O1131  C1132   1.408   .     S
C1132  H1133   1.113   .     S
C1132  H980    1.109   1_655 S
C1132  H981    1.108   1_655 S
C1136  H1144   1.109   .     S
C1136  C1137   1.533   .     S
C1136  H1145   1.113   .     S
C1137  H1142   1.112   .     S
C1137  H1143   1.109   .     S
C1138  H1141   1.111   .     S
C1138  H1140   1.111   .     S
C1138  C983    1.527   1_655 S
C1138  H985    1.111   1_655 S
O1146  C1147   1.410   .     S
C1147  H1149   1.113   .     S
C1147  H1150   1.109   .     S
C1147  H1148   1.114   .     S
O1151  C1152   1.411   .     S
C1152  H1154   1.113   .     S
C1152  H1155   1.109   .     S
C1152  H1153   1.112   .     S
C1156  O1201   1.289   .     A
C1156  C1172   1.449   .     S
C1156  O1200   1.288   .     A
C1157  C1158   1.422   .     A
C1157  C466    1.429   1_556 S
C1157  C490    1.410   1_556 S
C1158  C1162   1.421   .     A
C1158  C1165   1.442   .     A
C1159  C1163   1.407   .     A
C1160  C1161   1.381   .     A
C1160  C466    1.415   1_556 S
C1160  C486    1.398   1_556 S
C1161  H1192   1.084   .     S
C1161  C1162   1.380   .     A
C1162  H1196   1.068   .     S
C1163  C1180   1.407   .     A
C1163  O1223   1.384   .     S
C1164  C1180   1.407   .     A
C1164  O1208   1.389   .     S
C1164  C1179   1.398   .     A
C1165  C1181   1.414   .     A
C1165  C1167   1.492   .     S
C1166  H1197   1.084   .     S
C1166  C1172   1.401   .     A
C1166  C706    1.382   1_565 S
C1167  O1203   1.285   .     A
C1167  O1202   1.312   .     A
C1168  C1169   1.394   .     A
C1168  H1186   1.084   .     S
C1169  C1177   1.441   .     S
C1169  C1170   1.397   .     A
C1170  H1187   1.085   .     S
C1171  C1172   1.418   .     A
C1171  C1213   1.517   .     S
C1171  C708    1.393   1_565 S
C1173  N1199   1.366   .     A
C1173  H1188   1.081   .     S
C1173  C1251   1.415   .     S
C1174  N1198   1.366   .     A
C1174  H1189   1.081   .     S
C1174  C1327   1.415   1_455 S
C1175  H1190   1.080   .     S
C1175  N1198   1.365   .     A
C1175  C1330   1.414   1_455 S
C1176  H1191   1.081   .     S
C1176  N1199   1.367   .     A
C1176  C1252   1.414   .     S
C1177  O1205   1.287   .     A
C1177  O1204   1.287   .     A
C1178  O1206   1.290   .     A
C1178  O1207   1.290   .     A
C1178  C1180   1.455   .     S
C1181  O1228   1.384   .     S
C1181  C1182   1.392   .     A
C1182  C490    1.386   1_556 S
C1182  H502    1.082   1_556 S
C1183  H1194   1.076   .     S
Cu1184 O1204   1.957   .     S
Cu1184 O1202   1.982   .     S
Cu1184 N1198   2.008   .     S
Cu1184 O1200   1.958   .     S
Cu1184 Cu1185  2.673   .     S
Cu1184 O1206   1.976   .     S
Cu1185 O1203   1.976   .     S
Cu1185 O1205   1.958   .     S
Cu1185 N1199   2.008   .     S
Cu1185 O1207   1.982   .     S
Cu1185 O1201   1.957   .     S
H1193  C486    1.083   1_556 S
O1208  C1209   1.408   .     S
C1209  H1210   1.113   .     S
C1209  H1288   1.109   .     S
C1209  H1289   1.108   .     S
H1211  C1363   1.109   1_455 S
H1212  C1363   1.108   1_455 S
C1213  H1221   1.109   .     S
C1213  C1214   1.533   .     S
C1213  H1222   1.113   .     S
C1214  H1219   1.112   .     S
C1214  H1220   1.109   .     S
C1214  C1369   1.527   1_455 S
C1215  H1218   1.111   .     S
C1215  H1217   1.111   .     S
C1215  C1291   1.527   .     S
C1215  H1293   1.111   .     S
H1216  C1369   1.111   1_455 S
O1223  C1224   1.410   .     S
C1224  H1226   1.113   .     S
C1224  H1227   1.109   .     S
C1224  H1225   1.114   .     S
O1228  C1229   1.411   .     S
C1229  H1231   1.113   .     S
C1229  H1232   1.109   .     S
C1229  H1230   1.112   .     S
C1233  O1278   1.289   .     A
C1233  C1249   1.449   .     S
C1233  O1277   1.288   .     A
C1234  C1235   1.422   .     A
C1234  C543    1.429   1_556 S
C1234  C567    1.410   1_556 S
C1235  C1239   1.421   .     A
C1235  C1242   1.442   .     A
C1236  C1240   1.407   .     A
C1237  C1238   1.381   .     A
C1237  C543    1.415   1_556 S
C1237  C563    1.398   1_556 S
C1238  H1269   1.084   .     S
C1238  C1239   1.380   .     A
C1239  H1273   1.068   .     S
C1240  C1257   1.407   .     A
C1240  O1300   1.384   .     S
C1241  C1257   1.407   .     A
C1241  O1285   1.389   .     S
C1241  C1256   1.398   .     A
C1242  C1258   1.414   .     A
C1242  C1244   1.492   .     S
C1243  H1274   1.084   .     S
C1243  C1249   1.401   .     A
C1243  C783    1.382   1_565 S
C1244  O1280   1.285   .     A
C1244  O1279   1.312   .     A
C1245  C1246   1.394   .     A
C1245  H1263   1.084   .     S
C1246  C1254   1.441   .     S
C1246  C1247   1.397   .     A
C1247  H1264   1.085   .     S
C1248  C1249   1.418   .     A
C1248  C1290   1.517   .     S
C1248  C785    1.393   1_565 S
C1250  N1276   1.366   .     A
C1250  H1265   1.081   .     S
C1250  C1328   1.415   .     S
C1251  N1275   1.366   .     A
C1251  H1266   1.081   .     S
C1252  H1267   1.080   .     S
C1252  N1275   1.365   .     A
C1253  H1268   1.081   .     S
C1253  N1276   1.367   .     A
C1253  C1329   1.414   .     S
C1254  O1282   1.287   .     A
C1254  O1281   1.287   .     A
C1255  O1283   1.290   .     A
C1255  O1284   1.290   .     A
C1255  C1257   1.455   .     S
C1258  O1305   1.384   .     S
C1258  C1259   1.392   .     A
C1259  C567    1.386   1_556 S
C1259  H579    1.082   1_556 S
C1260  H1271   1.076   .     S
Cu1261 O1281   1.957   .     S
Cu1261 O1279   1.982   .     S
Cu1261 N1275   2.008   .     S
Cu1261 O1277   1.958   .     S
Cu1261 Cu1262  2.673   .     S
Cu1261 O1283   1.976   .     S
Cu1262 O1280   1.976   .     S
Cu1262 O1282   1.958   .     S
Cu1262 N1276   2.008   .     S
Cu1262 O1284   1.982   .     S
Cu1262 O1278   1.957   .     S
H1270  C563    1.083   1_556 S
O1285  C1286   1.408   .     S
C1286  H1287   1.113   .     S
C1286  H1365   1.109   .     S
C1286  H1366   1.108   .     S
C1290  H1298   1.109   .     S
C1290  C1291   1.533   .     S
C1290  H1299   1.113   .     S
C1291  H1296   1.112   .     S
C1291  H1297   1.109   .     S
C1292  H1295   1.111   .     S
C1292  H1294   1.111   .     S
C1292  C1368   1.527   .     S
C1292  H1370   1.111   .     S
O1300  C1301   1.410   .     S
C1301  H1303   1.113   .     S
C1301  H1304   1.109   .     S
C1301  H1302   1.114   .     S
O1305  C1306   1.411   .     S
C1306  H1308   1.113   .     S
C1306  H1309   1.109   .     S
C1306  H1307   1.112   .     S
C1310  O1355   1.289   .     A
C1310  C1326   1.449   .     S
C1310  O1354   1.288   .     A
C1311  C1312   1.422   .     A
C1311  C620    1.429   1_556 S
C1311  C644    1.410   1_556 S
C1312  C1316   1.421   .     A
C1312  C1319   1.442   .     A
C1313  C1317   1.407   .     A
C1314  C1315   1.381   .     A
C1314  C620    1.415   1_556 S
C1314  C640    1.398   1_556 S
C1315  H1346   1.084   .     S
C1315  C1316   1.380   .     A
C1316  H1350   1.068   .     S
C1317  C1334   1.407   .     A
C1317  O1377   1.384   .     S
C1318  C1334   1.407   .     A
C1318  O1362   1.389   .     S
C1318  C1333   1.398   .     A
C1319  C1335   1.414   .     A
C1319  C1321   1.492   .     S
C1320  H1351   1.084   .     S
C1320  C1326   1.401   .     A
C1320  C860    1.382   1_565 S
C1321  O1357   1.285   .     A
C1321  O1356   1.312   .     A
C1322  C1323   1.394   .     A
C1322  H1340   1.084   .     S
C1323  C1331   1.441   .     S
C1323  C1324   1.397   .     A
C1324  H1341   1.085   .     S
C1325  C1326   1.418   .     A
C1325  C1367   1.517   .     S
C1325  C862    1.393   1_565 S
C1327  N1353   1.366   .     A
C1327  H1342   1.081   .     S
C1327  C1174   1.415   1_655 S
C1328  N1352   1.366   .     A
C1328  H1343   1.081   .     S
C1329  H1344   1.080   .     S
C1329  N1352   1.365   .     A
C1330  H1345   1.081   .     S
C1330  N1353   1.367   .     A
C1330  C1175   1.414   1_655 S
C1331  O1359   1.287   .     A
C1331  O1358   1.287   .     A
C1332  O1360   1.290   .     A
C1332  O1361   1.290   .     A
C1332  C1334   1.455   .     S
C1335  O1382   1.384   .     S
C1335  C1336   1.392   .     A
C1336  C644    1.386   1_556 S
C1336  H656    1.082   1_556 S
C1337  H1348   1.076   .     S
Cu1338 O1358   1.957   .     S
Cu1338 O1356   1.982   .     S
Cu1338 N1352   2.008   .     S
Cu1338 O1354   1.958   .     S
Cu1338 Cu1339  2.673   .     S
Cu1338 O1360   1.976   .     S
Cu1339 O1357   1.976   .     S
Cu1339 O1359   1.958   .     S
Cu1339 N1353   2.008   .     S
Cu1339 O1361   1.982   .     S
Cu1339 O1355   1.957   .     S
H1347  C640    1.083   1_556 S
O1362  C1363   1.408   .     S
C1363  H1364   1.113   .     S
C1363  H1211   1.109   1_655 S
C1363  H1212   1.108   1_655 S
C1367  H1375   1.109   .     S
C1367  C1368   1.533   .     S
C1367  H1376   1.113   .     S
C1368  H1373   1.112   .     S
C1368  H1374   1.109   .     S
C1369  H1372   1.111   .     S
C1369  H1371   1.111   .     S
C1369  C1214   1.527   1_655 S
C1369  H1216   1.111   1_655 S
O1377  C1378   1.410   .     S
C1378  H1380   1.113   .     S
C1378  H1381   1.109   .     S
C1378  H1379   1.114   .     S
O1382  C1383   1.411   .     S
C1383  H1385   1.113   .     S
C1383  H1386   1.109   .     S
C1383  H1384   1.112   .     S
