data_str_m2_o1_o10_pcu_sym.204
_audit_creation_date              2020-01-03
_audit_creation_method            'Materials Studio'
_symmetry_space_group_name_H-M    'P1'
_symmetry_Int_Tables_number       1
_symmetry_cell_setting            triclinic
loop_
_symmetry_equiv_pos_as_xyz
  x,y,z
_cell_length_a                    26.1631
_cell_length_b                    32.3914
_cell_length_c                    28.6726
_cell_angle_alpha                 90.6143
_cell_angle_beta                  98.4713
_cell_angle_gamma                 90.4699
loop_
_atom_site_label
_atom_site_type_symbol
_atom_site_fract_x
_atom_site_fract_y
_atom_site_fract_z
_atom_site_U_iso_or_equiv
_atom_site_adp_type
_atom_site_occupancy
O1     O     0.16666   0.10655   0.20625   0.00000  Uiso   1.00
O2     O     0.16667   0.22678   0.12709   0.00000  Uiso   1.00
O3     O     0.16666   0.10654   0.12706   0.00000  Uiso   1.00
O4     O     0.16667   0.22679   0.20628   0.00000  Uiso   1.00
C5     C     0.16836   0.08748   0.16674   0.00000  Uiso   1.00
C6     C     0.16547   0.24584   0.16674   0.00000  Uiso   1.00
O7     O     0.09161   0.16667   0.19712   0.00000  Uiso   1.00
O8     O     0.24172   0.16666   0.13621   0.00000  Uiso   1.00
O9     O     0.09161   0.16666   0.11793   0.00000  Uiso   1.00
O10    O     0.24172   0.16667   0.21540   0.00000  Uiso   1.00
C11    C     0.06790   0.16658   0.15448   0.00000  Uiso   1.00
C12    C     0.26544   0.16671   0.17885   0.00000  Uiso   1.00
Cu13   Cu    0.16667   0.16667   0.21355   0.00000  Uiso   1.00
Cu14   Cu    0.16667   0.16666   0.11978   0.00000  Uiso   1.00
N15    N     0.16668   0.16668   0.28403   0.00000  Uiso   1.00
N16    N     0.16665   0.16666   0.04931   0.00000  Uiso   1.00
C17    C     0.01246   0.16667   0.14786   0.00000  Uiso   1.00
C18    C     0.32087   0.16655   0.18543   0.00000  Uiso   1.00
H19    H     0.32546   0.16691   0.11195   0.00000  Uiso   1.00
H20    H     0.00791   0.16626   0.22132   0.00000  Uiso   1.00
C21    C     0.13794   0.02166   0.13084   0.00000  Uiso   1.00
C22    C     0.19604   0.31155   0.20331   0.00000  Uiso   1.00
H23    H     0.11377   0.03873   0.10416   0.00000  Uiso   1.00
H24    H     0.21978   0.29442   0.23053   0.00000  Uiso   1.00
C25    C     0.13425   0.31220   0.13069   0.00000  Uiso   1.00
C26    C     0.19983   0.02110   0.20330   0.00000  Uiso   1.00
C27    C     0.16425   0.29046   0.16710   0.00000  Uiso   1.00
C28    C     0.16992   0.04282   0.16671   0.00000  Uiso   1.00
C29    C     0.13067   0.14389   0.01936   0.00000  Uiso   1.00
C30    C     0.20265   0.18930   0.31390   0.00000  Uiso   1.00
C31    C     0.13071   0.14453   0.30305   0.00000  Uiso   1.00
C32    C     0.20199   0.18952   0.03008   0.00000  Uiso   1.00
H33    H     0.10164   0.12766   0.27952   0.00000  Uiso   1.00
H34    H     0.22972   0.20819   0.05307   0.00000  Uiso   1.00
N35    N     0.09829   0.29167   0.09490   0.00000  Uiso   1.00
O36    O     0.06893   0.26184   0.10607   0.00000  Uiso   1.00
O37    O     0.08939   0.30662   0.05256   0.00000  Uiso   1.00
N38    N     0.23556   0.04171   0.23921   0.00000  Uiso   1.00
O39    O     0.26446   0.07193   0.22825   0.00000  Uiso   1.00
O40    O     0.24474   0.02654   0.28143   0.00000  Uiso   1.00
N41    N     0.09110   0.12183   0.03785   0.00000  Uiso   1.00
H42    H     0.05755   0.13860   0.03604   0.00000  Uiso   1.00
C43    C     0.08114   0.07983   0.02092   0.00000  Uiso   1.00
H44    H     0.05485   0.06445   0.04253   0.00000  Uiso   1.00
H45    H     0.11779   0.06231   0.02368   0.00000  Uiso   1.00
H46    H     0.06150   0.07928   0.31719   0.00000  Uiso   1.00
N47    N     0.23946   0.21411   0.29511   0.00000  Uiso   1.00
H48    H     0.23395   0.24521   0.30027   0.00000  Uiso   1.00
C49    C     0.29280   0.20249   0.30933   0.00000  Uiso   1.00
H50    H     0.31792   0.22017   0.28852   0.00000  Uiso   1.00
H51    H     0.29794   0.16901   0.30269   0.00000  Uiso   1.00
H52    H     0.30521   0.20958   0.01400   0.00000  Uiso   1.00
O53    O     0.50000   0.10655   0.20625   0.00000  Uiso   1.00
O54    O     0.50000   0.22678   0.12709   0.00000  Uiso   1.00
O55    O     0.50000   0.10654   0.12706   0.00000  Uiso   1.00
O56    O     0.50000   0.22679   0.20628   0.00000  Uiso   1.00
C57    C     0.50169   0.08748   0.16674   0.00000  Uiso   1.00
C58    C     0.49881   0.24584   0.16674   0.00000  Uiso   1.00
O59    O     0.42495   0.16667   0.19712   0.00000  Uiso   1.00
O60    O     0.57505   0.16666   0.13621   0.00000  Uiso   1.00
O61    O     0.42494   0.16666   0.11793   0.00000  Uiso   1.00
O62    O     0.57506   0.16667   0.21540   0.00000  Uiso   1.00
C63    C     0.40123   0.16658   0.15448   0.00000  Uiso   1.00
C64    C     0.59877   0.16671   0.17885   0.00000  Uiso   1.00
Cu65   Cu    0.50000   0.16667   0.21355   0.00000  Uiso   1.00
Cu66   Cu    0.50000   0.16666   0.11978   0.00000  Uiso   1.00
N67    N     0.50001   0.16668   0.28403   0.00000  Uiso   1.00
N68    N     0.49999   0.16666   0.04931   0.00000  Uiso   1.00
C69    C     0.34579   0.16667   0.14786   0.00000  Uiso   1.00
C70    C     0.65421   0.16655   0.18543   0.00000  Uiso   1.00
H71    H     0.65879   0.16691   0.11195   0.00000  Uiso   1.00
H72    H     0.34124   0.16626   0.22132   0.00000  Uiso   1.00
C73    C     0.47128   0.02166   0.13084   0.00000  Uiso   1.00
C74    C     0.52938   0.31155   0.20331   0.00000  Uiso   1.00
H75    H     0.44711   0.03873   0.10416   0.00000  Uiso   1.00
H76    H     0.55312   0.29442   0.23053   0.00000  Uiso   1.00
C77    C     0.46758   0.31220   0.13069   0.00000  Uiso   1.00
C78    C     0.53317   0.02110   0.20330   0.00000  Uiso   1.00
C79    C     0.49758   0.29046   0.16710   0.00000  Uiso   1.00
C80    C     0.50325   0.04282   0.16671   0.00000  Uiso   1.00
C81    C     0.46401   0.14389   0.01936   0.00000  Uiso   1.00
C82    C     0.53598   0.18930   0.31390   0.00000  Uiso   1.00
C83    C     0.46404   0.14453   0.30305   0.00000  Uiso   1.00
C84    C     0.53532   0.18952   0.03008   0.00000  Uiso   1.00
H85    H     0.43497   0.12766   0.27952   0.00000  Uiso   1.00
H86    H     0.56305   0.20819   0.05307   0.00000  Uiso   1.00
N87    N     0.43162   0.29167   0.09490   0.00000  Uiso   1.00
O88    O     0.40226   0.26184   0.10607   0.00000  Uiso   1.00
O89    O     0.42272   0.30662   0.05256   0.00000  Uiso   1.00
N90    N     0.56889   0.04171   0.23921   0.00000  Uiso   1.00
O91    O     0.59780   0.07193   0.22825   0.00000  Uiso   1.00
O92    O     0.57807   0.02654   0.28143   0.00000  Uiso   1.00
N93    N     0.42444   0.12183   0.03785   0.00000  Uiso   1.00
H94    H     0.39088   0.13860   0.03604   0.00000  Uiso   1.00
C95    C     0.41447   0.07983   0.02092   0.00000  Uiso   1.00
H96    H     0.38819   0.06445   0.04253   0.00000  Uiso   1.00
H97    H     0.45112   0.06231   0.02368   0.00000  Uiso   1.00
H98    H     0.39483   0.07928   0.31719   0.00000  Uiso   1.00
N99    N     0.57280   0.21411   0.29511   0.00000  Uiso   1.00
H100   H     0.56728   0.24521   0.30027   0.00000  Uiso   1.00
C101   C     0.62613   0.20249   0.30933   0.00000  Uiso   1.00
H102   H     0.65126   0.22017   0.28852   0.00000  Uiso   1.00
H103   H     0.63127   0.16901   0.30269   0.00000  Uiso   1.00
H104   H     0.63854   0.20958   0.01400   0.00000  Uiso   1.00
O105   O     0.83333   0.10655   0.20625   0.00000  Uiso   1.00
O106   O     0.83334   0.22678   0.12709   0.00000  Uiso   1.00
O107   O     0.83333   0.10654   0.12706   0.00000  Uiso   1.00
O108   O     0.83334   0.22679   0.20628   0.00000  Uiso   1.00
C109   C     0.83502   0.08748   0.16674   0.00000  Uiso   1.00
C110   C     0.83214   0.24584   0.16674   0.00000  Uiso   1.00
O111   O     0.75828   0.16667   0.19712   0.00000  Uiso   1.00
O112   O     0.90839   0.16666   0.13621   0.00000  Uiso   1.00
O113   O     0.75828   0.16666   0.11793   0.00000  Uiso   1.00
O114   O     0.90839   0.16667   0.21540   0.00000  Uiso   1.00
C115   C     0.73456   0.16658   0.15448   0.00000  Uiso   1.00
C116   C     0.93211   0.16671   0.17885   0.00000  Uiso   1.00
Cu117  Cu    0.83333   0.16667   0.21355   0.00000  Uiso   1.00
Cu118  Cu    0.83333   0.16666   0.11978   0.00000  Uiso   1.00
N119   N     0.83335   0.16668   0.28403   0.00000  Uiso   1.00
N120   N     0.83332   0.16666   0.04931   0.00000  Uiso   1.00
C121   C     0.67913   0.16667   0.14786   0.00000  Uiso   1.00
C122   C     0.98754   0.16655   0.18543   0.00000  Uiso   1.00
H123   H     0.99212   0.16691   0.11195   0.00000  Uiso   1.00
H124   H     0.67458   0.16626   0.22132   0.00000  Uiso   1.00
C125   C     0.80461   0.02166   0.13084   0.00000  Uiso   1.00
C126   C     0.86271   0.31155   0.20331   0.00000  Uiso   1.00
H127   H     0.78044   0.03873   0.10416   0.00000  Uiso   1.00
H128   H     0.88645   0.29442   0.23053   0.00000  Uiso   1.00
C129   C     0.80091   0.31220   0.13069   0.00000  Uiso   1.00
C130   C     0.86650   0.02110   0.20330   0.00000  Uiso   1.00
C131   C     0.83092   0.29046   0.16710   0.00000  Uiso   1.00
C132   C     0.83658   0.04282   0.16671   0.00000  Uiso   1.00
C133   C     0.79734   0.14389   0.01936   0.00000  Uiso   1.00
C134   C     0.86932   0.18930   0.31390   0.00000  Uiso   1.00
C135   C     0.79738   0.14453   0.30305   0.00000  Uiso   1.00
C136   C     0.86865   0.18952   0.03008   0.00000  Uiso   1.00
H137   H     0.76830   0.12766   0.27952   0.00000  Uiso   1.00
H138   H     0.89639   0.20819   0.05307   0.00000  Uiso   1.00
N139   N     0.76495   0.29167   0.09490   0.00000  Uiso   1.00
O140   O     0.73559   0.26184   0.10607   0.00000  Uiso   1.00
O141   O     0.75606   0.30662   0.05256   0.00000  Uiso   1.00
N142   N     0.90222   0.04171   0.23921   0.00000  Uiso   1.00
O143   O     0.93113   0.07193   0.22825   0.00000  Uiso   1.00
O144   O     0.91140   0.02654   0.28143   0.00000  Uiso   1.00
N145   N     0.75777   0.12183   0.03785   0.00000  Uiso   1.00
H146   H     0.72422   0.13860   0.03604   0.00000  Uiso   1.00
C147   C     0.74780   0.07983   0.02092   0.00000  Uiso   1.00
H148   H     0.72152   0.06445   0.04253   0.00000  Uiso   1.00
H149   H     0.78445   0.06231   0.02368   0.00000  Uiso   1.00
H150   H     0.72817   0.07928   0.31719   0.00000  Uiso   1.00
N151   N     0.90613   0.21411   0.29511   0.00000  Uiso   1.00
H152   H     0.90062   0.24521   0.30027   0.00000  Uiso   1.00
C153   C     0.95946   0.20249   0.30933   0.00000  Uiso   1.00
H154   H     0.98459   0.22017   0.28852   0.00000  Uiso   1.00
H155   H     0.96460   0.16901   0.30269   0.00000  Uiso   1.00
H156   H     0.97188   0.20958   0.01400   0.00000  Uiso   1.00
O157   O     0.16666   0.43989   0.20625   0.00000  Uiso   1.00
O158   O     0.16667   0.56011   0.12709   0.00000  Uiso   1.00
O159   O     0.16666   0.43988   0.12706   0.00000  Uiso   1.00
O160   O     0.16667   0.56012   0.20628   0.00000  Uiso   1.00
C161   C     0.16836   0.42082   0.16674   0.00000  Uiso   1.00
C162   C     0.16547   0.57918   0.16674   0.00000  Uiso   1.00
O163   O     0.09161   0.50000   0.19712   0.00000  Uiso   1.00
O164   O     0.24172   0.50000   0.13621   0.00000  Uiso   1.00
O165   O     0.09161   0.49999   0.11793   0.00000  Uiso   1.00
O166   O     0.24172   0.50001   0.21540   0.00000  Uiso   1.00
C167   C     0.06790   0.49991   0.15448   0.00000  Uiso   1.00
C168   C     0.26544   0.50005   0.17885   0.00000  Uiso   1.00
Cu169  Cu    0.16667   0.50001   0.21355   0.00000  Uiso   1.00
Cu170  Cu    0.16667   0.49999   0.11978   0.00000  Uiso   1.00
N171   N     0.16668   0.50001   0.28403   0.00000  Uiso   1.00
N172   N     0.16665   0.49999   0.04931   0.00000  Uiso   1.00
C173   C     0.01246   0.50000   0.14786   0.00000  Uiso   1.00
C174   C     0.32087   0.49988   0.18543   0.00000  Uiso   1.00
H175   H     0.32546   0.50025   0.11195   0.00000  Uiso   1.00
H176   H     0.00791   0.49959   0.22132   0.00000  Uiso   1.00
C177   C     0.13794   0.35500   0.13084   0.00000  Uiso   1.00
C178   C     0.19604   0.64488   0.20331   0.00000  Uiso   1.00
H179   H     0.11377   0.37206   0.10416   0.00000  Uiso   1.00
H180   H     0.21978   0.62775   0.23053   0.00000  Uiso   1.00
C181   C     0.13425   0.64553   0.13069   0.00000  Uiso   1.00
C182   C     0.19983   0.35443   0.20330   0.00000  Uiso   1.00
C183   C     0.16425   0.62379   0.16710   0.00000  Uiso   1.00
C184   C     0.16992   0.37615   0.16671   0.00000  Uiso   1.00
C185   C     0.13067   0.47722   0.01936   0.00000  Uiso   1.00
C186   C     0.20265   0.52264   0.31390   0.00000  Uiso   1.00
C187   C     0.13071   0.47786   0.30305   0.00000  Uiso   1.00
C188   C     0.20199   0.52285   0.03008   0.00000  Uiso   1.00
H189   H     0.10164   0.46100   0.27952   0.00000  Uiso   1.00
H190   H     0.22972   0.54153   0.05307   0.00000  Uiso   1.00
N191   N     0.09829   0.62501   0.09490   0.00000  Uiso   1.00
O192   O     0.06893   0.59517   0.10607   0.00000  Uiso   1.00
O193   O     0.08939   0.63996   0.05256   0.00000  Uiso   1.00
N194   N     0.23556   0.37505   0.23921   0.00000  Uiso   1.00
O195   O     0.26446   0.40527   0.22825   0.00000  Uiso   1.00
O196   O     0.24474   0.35987   0.28143   0.00000  Uiso   1.00
N197   N     0.09110   0.45516   0.03785   0.00000  Uiso   1.00
H198   H     0.05755   0.47194   0.03604   0.00000  Uiso   1.00
C199   C     0.08114   0.41316   0.02092   0.00000  Uiso   1.00
H200   H     0.05485   0.39778   0.04253   0.00000  Uiso   1.00
H201   H     0.11779   0.39565   0.02368   0.00000  Uiso   1.00
H202   H     0.06150   0.41261   0.31719   0.00000  Uiso   1.00
N203   N     0.23946   0.54744   0.29511   0.00000  Uiso   1.00
H204   H     0.23395   0.57855   0.30027   0.00000  Uiso   1.00
C205   C     0.29280   0.53583   0.30933   0.00000  Uiso   1.00
H206   H     0.31792   0.55350   0.28852   0.00000  Uiso   1.00
H207   H     0.29794   0.50234   0.30269   0.00000  Uiso   1.00
H208   H     0.30521   0.54291   0.01400   0.00000  Uiso   1.00
O209   O     0.50000   0.43989   0.20625   0.00000  Uiso   1.00
O210   O     0.50000   0.56011   0.12709   0.00000  Uiso   1.00
O211   O     0.50000   0.43988   0.12706   0.00000  Uiso   1.00
O212   O     0.50000   0.56012   0.20628   0.00000  Uiso   1.00
C213   C     0.50169   0.42082   0.16674   0.00000  Uiso   1.00
C214   C     0.49881   0.57918   0.16674   0.00000  Uiso   1.00
O215   O     0.42495   0.50000   0.19712   0.00000  Uiso   1.00
O216   O     0.57505   0.50000   0.13621   0.00000  Uiso   1.00
O217   O     0.42494   0.49999   0.11793   0.00000  Uiso   1.00
O218   O     0.57506   0.50001   0.21540   0.00000  Uiso   1.00
C219   C     0.40123   0.49991   0.15448   0.00000  Uiso   1.00
C220   C     0.59877   0.50005   0.17885   0.00000  Uiso   1.00
Cu221  Cu    0.50000   0.50001   0.21355   0.00000  Uiso   1.00
Cu222  Cu    0.50000   0.49999   0.11978   0.00000  Uiso   1.00
N223   N     0.50001   0.50001   0.28403   0.00000  Uiso   1.00
N224   N     0.49999   0.49999   0.04931   0.00000  Uiso   1.00
C225   C     0.34579   0.50000   0.14786   0.00000  Uiso   1.00
C226   C     0.65421   0.49988   0.18543   0.00000  Uiso   1.00
H227   H     0.65879   0.50025   0.11195   0.00000  Uiso   1.00
H228   H     0.34124   0.49959   0.22132   0.00000  Uiso   1.00
C229   C     0.47128   0.35500   0.13084   0.00000  Uiso   1.00
C230   C     0.52938   0.64488   0.20331   0.00000  Uiso   1.00
H231   H     0.44711   0.37206   0.10416   0.00000  Uiso   1.00
H232   H     0.55312   0.62775   0.23053   0.00000  Uiso   1.00
C233   C     0.46758   0.64553   0.13069   0.00000  Uiso   1.00
C234   C     0.53317   0.35443   0.20330   0.00000  Uiso   1.00
C235   C     0.49758   0.62379   0.16710   0.00000  Uiso   1.00
C236   C     0.50325   0.37615   0.16671   0.00000  Uiso   1.00
C237   C     0.46401   0.47722   0.01936   0.00000  Uiso   1.00
C238   C     0.53598   0.52264   0.31390   0.00000  Uiso   1.00
C239   C     0.46404   0.47786   0.30305   0.00000  Uiso   1.00
C240   C     0.53532   0.52285   0.03008   0.00000  Uiso   1.00
H241   H     0.43497   0.46100   0.27952   0.00000  Uiso   1.00
H242   H     0.56305   0.54153   0.05307   0.00000  Uiso   1.00
N243   N     0.43162   0.62501   0.09490   0.00000  Uiso   1.00
O244   O     0.40226   0.59517   0.10607   0.00000  Uiso   1.00
O245   O     0.42272   0.63996   0.05256   0.00000  Uiso   1.00
N246   N     0.56889   0.37505   0.23921   0.00000  Uiso   1.00
O247   O     0.59780   0.40527   0.22825   0.00000  Uiso   1.00
O248   O     0.57807   0.35987   0.28143   0.00000  Uiso   1.00
N249   N     0.42444   0.45516   0.03785   0.00000  Uiso   1.00
H250   H     0.39088   0.47194   0.03604   0.00000  Uiso   1.00
C251   C     0.41447   0.41316   0.02092   0.00000  Uiso   1.00
H252   H     0.38819   0.39778   0.04253   0.00000  Uiso   1.00
H253   H     0.45112   0.39565   0.02368   0.00000  Uiso   1.00
H254   H     0.39483   0.41261   0.31719   0.00000  Uiso   1.00
N255   N     0.57280   0.54744   0.29511   0.00000  Uiso   1.00
H256   H     0.56728   0.57855   0.30027   0.00000  Uiso   1.00
C257   C     0.62613   0.53583   0.30933   0.00000  Uiso   1.00
H258   H     0.65126   0.55350   0.28852   0.00000  Uiso   1.00
H259   H     0.63127   0.50234   0.30269   0.00000  Uiso   1.00
H260   H     0.63854   0.54291   0.01400   0.00000  Uiso   1.00
O261   O     0.83333   0.43989   0.20625   0.00000  Uiso   1.00
O262   O     0.83334   0.56011   0.12709   0.00000  Uiso   1.00
O263   O     0.83333   0.43988   0.12706   0.00000  Uiso   1.00
O264   O     0.83334   0.56012   0.20628   0.00000  Uiso   1.00
C265   C     0.83502   0.42082   0.16674   0.00000  Uiso   1.00
C266   C     0.83214   0.57918   0.16674   0.00000  Uiso   1.00
O267   O     0.75828   0.50000   0.19712   0.00000  Uiso   1.00
O268   O     0.90839   0.50000   0.13621   0.00000  Uiso   1.00
O269   O     0.75828   0.49999   0.11793   0.00000  Uiso   1.00
O270   O     0.90839   0.50001   0.21540   0.00000  Uiso   1.00
C271   C     0.73456   0.49991   0.15448   0.00000  Uiso   1.00
C272   C     0.93211   0.50005   0.17885   0.00000  Uiso   1.00
Cu273  Cu    0.83333   0.50001   0.21355   0.00000  Uiso   1.00
Cu274  Cu    0.83333   0.49999   0.11978   0.00000  Uiso   1.00
N275   N     0.83335   0.50001   0.28403   0.00000  Uiso   1.00
N276   N     0.83332   0.49999   0.04931   0.00000  Uiso   1.00
C277   C     0.67913   0.50000   0.14786   0.00000  Uiso   1.00
C278   C     0.98754   0.49988   0.18543   0.00000  Uiso   1.00
H279   H     0.99212   0.50025   0.11195   0.00000  Uiso   1.00
H280   H     0.67458   0.49959   0.22132   0.00000  Uiso   1.00
C281   C     0.80461   0.35500   0.13084   0.00000  Uiso   1.00
C282   C     0.86271   0.64488   0.20331   0.00000  Uiso   1.00
H283   H     0.78044   0.37206   0.10416   0.00000  Uiso   1.00
H284   H     0.88645   0.62775   0.23053   0.00000  Uiso   1.00
C285   C     0.80091   0.64553   0.13069   0.00000  Uiso   1.00
C286   C     0.86650   0.35443   0.20330   0.00000  Uiso   1.00
C287   C     0.83092   0.62379   0.16710   0.00000  Uiso   1.00
C288   C     0.83658   0.37615   0.16671   0.00000  Uiso   1.00
C289   C     0.79734   0.47722   0.01936   0.00000  Uiso   1.00
C290   C     0.86932   0.52264   0.31390   0.00000  Uiso   1.00
C291   C     0.79738   0.47786   0.30305   0.00000  Uiso   1.00
C292   C     0.86865   0.52285   0.03008   0.00000  Uiso   1.00
H293   H     0.76830   0.46100   0.27952   0.00000  Uiso   1.00
H294   H     0.89639   0.54153   0.05307   0.00000  Uiso   1.00
N295   N     0.76495   0.62501   0.09490   0.00000  Uiso   1.00
O296   O     0.73559   0.59517   0.10607   0.00000  Uiso   1.00
O297   O     0.75606   0.63996   0.05256   0.00000  Uiso   1.00
N298   N     0.90222   0.37505   0.23921   0.00000  Uiso   1.00
O299   O     0.93113   0.40527   0.22825   0.00000  Uiso   1.00
O300   O     0.91140   0.35987   0.28143   0.00000  Uiso   1.00
N301   N     0.75777   0.45516   0.03785   0.00000  Uiso   1.00
H302   H     0.72422   0.47194   0.03604   0.00000  Uiso   1.00
C303   C     0.74780   0.41316   0.02092   0.00000  Uiso   1.00
H304   H     0.72152   0.39778   0.04253   0.00000  Uiso   1.00
H305   H     0.78445   0.39565   0.02368   0.00000  Uiso   1.00
H306   H     0.72817   0.41261   0.31719   0.00000  Uiso   1.00
N307   N     0.90613   0.54744   0.29511   0.00000  Uiso   1.00
H308   H     0.90062   0.57855   0.30027   0.00000  Uiso   1.00
C309   C     0.95946   0.53583   0.30933   0.00000  Uiso   1.00
H310   H     0.98459   0.55350   0.28852   0.00000  Uiso   1.00
H311   H     0.96460   0.50234   0.30269   0.00000  Uiso   1.00
H312   H     0.97188   0.54291   0.01400   0.00000  Uiso   1.00
O313   O     0.16666   0.77322   0.20625   0.00000  Uiso   1.00
O314   O     0.16667   0.89345   0.12709   0.00000  Uiso   1.00
O315   O     0.16666   0.77321   0.12706   0.00000  Uiso   1.00
O316   O     0.16667   0.89346   0.20628   0.00000  Uiso   1.00
C317   C     0.16836   0.75415   0.16674   0.00000  Uiso   1.00
C318   C     0.16547   0.91251   0.16674   0.00000  Uiso   1.00
O319   O     0.09161   0.83334   0.19712   0.00000  Uiso   1.00
O320   O     0.24172   0.83333   0.13621   0.00000  Uiso   1.00
O321   O     0.09161   0.83333   0.11793   0.00000  Uiso   1.00
O322   O     0.24172   0.83334   0.21540   0.00000  Uiso   1.00
C323   C     0.06790   0.83324   0.15448   0.00000  Uiso   1.00
C324   C     0.26544   0.83338   0.17885   0.00000  Uiso   1.00
Cu325  Cu    0.16667   0.83334   0.21355   0.00000  Uiso   1.00
Cu326  Cu    0.16667   0.83333   0.11978   0.00000  Uiso   1.00
N327   N     0.16668   0.83334   0.28403   0.00000  Uiso   1.00
N328   N     0.16665   0.83332   0.04931   0.00000  Uiso   1.00
C329   C     0.01246   0.83333   0.14786   0.00000  Uiso   1.00
C330   C     0.32087   0.83322   0.18543   0.00000  Uiso   1.00
H331   H     0.32546   0.83358   0.11195   0.00000  Uiso   1.00
H332   H     0.00791   0.83292   0.22132   0.00000  Uiso   1.00
C333   C     0.13794   0.68833   0.13084   0.00000  Uiso   1.00
C334   C     0.19604   0.97822   0.20331   0.00000  Uiso   1.00
H335   H     0.11377   0.70539   0.10416   0.00000  Uiso   1.00
H336   H     0.21978   0.96109   0.23053   0.00000  Uiso   1.00
C337   C     0.13425   0.97886   0.13069   0.00000  Uiso   1.00
C338   C     0.19983   0.68777   0.20330   0.00000  Uiso   1.00
C339   C     0.16425   0.95713   0.16710   0.00000  Uiso   1.00
C340   C     0.16992   0.70948   0.16671   0.00000  Uiso   1.00
C341   C     0.13067   0.81056   0.01936   0.00000  Uiso   1.00
C342   C     0.20265   0.85597   0.31390   0.00000  Uiso   1.00
C343   C     0.13071   0.81119   0.30305   0.00000  Uiso   1.00
C344   C     0.20199   0.85618   0.03008   0.00000  Uiso   1.00
H345   H     0.10164   0.79433   0.27952   0.00000  Uiso   1.00
H346   H     0.22972   0.87486   0.05307   0.00000  Uiso   1.00
N347   N     0.09829   0.95834   0.09490   0.00000  Uiso   1.00
O348   O     0.06893   0.92851   0.10607   0.00000  Uiso   1.00
O349   O     0.08939   0.97329   0.05256   0.00000  Uiso   1.00
N350   N     0.23556   0.70838   0.23921   0.00000  Uiso   1.00
O351   O     0.26446   0.73860   0.22825   0.00000  Uiso   1.00
O352   O     0.24474   0.69321   0.28143   0.00000  Uiso   1.00
N353   N     0.09110   0.78849   0.03785   0.00000  Uiso   1.00
H354   H     0.05755   0.80527   0.03604   0.00000  Uiso   1.00
C355   C     0.08114   0.74649   0.02092   0.00000  Uiso   1.00
H356   H     0.05485   0.73112   0.04253   0.00000  Uiso   1.00
H357   H     0.11779   0.72898   0.02368   0.00000  Uiso   1.00
H358   H     0.06150   0.74594   0.31719   0.00000  Uiso   1.00
N359   N     0.23946   0.88078   0.29511   0.00000  Uiso   1.00
H360   H     0.23395   0.91188   0.30027   0.00000  Uiso   1.00
C361   C     0.29280   0.86916   0.30933   0.00000  Uiso   1.00
H362   H     0.31792   0.88684   0.28852   0.00000  Uiso   1.00
H363   H     0.29794   0.83568   0.30269   0.00000  Uiso   1.00
H364   H     0.30521   0.87624   0.01400   0.00000  Uiso   1.00
O365   O     0.50000   0.77322   0.20625   0.00000  Uiso   1.00
O366   O     0.50000   0.89345   0.12709   0.00000  Uiso   1.00
O367   O     0.50000   0.77321   0.12706   0.00000  Uiso   1.00
O368   O     0.50000   0.89346   0.20628   0.00000  Uiso   1.00
C369   C     0.50169   0.75415   0.16674   0.00000  Uiso   1.00
C370   C     0.49881   0.91251   0.16674   0.00000  Uiso   1.00
O371   O     0.42495   0.83334   0.19712   0.00000  Uiso   1.00
O372   O     0.57505   0.83333   0.13621   0.00000  Uiso   1.00
O373   O     0.42494   0.83333   0.11793   0.00000  Uiso   1.00
O374   O     0.57506   0.83334   0.21540   0.00000  Uiso   1.00
C375   C     0.40123   0.83324   0.15448   0.00000  Uiso   1.00
C376   C     0.59877   0.83338   0.17885   0.00000  Uiso   1.00
Cu377  Cu    0.50000   0.83334   0.21355   0.00000  Uiso   1.00
Cu378  Cu    0.50000   0.83333   0.11978   0.00000  Uiso   1.00
N379   N     0.50001   0.83334   0.28403   0.00000  Uiso   1.00
N380   N     0.49999   0.83332   0.04931   0.00000  Uiso   1.00
C381   C     0.34579   0.83333   0.14786   0.00000  Uiso   1.00
C382   C     0.65421   0.83322   0.18543   0.00000  Uiso   1.00
H383   H     0.65879   0.83358   0.11195   0.00000  Uiso   1.00
H384   H     0.34124   0.83292   0.22132   0.00000  Uiso   1.00
C385   C     0.47128   0.68833   0.13084   0.00000  Uiso   1.00
C386   C     0.52938   0.97822   0.20331   0.00000  Uiso   1.00
H387   H     0.44711   0.70539   0.10416   0.00000  Uiso   1.00
H388   H     0.55312   0.96109   0.23053   0.00000  Uiso   1.00
C389   C     0.46758   0.97886   0.13069   0.00000  Uiso   1.00
C390   C     0.53317   0.68777   0.20330   0.00000  Uiso   1.00
C391   C     0.49758   0.95713   0.16710   0.00000  Uiso   1.00
C392   C     0.50325   0.70948   0.16671   0.00000  Uiso   1.00
C393   C     0.46401   0.81056   0.01936   0.00000  Uiso   1.00
C394   C     0.53598   0.85597   0.31390   0.00000  Uiso   1.00
C395   C     0.46404   0.81119   0.30305   0.00000  Uiso   1.00
C396   C     0.53532   0.85618   0.03008   0.00000  Uiso   1.00
H397   H     0.43497   0.79433   0.27952   0.00000  Uiso   1.00
H398   H     0.56305   0.87486   0.05307   0.00000  Uiso   1.00
N399   N     0.43162   0.95834   0.09490   0.00000  Uiso   1.00
O400   O     0.40226   0.92851   0.10607   0.00000  Uiso   1.00
O401   O     0.42272   0.97329   0.05256   0.00000  Uiso   1.00
N402   N     0.56889   0.70838   0.23921   0.00000  Uiso   1.00
O403   O     0.59780   0.73860   0.22825   0.00000  Uiso   1.00
O404   O     0.57807   0.69321   0.28143   0.00000  Uiso   1.00
N405   N     0.42444   0.78849   0.03785   0.00000  Uiso   1.00
H406   H     0.39088   0.80527   0.03604   0.00000  Uiso   1.00
C407   C     0.41447   0.74649   0.02092   0.00000  Uiso   1.00
H408   H     0.38819   0.73112   0.04253   0.00000  Uiso   1.00
H409   H     0.45112   0.72898   0.02368   0.00000  Uiso   1.00
H410   H     0.39483   0.74594   0.31719   0.00000  Uiso   1.00
N411   N     0.57280   0.88078   0.29511   0.00000  Uiso   1.00
H412   H     0.56728   0.91188   0.30027   0.00000  Uiso   1.00
C413   C     0.62613   0.86916   0.30933   0.00000  Uiso   1.00
H414   H     0.65126   0.88684   0.28852   0.00000  Uiso   1.00
H415   H     0.63127   0.83568   0.30269   0.00000  Uiso   1.00
H416   H     0.63854   0.87624   0.01400   0.00000  Uiso   1.00
O417   O     0.83333   0.77322   0.20625   0.00000  Uiso   1.00
O418   O     0.83334   0.89345   0.12709   0.00000  Uiso   1.00
O419   O     0.83333   0.77321   0.12706   0.00000  Uiso   1.00
O420   O     0.83334   0.89346   0.20628   0.00000  Uiso   1.00
C421   C     0.83502   0.75415   0.16674   0.00000  Uiso   1.00
C422   C     0.83214   0.91251   0.16674   0.00000  Uiso   1.00
O423   O     0.75828   0.83334   0.19712   0.00000  Uiso   1.00
O424   O     0.90839   0.83333   0.13621   0.00000  Uiso   1.00
O425   O     0.75828   0.83333   0.11793   0.00000  Uiso   1.00
O426   O     0.90839   0.83334   0.21540   0.00000  Uiso   1.00
C427   C     0.73456   0.83324   0.15448   0.00000  Uiso   1.00
C428   C     0.93211   0.83338   0.17885   0.00000  Uiso   1.00
Cu429  Cu    0.83333   0.83334   0.21355   0.00000  Uiso   1.00
Cu430  Cu    0.83333   0.83333   0.11978   0.00000  Uiso   1.00
N431   N     0.83335   0.83334   0.28403   0.00000  Uiso   1.00
N432   N     0.83332   0.83332   0.04931   0.00000  Uiso   1.00
C433   C     0.67913   0.83333   0.14786   0.00000  Uiso   1.00
C434   C     0.98754   0.83322   0.18543   0.00000  Uiso   1.00
H435   H     0.99212   0.83358   0.11195   0.00000  Uiso   1.00
H436   H     0.67458   0.83292   0.22132   0.00000  Uiso   1.00
C437   C     0.80461   0.68833   0.13084   0.00000  Uiso   1.00
C438   C     0.86271   0.97822   0.20331   0.00000  Uiso   1.00
H439   H     0.78044   0.70539   0.10416   0.00000  Uiso   1.00
H440   H     0.88645   0.96109   0.23053   0.00000  Uiso   1.00
C441   C     0.80091   0.97886   0.13069   0.00000  Uiso   1.00
C442   C     0.86650   0.68777   0.20330   0.00000  Uiso   1.00
C443   C     0.83092   0.95713   0.16710   0.00000  Uiso   1.00
C444   C     0.83658   0.70948   0.16671   0.00000  Uiso   1.00
C445   C     0.79734   0.81056   0.01936   0.00000  Uiso   1.00
C446   C     0.86932   0.85597   0.31390   0.00000  Uiso   1.00
C447   C     0.79738   0.81119   0.30305   0.00000  Uiso   1.00
C448   C     0.86865   0.85618   0.03008   0.00000  Uiso   1.00
H449   H     0.76830   0.79433   0.27952   0.00000  Uiso   1.00
H450   H     0.89639   0.87486   0.05307   0.00000  Uiso   1.00
N451   N     0.76495   0.95834   0.09490   0.00000  Uiso   1.00
O452   O     0.73559   0.92851   0.10607   0.00000  Uiso   1.00
O453   O     0.75606   0.97329   0.05256   0.00000  Uiso   1.00
N454   N     0.90222   0.70838   0.23921   0.00000  Uiso   1.00
O455   O     0.93113   0.73860   0.22825   0.00000  Uiso   1.00
O456   O     0.91140   0.69321   0.28143   0.00000  Uiso   1.00
N457   N     0.75777   0.78849   0.03785   0.00000  Uiso   1.00
H458   H     0.72422   0.80527   0.03604   0.00000  Uiso   1.00
C459   C     0.74780   0.74649   0.02092   0.00000  Uiso   1.00
H460   H     0.72152   0.73112   0.04253   0.00000  Uiso   1.00
H461   H     0.78445   0.72898   0.02368   0.00000  Uiso   1.00
H462   H     0.72817   0.74594   0.31719   0.00000  Uiso   1.00
N463   N     0.90613   0.88078   0.29511   0.00000  Uiso   1.00
H464   H     0.90062   0.91188   0.30027   0.00000  Uiso   1.00
C465   C     0.95946   0.86916   0.30933   0.00000  Uiso   1.00
H466   H     0.98459   0.88684   0.28852   0.00000  Uiso   1.00
H467   H     0.96460   0.83568   0.30269   0.00000  Uiso   1.00
H468   H     0.97188   0.87624   0.01400   0.00000  Uiso   1.00
O469   O     0.16666   0.10655   0.53958   0.00000  Uiso   1.00
O470   O     0.16667   0.22678   0.46042   0.00000  Uiso   1.00
O471   O     0.16666   0.10654   0.46039   0.00000  Uiso   1.00
O472   O     0.16667   0.22679   0.53961   0.00000  Uiso   1.00
C473   C     0.16836   0.08748   0.50007   0.00000  Uiso   1.00
C474   C     0.16547   0.24584   0.50007   0.00000  Uiso   1.00
O475   O     0.09161   0.16667   0.53046   0.00000  Uiso   1.00
O476   O     0.24172   0.16666   0.46954   0.00000  Uiso   1.00
O477   O     0.09161   0.16666   0.45127   0.00000  Uiso   1.00
O478   O     0.24172   0.16667   0.54873   0.00000  Uiso   1.00
C479   C     0.06790   0.16658   0.48781   0.00000  Uiso   1.00
C480   C     0.26544   0.16671   0.51218   0.00000  Uiso   1.00
Cu481  Cu    0.16667   0.16667   0.54689   0.00000  Uiso   1.00
Cu482  Cu    0.16667   0.16666   0.45311   0.00000  Uiso   1.00
N483   N     0.16668   0.16668   0.61736   0.00000  Uiso   1.00
N484   N     0.16665   0.16666   0.38264   0.00000  Uiso   1.00
C485   C     0.01246   0.16667   0.48119   0.00000  Uiso   1.00
C486   C     0.32087   0.16655   0.51876   0.00000  Uiso   1.00
H487   H     0.32546   0.16691   0.44528   0.00000  Uiso   1.00
H488   H     0.00791   0.16626   0.55465   0.00000  Uiso   1.00
C489   C     0.13794   0.02166   0.46417   0.00000  Uiso   1.00
C490   C     0.19604   0.31155   0.53665   0.00000  Uiso   1.00
H491   H     0.11377   0.03873   0.43749   0.00000  Uiso   1.00
H492   H     0.21978   0.29442   0.56386   0.00000  Uiso   1.00
C493   C     0.13425   0.31220   0.46402   0.00000  Uiso   1.00
C494   C     0.19983   0.02110   0.53663   0.00000  Uiso   1.00
C495   C     0.16425   0.29046   0.50044   0.00000  Uiso   1.00
C496   C     0.16992   0.04282   0.50005   0.00000  Uiso   1.00
C497   C     0.13067   0.14389   0.35270   0.00000  Uiso   1.00
C498   C     0.20265   0.18930   0.64723   0.00000  Uiso   1.00
C499   C     0.13071   0.14453   0.63639   0.00000  Uiso   1.00
C500   C     0.20199   0.18952   0.36342   0.00000  Uiso   1.00
H501   H     0.10164   0.12766   0.61286   0.00000  Uiso   1.00
H502   H     0.22972   0.20819   0.38640   0.00000  Uiso   1.00
N503   N     0.09829   0.29167   0.42823   0.00000  Uiso   1.00
O504   O     0.06893   0.26184   0.43940   0.00000  Uiso   1.00
O505   O     0.08939   0.30662   0.38589   0.00000  Uiso   1.00
N506   N     0.23556   0.04171   0.57254   0.00000  Uiso   1.00
O507   O     0.26446   0.07193   0.56158   0.00000  Uiso   1.00
O508   O     0.24474   0.02654   0.61476   0.00000  Uiso   1.00
N509   N     0.09110   0.12183   0.37118   0.00000  Uiso   1.00
H510   H     0.05755   0.13860   0.36937   0.00000  Uiso   1.00
C511   C     0.08114   0.07983   0.35425   0.00000  Uiso   1.00
H512   H     0.05485   0.06445   0.37586   0.00000  Uiso   1.00
H513   H     0.11779   0.06231   0.35701   0.00000  Uiso   1.00
H514   H     0.06150   0.07928   0.65053   0.00000  Uiso   1.00
N515   N     0.23946   0.21411   0.62844   0.00000  Uiso   1.00
H516   H     0.23395   0.24521   0.63361   0.00000  Uiso   1.00
C517   C     0.29280   0.20249   0.64266   0.00000  Uiso   1.00
H518   H     0.31792   0.22017   0.62185   0.00000  Uiso   1.00
H519   H     0.29794   0.16901   0.63602   0.00000  Uiso   1.00
H520   H     0.30521   0.20958   0.34733   0.00000  Uiso   1.00
O521   O     0.50000   0.10655   0.53958   0.00000  Uiso   1.00
O522   O     0.50000   0.22678   0.46042   0.00000  Uiso   1.00
O523   O     0.50000   0.10654   0.46039   0.00000  Uiso   1.00
O524   O     0.50000   0.22679   0.53961   0.00000  Uiso   1.00
C525   C     0.50169   0.08748   0.50007   0.00000  Uiso   1.00
C526   C     0.49881   0.24584   0.50007   0.00000  Uiso   1.00
O527   O     0.42495   0.16667   0.53046   0.00000  Uiso   1.00
O528   O     0.57505   0.16666   0.46954   0.00000  Uiso   1.00
O529   O     0.42494   0.16666   0.45127   0.00000  Uiso   1.00
O530   O     0.57506   0.16667   0.54873   0.00000  Uiso   1.00
C531   C     0.40123   0.16658   0.48781   0.00000  Uiso   1.00
C532   C     0.59877   0.16671   0.51218   0.00000  Uiso   1.00
Cu533  Cu    0.50000   0.16667   0.54689   0.00000  Uiso   1.00
Cu534  Cu    0.50000   0.16666   0.45311   0.00000  Uiso   1.00
N535   N     0.50001   0.16668   0.61736   0.00000  Uiso   1.00
N536   N     0.49999   0.16666   0.38264   0.00000  Uiso   1.00
C537   C     0.34579   0.16667   0.48119   0.00000  Uiso   1.00
C538   C     0.65421   0.16655   0.51876   0.00000  Uiso   1.00
H539   H     0.65879   0.16691   0.44528   0.00000  Uiso   1.00
H540   H     0.34124   0.16626   0.55465   0.00000  Uiso   1.00
C541   C     0.47128   0.02166   0.46417   0.00000  Uiso   1.00
C542   C     0.52938   0.31155   0.53665   0.00000  Uiso   1.00
H543   H     0.44711   0.03873   0.43749   0.00000  Uiso   1.00
H544   H     0.55312   0.29442   0.56386   0.00000  Uiso   1.00
C545   C     0.46758   0.31220   0.46402   0.00000  Uiso   1.00
C546   C     0.53317   0.02110   0.53663   0.00000  Uiso   1.00
C547   C     0.49758   0.29046   0.50044   0.00000  Uiso   1.00
C548   C     0.50325   0.04282   0.50005   0.00000  Uiso   1.00
C549   C     0.46401   0.14389   0.35270   0.00000  Uiso   1.00
C550   C     0.53598   0.18930   0.64723   0.00000  Uiso   1.00
C551   C     0.46404   0.14453   0.63639   0.00000  Uiso   1.00
C552   C     0.53532   0.18952   0.36342   0.00000  Uiso   1.00
H553   H     0.43497   0.12766   0.61286   0.00000  Uiso   1.00
H554   H     0.56305   0.20819   0.38640   0.00000  Uiso   1.00
N555   N     0.43162   0.29167   0.42823   0.00000  Uiso   1.00
O556   O     0.40226   0.26184   0.43940   0.00000  Uiso   1.00
O557   O     0.42272   0.30662   0.38589   0.00000  Uiso   1.00
N558   N     0.56889   0.04171   0.57254   0.00000  Uiso   1.00
O559   O     0.59780   0.07193   0.56158   0.00000  Uiso   1.00
O560   O     0.57807   0.02654   0.61476   0.00000  Uiso   1.00
N561   N     0.42444   0.12183   0.37118   0.00000  Uiso   1.00
H562   H     0.39088   0.13860   0.36937   0.00000  Uiso   1.00
C563   C     0.41447   0.07983   0.35425   0.00000  Uiso   1.00
H564   H     0.38819   0.06445   0.37586   0.00000  Uiso   1.00
H565   H     0.45112   0.06231   0.35701   0.00000  Uiso   1.00
H566   H     0.39483   0.07928   0.65053   0.00000  Uiso   1.00
N567   N     0.57280   0.21411   0.62844   0.00000  Uiso   1.00
H568   H     0.56728   0.24521   0.63361   0.00000  Uiso   1.00
C569   C     0.62613   0.20249   0.64266   0.00000  Uiso   1.00
H570   H     0.65126   0.22017   0.62185   0.00000  Uiso   1.00
H571   H     0.63127   0.16901   0.63602   0.00000  Uiso   1.00
H572   H     0.63854   0.20958   0.34733   0.00000  Uiso   1.00
O573   O     0.83333   0.10655   0.53958   0.00000  Uiso   1.00
O574   O     0.83334   0.22678   0.46042   0.00000  Uiso   1.00
O575   O     0.83333   0.10654   0.46039   0.00000  Uiso   1.00
O576   O     0.83334   0.22679   0.53961   0.00000  Uiso   1.00
C577   C     0.83502   0.08748   0.50007   0.00000  Uiso   1.00
C578   C     0.83214   0.24584   0.50007   0.00000  Uiso   1.00
O579   O     0.75828   0.16667   0.53046   0.00000  Uiso   1.00
O580   O     0.90839   0.16666   0.46954   0.00000  Uiso   1.00
O581   O     0.75828   0.16666   0.45127   0.00000  Uiso   1.00
O582   O     0.90839   0.16667   0.54873   0.00000  Uiso   1.00
C583   C     0.73456   0.16658   0.48781   0.00000  Uiso   1.00
C584   C     0.93211   0.16671   0.51218   0.00000  Uiso   1.00
Cu585  Cu    0.83333   0.16667   0.54689   0.00000  Uiso   1.00
Cu586  Cu    0.83333   0.16666   0.45311   0.00000  Uiso   1.00
N587   N     0.83335   0.16668   0.61736   0.00000  Uiso   1.00
N588   N     0.83332   0.16666   0.38264   0.00000  Uiso   1.00
C589   C     0.67913   0.16667   0.48119   0.00000  Uiso   1.00
C590   C     0.98754   0.16655   0.51876   0.00000  Uiso   1.00
H591   H     0.99212   0.16691   0.44528   0.00000  Uiso   1.00
H592   H     0.67458   0.16626   0.55465   0.00000  Uiso   1.00
C593   C     0.80461   0.02166   0.46417   0.00000  Uiso   1.00
C594   C     0.86271   0.31155   0.53665   0.00000  Uiso   1.00
H595   H     0.78044   0.03873   0.43749   0.00000  Uiso   1.00
H596   H     0.88645   0.29442   0.56386   0.00000  Uiso   1.00
C597   C     0.80091   0.31220   0.46402   0.00000  Uiso   1.00
C598   C     0.86650   0.02110   0.53663   0.00000  Uiso   1.00
C599   C     0.83092   0.29046   0.50044   0.00000  Uiso   1.00
C600   C     0.83658   0.04282   0.50005   0.00000  Uiso   1.00
C601   C     0.79734   0.14389   0.35270   0.00000  Uiso   1.00
C602   C     0.86932   0.18930   0.64723   0.00000  Uiso   1.00
C603   C     0.79738   0.14453   0.63639   0.00000  Uiso   1.00
C604   C     0.86865   0.18952   0.36342   0.00000  Uiso   1.00
H605   H     0.76830   0.12766   0.61286   0.00000  Uiso   1.00
H606   H     0.89639   0.20819   0.38640   0.00000  Uiso   1.00
N607   N     0.76495   0.29167   0.42823   0.00000  Uiso   1.00
O608   O     0.73559   0.26184   0.43940   0.00000  Uiso   1.00
O609   O     0.75606   0.30662   0.38589   0.00000  Uiso   1.00
N610   N     0.90222   0.04171   0.57254   0.00000  Uiso   1.00
O611   O     0.93113   0.07193   0.56158   0.00000  Uiso   1.00
O612   O     0.91140   0.02654   0.61476   0.00000  Uiso   1.00
N613   N     0.75777   0.12183   0.37118   0.00000  Uiso   1.00
H614   H     0.72422   0.13860   0.36937   0.00000  Uiso   1.00
C615   C     0.74780   0.07983   0.35425   0.00000  Uiso   1.00
H616   H     0.72152   0.06445   0.37586   0.00000  Uiso   1.00
H617   H     0.78445   0.06231   0.35701   0.00000  Uiso   1.00
H618   H     0.72817   0.07928   0.65053   0.00000  Uiso   1.00
N619   N     0.90613   0.21411   0.62844   0.00000  Uiso   1.00
H620   H     0.90062   0.24521   0.63361   0.00000  Uiso   1.00
C621   C     0.95946   0.20249   0.64266   0.00000  Uiso   1.00
H622   H     0.98459   0.22017   0.62185   0.00000  Uiso   1.00
H623   H     0.96460   0.16901   0.63602   0.00000  Uiso   1.00
H624   H     0.97188   0.20958   0.34733   0.00000  Uiso   1.00
O625   O     0.16666   0.43989   0.53958   0.00000  Uiso   1.00
O626   O     0.16667   0.56011   0.46042   0.00000  Uiso   1.00
O627   O     0.16666   0.43988   0.46039   0.00000  Uiso   1.00
O628   O     0.16667   0.56012   0.53961   0.00000  Uiso   1.00
C629   C     0.16836   0.42082   0.50007   0.00000  Uiso   1.00
C630   C     0.16547   0.57918   0.50007   0.00000  Uiso   1.00
O631   O     0.09161   0.50000   0.53046   0.00000  Uiso   1.00
O632   O     0.24172   0.50000   0.46954   0.00000  Uiso   1.00
O633   O     0.09161   0.49999   0.45127   0.00000  Uiso   1.00
O634   O     0.24172   0.50001   0.54873   0.00000  Uiso   1.00
C635   C     0.06790   0.49991   0.48781   0.00000  Uiso   1.00
C636   C     0.26544   0.50005   0.51218   0.00000  Uiso   1.00
Cu637  Cu    0.16667   0.50001   0.54689   0.00000  Uiso   1.00
Cu638  Cu    0.16667   0.49999   0.45311   0.00000  Uiso   1.00
N639   N     0.16668   0.50001   0.61736   0.00000  Uiso   1.00
N640   N     0.16665   0.49999   0.38264   0.00000  Uiso   1.00
C641   C     0.01246   0.50000   0.48119   0.00000  Uiso   1.00
C642   C     0.32087   0.49988   0.51876   0.00000  Uiso   1.00
H643   H     0.32546   0.50025   0.44528   0.00000  Uiso   1.00
H644   H     0.00791   0.49959   0.55465   0.00000  Uiso   1.00
C645   C     0.13794   0.35500   0.46417   0.00000  Uiso   1.00
C646   C     0.19604   0.64488   0.53665   0.00000  Uiso   1.00
H647   H     0.11377   0.37206   0.43749   0.00000  Uiso   1.00
H648   H     0.21978   0.62775   0.56386   0.00000  Uiso   1.00
C649   C     0.13425   0.64553   0.46402   0.00000  Uiso   1.00
C650   C     0.19983   0.35443   0.53663   0.00000  Uiso   1.00
C651   C     0.16425   0.62379   0.50044   0.00000  Uiso   1.00
C652   C     0.16992   0.37615   0.50005   0.00000  Uiso   1.00
C653   C     0.13067   0.47722   0.35270   0.00000  Uiso   1.00
C654   C     0.20265   0.52264   0.64723   0.00000  Uiso   1.00
C655   C     0.13071   0.47786   0.63639   0.00000  Uiso   1.00
C656   C     0.20199   0.52285   0.36342   0.00000  Uiso   1.00
H657   H     0.10164   0.46100   0.61286   0.00000  Uiso   1.00
H658   H     0.22972   0.54153   0.38640   0.00000  Uiso   1.00
N659   N     0.09829   0.62501   0.42823   0.00000  Uiso   1.00
O660   O     0.06893   0.59517   0.43940   0.00000  Uiso   1.00
O661   O     0.08939   0.63996   0.38589   0.00000  Uiso   1.00
N662   N     0.23556   0.37505   0.57254   0.00000  Uiso   1.00
O663   O     0.26446   0.40527   0.56158   0.00000  Uiso   1.00
O664   O     0.24474   0.35987   0.61476   0.00000  Uiso   1.00
N665   N     0.09110   0.45516   0.37118   0.00000  Uiso   1.00
H666   H     0.05755   0.47194   0.36937   0.00000  Uiso   1.00
C667   C     0.08114   0.41316   0.35425   0.00000  Uiso   1.00
H668   H     0.05485   0.39778   0.37586   0.00000  Uiso   1.00
H669   H     0.11779   0.39565   0.35701   0.00000  Uiso   1.00
H670   H     0.06150   0.41261   0.65053   0.00000  Uiso   1.00
N671   N     0.23946   0.54744   0.62844   0.00000  Uiso   1.00
H672   H     0.23395   0.57855   0.63361   0.00000  Uiso   1.00
C673   C     0.29280   0.53583   0.64266   0.00000  Uiso   1.00
H674   H     0.31792   0.55350   0.62185   0.00000  Uiso   1.00
H675   H     0.29794   0.50234   0.63602   0.00000  Uiso   1.00
H676   H     0.30521   0.54291   0.34733   0.00000  Uiso   1.00
O677   O     0.50000   0.43989   0.53958   0.00000  Uiso   1.00
O678   O     0.50000   0.56011   0.46042   0.00000  Uiso   1.00
O679   O     0.50000   0.43988   0.46039   0.00000  Uiso   1.00
O680   O     0.50000   0.56012   0.53961   0.00000  Uiso   1.00
C681   C     0.50169   0.42082   0.50007   0.00000  Uiso   1.00
C682   C     0.49881   0.57918   0.50007   0.00000  Uiso   1.00
O683   O     0.42495   0.50000   0.53046   0.00000  Uiso   1.00
O684   O     0.57505   0.50000   0.46954   0.00000  Uiso   1.00
O685   O     0.42494   0.49999   0.45127   0.00000  Uiso   1.00
O686   O     0.57506   0.50001   0.54873   0.00000  Uiso   1.00
C687   C     0.40123   0.49991   0.48781   0.00000  Uiso   1.00
C688   C     0.59877   0.50005   0.51218   0.00000  Uiso   1.00
Cu689  Cu    0.50000   0.50001   0.54689   0.00000  Uiso   1.00
Cu690  Cu    0.50000   0.49999   0.45311   0.00000  Uiso   1.00
N691   N     0.50001   0.50001   0.61736   0.00000  Uiso   1.00
N692   N     0.49999   0.49999   0.38264   0.00000  Uiso   1.00
C693   C     0.34579   0.50000   0.48119   0.00000  Uiso   1.00
C694   C     0.65421   0.49988   0.51876   0.00000  Uiso   1.00
H695   H     0.65879   0.50025   0.44528   0.00000  Uiso   1.00
H696   H     0.34124   0.49959   0.55465   0.00000  Uiso   1.00
C697   C     0.47128   0.35500   0.46417   0.00000  Uiso   1.00
C698   C     0.52938   0.64488   0.53665   0.00000  Uiso   1.00
H699   H     0.44711   0.37206   0.43749   0.00000  Uiso   1.00
H700   H     0.55312   0.62775   0.56386   0.00000  Uiso   1.00
C701   C     0.46758   0.64553   0.46402   0.00000  Uiso   1.00
C702   C     0.53317   0.35443   0.53663   0.00000  Uiso   1.00
C703   C     0.49758   0.62379   0.50044   0.00000  Uiso   1.00
C704   C     0.50325   0.37615   0.50005   0.00000  Uiso   1.00
C705   C     0.46401   0.47722   0.35270   0.00000  Uiso   1.00
C706   C     0.53598   0.52264   0.64723   0.00000  Uiso   1.00
C707   C     0.46404   0.47786   0.63639   0.00000  Uiso   1.00
C708   C     0.53532   0.52285   0.36342   0.00000  Uiso   1.00
H709   H     0.43497   0.46100   0.61286   0.00000  Uiso   1.00
H710   H     0.56305   0.54153   0.38640   0.00000  Uiso   1.00
N711   N     0.43162   0.62501   0.42823   0.00000  Uiso   1.00
O712   O     0.40226   0.59517   0.43940   0.00000  Uiso   1.00
O713   O     0.42272   0.63996   0.38589   0.00000  Uiso   1.00
N714   N     0.56889   0.37505   0.57254   0.00000  Uiso   1.00
O715   O     0.59780   0.40527   0.56158   0.00000  Uiso   1.00
O716   O     0.57807   0.35987   0.61476   0.00000  Uiso   1.00
N717   N     0.42444   0.45516   0.37118   0.00000  Uiso   1.00
H718   H     0.39088   0.47194   0.36937   0.00000  Uiso   1.00
C719   C     0.41447   0.41316   0.35425   0.00000  Uiso   1.00
H720   H     0.38819   0.39778   0.37586   0.00000  Uiso   1.00
H721   H     0.45112   0.39565   0.35701   0.00000  Uiso   1.00
H722   H     0.39483   0.41261   0.65053   0.00000  Uiso   1.00
N723   N     0.57280   0.54744   0.62844   0.00000  Uiso   1.00
H724   H     0.56728   0.57855   0.63361   0.00000  Uiso   1.00
C725   C     0.62613   0.53583   0.64266   0.00000  Uiso   1.00
H726   H     0.65126   0.55350   0.62185   0.00000  Uiso   1.00
H727   H     0.63127   0.50234   0.63602   0.00000  Uiso   1.00
H728   H     0.63854   0.54291   0.34733   0.00000  Uiso   1.00
O729   O     0.83333   0.43989   0.53958   0.00000  Uiso   1.00
O730   O     0.83334   0.56011   0.46042   0.00000  Uiso   1.00
O731   O     0.83333   0.43988   0.46039   0.00000  Uiso   1.00
O732   O     0.83334   0.56012   0.53961   0.00000  Uiso   1.00
C733   C     0.83502   0.42082   0.50007   0.00000  Uiso   1.00
C734   C     0.83214   0.57918   0.50007   0.00000  Uiso   1.00
O735   O     0.75828   0.50000   0.53046   0.00000  Uiso   1.00
O736   O     0.90839   0.50000   0.46954   0.00000  Uiso   1.00
O737   O     0.75828   0.49999   0.45127   0.00000  Uiso   1.00
O738   O     0.90839   0.50001   0.54873   0.00000  Uiso   1.00
C739   C     0.73456   0.49991   0.48781   0.00000  Uiso   1.00
C740   C     0.93211   0.50005   0.51218   0.00000  Uiso   1.00
Cu741  Cu    0.83333   0.50001   0.54689   0.00000  Uiso   1.00
Cu742  Cu    0.83333   0.49999   0.45311   0.00000  Uiso   1.00
N743   N     0.83335   0.50001   0.61736   0.00000  Uiso   1.00
N744   N     0.83332   0.49999   0.38264   0.00000  Uiso   1.00
C745   C     0.67913   0.50000   0.48119   0.00000  Uiso   1.00
C746   C     0.98754   0.49988   0.51876   0.00000  Uiso   1.00
H747   H     0.99212   0.50025   0.44528   0.00000  Uiso   1.00
H748   H     0.67458   0.49959   0.55465   0.00000  Uiso   1.00
C749   C     0.80461   0.35500   0.46417   0.00000  Uiso   1.00
C750   C     0.86271   0.64488   0.53665   0.00000  Uiso   1.00
H751   H     0.78044   0.37206   0.43749   0.00000  Uiso   1.00
H752   H     0.88645   0.62775   0.56386   0.00000  Uiso   1.00
C753   C     0.80091   0.64553   0.46402   0.00000  Uiso   1.00
C754   C     0.86650   0.35443   0.53663   0.00000  Uiso   1.00
C755   C     0.83092   0.62379   0.50044   0.00000  Uiso   1.00
C756   C     0.83658   0.37615   0.50005   0.00000  Uiso   1.00
C757   C     0.79734   0.47722   0.35270   0.00000  Uiso   1.00
C758   C     0.86932   0.52264   0.64723   0.00000  Uiso   1.00
C759   C     0.79738   0.47786   0.63639   0.00000  Uiso   1.00
C760   C     0.86865   0.52285   0.36342   0.00000  Uiso   1.00
H761   H     0.76830   0.46100   0.61286   0.00000  Uiso   1.00
H762   H     0.89639   0.54153   0.38640   0.00000  Uiso   1.00
N763   N     0.76495   0.62501   0.42823   0.00000  Uiso   1.00
O764   O     0.73559   0.59517   0.43940   0.00000  Uiso   1.00
O765   O     0.75606   0.63996   0.38589   0.00000  Uiso   1.00
N766   N     0.90222   0.37505   0.57254   0.00000  Uiso   1.00
O767   O     0.93113   0.40527   0.56158   0.00000  Uiso   1.00
O768   O     0.91140   0.35987   0.61476   0.00000  Uiso   1.00
N769   N     0.75777   0.45516   0.37118   0.00000  Uiso   1.00
H770   H     0.72422   0.47194   0.36937   0.00000  Uiso   1.00
C771   C     0.74780   0.41316   0.35425   0.00000  Uiso   1.00
H772   H     0.72152   0.39778   0.37586   0.00000  Uiso   1.00
H773   H     0.78445   0.39565   0.35701   0.00000  Uiso   1.00
H774   H     0.72817   0.41261   0.65053   0.00000  Uiso   1.00
N775   N     0.90613   0.54744   0.62844   0.00000  Uiso   1.00
H776   H     0.90062   0.57855   0.63361   0.00000  Uiso   1.00
C777   C     0.95946   0.53583   0.64266   0.00000  Uiso   1.00
H778   H     0.98459   0.55350   0.62185   0.00000  Uiso   1.00
H779   H     0.96460   0.50234   0.63602   0.00000  Uiso   1.00
H780   H     0.97188   0.54291   0.34733   0.00000  Uiso   1.00
O781   O     0.16666   0.77322   0.53958   0.00000  Uiso   1.00
O782   O     0.16667   0.89345   0.46042   0.00000  Uiso   1.00
O783   O     0.16666   0.77321   0.46039   0.00000  Uiso   1.00
O784   O     0.16667   0.89346   0.53961   0.00000  Uiso   1.00
C785   C     0.16836   0.75415   0.50007   0.00000  Uiso   1.00
C786   C     0.16547   0.91251   0.50007   0.00000  Uiso   1.00
O787   O     0.09161   0.83334   0.53046   0.00000  Uiso   1.00
O788   O     0.24172   0.83333   0.46954   0.00000  Uiso   1.00
O789   O     0.09161   0.83333   0.45127   0.00000  Uiso   1.00
O790   O     0.24172   0.83334   0.54873   0.00000  Uiso   1.00
C791   C     0.06790   0.83324   0.48781   0.00000  Uiso   1.00
C792   C     0.26544   0.83338   0.51218   0.00000  Uiso   1.00
Cu793  Cu    0.16667   0.83334   0.54689   0.00000  Uiso   1.00
Cu794  Cu    0.16667   0.83333   0.45311   0.00000  Uiso   1.00
N795   N     0.16668   0.83334   0.61736   0.00000  Uiso   1.00
N796   N     0.16665   0.83332   0.38264   0.00000  Uiso   1.00
C797   C     0.01246   0.83333   0.48119   0.00000  Uiso   1.00
C798   C     0.32087   0.83322   0.51876   0.00000  Uiso   1.00
H799   H     0.32546   0.83358   0.44528   0.00000  Uiso   1.00
H800   H     0.00791   0.83292   0.55465   0.00000  Uiso   1.00
C801   C     0.13794   0.68833   0.46417   0.00000  Uiso   1.00
C802   C     0.19604   0.97822   0.53665   0.00000  Uiso   1.00
H803   H     0.11377   0.70539   0.43749   0.00000  Uiso   1.00
H804   H     0.21978   0.96109   0.56386   0.00000  Uiso   1.00
C805   C     0.13425   0.97886   0.46402   0.00000  Uiso   1.00
C806   C     0.19983   0.68777   0.53663   0.00000  Uiso   1.00
C807   C     0.16425   0.95713   0.50044   0.00000  Uiso   1.00
C808   C     0.16992   0.70948   0.50005   0.00000  Uiso   1.00
C809   C     0.13067   0.81056   0.35270   0.00000  Uiso   1.00
C810   C     0.20265   0.85597   0.64723   0.00000  Uiso   1.00
C811   C     0.13071   0.81119   0.63639   0.00000  Uiso   1.00
C812   C     0.20199   0.85618   0.36342   0.00000  Uiso   1.00
H813   H     0.10164   0.79433   0.61286   0.00000  Uiso   1.00
H814   H     0.22972   0.87486   0.38640   0.00000  Uiso   1.00
N815   N     0.09829   0.95834   0.42823   0.00000  Uiso   1.00
O816   O     0.06893   0.92851   0.43940   0.00000  Uiso   1.00
O817   O     0.08939   0.97329   0.38589   0.00000  Uiso   1.00
N818   N     0.23556   0.70838   0.57254   0.00000  Uiso   1.00
O819   O     0.26446   0.73860   0.56158   0.00000  Uiso   1.00
O820   O     0.24474   0.69321   0.61476   0.00000  Uiso   1.00
N821   N     0.09110   0.78849   0.37118   0.00000  Uiso   1.00
H822   H     0.05755   0.80527   0.36937   0.00000  Uiso   1.00
C823   C     0.08114   0.74649   0.35425   0.00000  Uiso   1.00
H824   H     0.05485   0.73112   0.37586   0.00000  Uiso   1.00
H825   H     0.11779   0.72898   0.35701   0.00000  Uiso   1.00
H826   H     0.06150   0.74594   0.65053   0.00000  Uiso   1.00
N827   N     0.23946   0.88078   0.62844   0.00000  Uiso   1.00
H828   H     0.23395   0.91188   0.63361   0.00000  Uiso   1.00
C829   C     0.29280   0.86916   0.64266   0.00000  Uiso   1.00
H830   H     0.31792   0.88684   0.62185   0.00000  Uiso   1.00
H831   H     0.29794   0.83568   0.63602   0.00000  Uiso   1.00
H832   H     0.30521   0.87624   0.34733   0.00000  Uiso   1.00
O833   O     0.50000   0.77322   0.53958   0.00000  Uiso   1.00
O834   O     0.50000   0.89345   0.46042   0.00000  Uiso   1.00
O835   O     0.50000   0.77321   0.46039   0.00000  Uiso   1.00
O836   O     0.50000   0.89346   0.53961   0.00000  Uiso   1.00
C837   C     0.50169   0.75415   0.50007   0.00000  Uiso   1.00
C838   C     0.49881   0.91251   0.50007   0.00000  Uiso   1.00
O839   O     0.42495   0.83334   0.53046   0.00000  Uiso   1.00
O840   O     0.57505   0.83333   0.46954   0.00000  Uiso   1.00
O841   O     0.42494   0.83333   0.45127   0.00000  Uiso   1.00
O842   O     0.57506   0.83334   0.54873   0.00000  Uiso   1.00
C843   C     0.40123   0.83324   0.48781   0.00000  Uiso   1.00
C844   C     0.59877   0.83338   0.51218   0.00000  Uiso   1.00
Cu845  Cu    0.50000   0.83334   0.54689   0.00000  Uiso   1.00
Cu846  Cu    0.50000   0.83333   0.45311   0.00000  Uiso   1.00
N847   N     0.50001   0.83334   0.61736   0.00000  Uiso   1.00
N848   N     0.49999   0.83332   0.38264   0.00000  Uiso   1.00
C849   C     0.34579   0.83333   0.48119   0.00000  Uiso   1.00
C850   C     0.65421   0.83322   0.51876   0.00000  Uiso   1.00
H851   H     0.65879   0.83358   0.44528   0.00000  Uiso   1.00
H852   H     0.34124   0.83292   0.55465   0.00000  Uiso   1.00
C853   C     0.47128   0.68833   0.46417   0.00000  Uiso   1.00
C854   C     0.52938   0.97822   0.53665   0.00000  Uiso   1.00
H855   H     0.44711   0.70539   0.43749   0.00000  Uiso   1.00
H856   H     0.55312   0.96109   0.56386   0.00000  Uiso   1.00
C857   C     0.46758   0.97886   0.46402   0.00000  Uiso   1.00
C858   C     0.53317   0.68777   0.53663   0.00000  Uiso   1.00
C859   C     0.49758   0.95713   0.50044   0.00000  Uiso   1.00
C860   C     0.50325   0.70948   0.50005   0.00000  Uiso   1.00
C861   C     0.46401   0.81056   0.35270   0.00000  Uiso   1.00
C862   C     0.53598   0.85597   0.64723   0.00000  Uiso   1.00
C863   C     0.46404   0.81119   0.63639   0.00000  Uiso   1.00
C864   C     0.53532   0.85618   0.36342   0.00000  Uiso   1.00
H865   H     0.43497   0.79433   0.61286   0.00000  Uiso   1.00
H866   H     0.56305   0.87486   0.38640   0.00000  Uiso   1.00
N867   N     0.43162   0.95834   0.42823   0.00000  Uiso   1.00
O868   O     0.40226   0.92851   0.43940   0.00000  Uiso   1.00
O869   O     0.42272   0.97329   0.38589   0.00000  Uiso   1.00
N870   N     0.56889   0.70838   0.57254   0.00000  Uiso   1.00
O871   O     0.59780   0.73860   0.56158   0.00000  Uiso   1.00
O872   O     0.57807   0.69321   0.61476   0.00000  Uiso   1.00
N873   N     0.42444   0.78849   0.37118   0.00000  Uiso   1.00
H874   H     0.39088   0.80527   0.36937   0.00000  Uiso   1.00
C875   C     0.41447   0.74649   0.35425   0.00000  Uiso   1.00
H876   H     0.38819   0.73112   0.37586   0.00000  Uiso   1.00
H877   H     0.45112   0.72898   0.35701   0.00000  Uiso   1.00
H878   H     0.39483   0.74594   0.65053   0.00000  Uiso   1.00
N879   N     0.57280   0.88078   0.62844   0.00000  Uiso   1.00
H880   H     0.56728   0.91188   0.63361   0.00000  Uiso   1.00
C881   C     0.62613   0.86916   0.64266   0.00000  Uiso   1.00
H882   H     0.65126   0.88684   0.62185   0.00000  Uiso   1.00
H883   H     0.63127   0.83568   0.63602   0.00000  Uiso   1.00
H884   H     0.63854   0.87624   0.34733   0.00000  Uiso   1.00
O885   O     0.83333   0.77322   0.53958   0.00000  Uiso   1.00
O886   O     0.83334   0.89345   0.46042   0.00000  Uiso   1.00
O887   O     0.83333   0.77321   0.46039   0.00000  Uiso   1.00
O888   O     0.83334   0.89346   0.53961   0.00000  Uiso   1.00
C889   C     0.83502   0.75415   0.50007   0.00000  Uiso   1.00
C890   C     0.83214   0.91251   0.50007   0.00000  Uiso   1.00
O891   O     0.75828   0.83334   0.53046   0.00000  Uiso   1.00
O892   O     0.90839   0.83333   0.46954   0.00000  Uiso   1.00
O893   O     0.75828   0.83333   0.45127   0.00000  Uiso   1.00
O894   O     0.90839   0.83334   0.54873   0.00000  Uiso   1.00
C895   C     0.73456   0.83324   0.48781   0.00000  Uiso   1.00
C896   C     0.93211   0.83338   0.51218   0.00000  Uiso   1.00
Cu897  Cu    0.83333   0.83334   0.54689   0.00000  Uiso   1.00
Cu898  Cu    0.83333   0.83333   0.45311   0.00000  Uiso   1.00
N899   N     0.83335   0.83334   0.61736   0.00000  Uiso   1.00
N900   N     0.83332   0.83332   0.38264   0.00000  Uiso   1.00
C901   C     0.67913   0.83333   0.48119   0.00000  Uiso   1.00
C902   C     0.98754   0.83322   0.51876   0.00000  Uiso   1.00
H903   H     0.99212   0.83358   0.44528   0.00000  Uiso   1.00
H904   H     0.67458   0.83292   0.55465   0.00000  Uiso   1.00
C905   C     0.80461   0.68833   0.46417   0.00000  Uiso   1.00
C906   C     0.86271   0.97822   0.53665   0.00000  Uiso   1.00
H907   H     0.78044   0.70539   0.43749   0.00000  Uiso   1.00
H908   H     0.88645   0.96109   0.56386   0.00000  Uiso   1.00
C909   C     0.80091   0.97886   0.46402   0.00000  Uiso   1.00
C910   C     0.86650   0.68777   0.53663   0.00000  Uiso   1.00
C911   C     0.83092   0.95713   0.50044   0.00000  Uiso   1.00
C912   C     0.83658   0.70948   0.50005   0.00000  Uiso   1.00
C913   C     0.79734   0.81056   0.35270   0.00000  Uiso   1.00
C914   C     0.86932   0.85597   0.64723   0.00000  Uiso   1.00
C915   C     0.79738   0.81119   0.63639   0.00000  Uiso   1.00
C916   C     0.86865   0.85618   0.36342   0.00000  Uiso   1.00
H917   H     0.76830   0.79433   0.61286   0.00000  Uiso   1.00
H918   H     0.89639   0.87486   0.38640   0.00000  Uiso   1.00
N919   N     0.76495   0.95834   0.42823   0.00000  Uiso   1.00
O920   O     0.73559   0.92851   0.43940   0.00000  Uiso   1.00
O921   O     0.75606   0.97329   0.38589   0.00000  Uiso   1.00
N922   N     0.90222   0.70838   0.57254   0.00000  Uiso   1.00
O923   O     0.93113   0.73860   0.56158   0.00000  Uiso   1.00
O924   O     0.91140   0.69321   0.61476   0.00000  Uiso   1.00
N925   N     0.75777   0.78849   0.37118   0.00000  Uiso   1.00
H926   H     0.72422   0.80527   0.36937   0.00000  Uiso   1.00
C927   C     0.74780   0.74649   0.35425   0.00000  Uiso   1.00
H928   H     0.72152   0.73112   0.37586   0.00000  Uiso   1.00
H929   H     0.78445   0.72898   0.35701   0.00000  Uiso   1.00
H930   H     0.72817   0.74594   0.65053   0.00000  Uiso   1.00
N931   N     0.90613   0.88078   0.62844   0.00000  Uiso   1.00
H932   H     0.90062   0.91188   0.63361   0.00000  Uiso   1.00
C933   C     0.95946   0.86916   0.64266   0.00000  Uiso   1.00
H934   H     0.98459   0.88684   0.62185   0.00000  Uiso   1.00
H935   H     0.96460   0.83568   0.63602   0.00000  Uiso   1.00
H936   H     0.97188   0.87624   0.34733   0.00000  Uiso   1.00
O937   O     0.16666   0.10655   0.87291   0.00000  Uiso   1.00
O938   O     0.16667   0.22678   0.79375   0.00000  Uiso   1.00
O939   O     0.16666   0.10654   0.79372   0.00000  Uiso   1.00
O940   O     0.16667   0.22679   0.87294   0.00000  Uiso   1.00
C941   C     0.16836   0.08748   0.83340   0.00000  Uiso   1.00
C942   C     0.16547   0.24584   0.83340   0.00000  Uiso   1.00
O943   O     0.09161   0.16667   0.86379   0.00000  Uiso   1.00
O944   O     0.24172   0.16666   0.80288   0.00000  Uiso   1.00
O945   O     0.09161   0.16666   0.78460   0.00000  Uiso   1.00
O946   O     0.24172   0.16667   0.88207   0.00000  Uiso   1.00
C947   C     0.06790   0.16658   0.82114   0.00000  Uiso   1.00
C948   C     0.26544   0.16671   0.84551   0.00000  Uiso   1.00
Cu949  Cu    0.16667   0.16667   0.88022   0.00000  Uiso   1.00
Cu950  Cu    0.16667   0.16666   0.78645   0.00000  Uiso   1.00
N951   N     0.16668   0.16668   0.95069   0.00000  Uiso   1.00
N952   N     0.16665   0.16666   0.71597   0.00000  Uiso   1.00
C953   C     0.01246   0.16667   0.81453   0.00000  Uiso   1.00
C954   C     0.32087   0.16655   0.85210   0.00000  Uiso   1.00
H955   H     0.32546   0.16691   0.77861   0.00000  Uiso   1.00
H956   H     0.00791   0.16626   0.88798   0.00000  Uiso   1.00
C957   C     0.13794   0.02166   0.79750   0.00000  Uiso   1.00
C958   C     0.19604   0.31155   0.86998   0.00000  Uiso   1.00
H959   H     0.11377   0.03873   0.77082   0.00000  Uiso   1.00
H960   H     0.21978   0.29442   0.89720   0.00000  Uiso   1.00
C961   C     0.13425   0.31220   0.79735   0.00000  Uiso   1.00
C962   C     0.19983   0.02110   0.86997   0.00000  Uiso   1.00
C963   C     0.16425   0.29046   0.83377   0.00000  Uiso   1.00
C964   C     0.16992   0.04282   0.83338   0.00000  Uiso   1.00
C965   C     0.13067   0.14389   0.68603   0.00000  Uiso   1.00
C966   C     0.20265   0.18930   0.98056   0.00000  Uiso   1.00
C967   C     0.13071   0.14453   0.96972   0.00000  Uiso   1.00
C968   C     0.20199   0.18952   0.69675   0.00000  Uiso   1.00
H969   H     0.10164   0.12766   0.94619   0.00000  Uiso   1.00
H970   H     0.22972   0.20819   0.71973   0.00000  Uiso   1.00
N971   N     0.09829   0.29167   0.76157   0.00000  Uiso   1.00
O972   O     0.06893   0.26184   0.77273   0.00000  Uiso   1.00
O973   O     0.08939   0.30662   0.71922   0.00000  Uiso   1.00
N974   N     0.23556   0.04171   0.90587   0.00000  Uiso   1.00
O975   O     0.26446   0.07193   0.89491   0.00000  Uiso   1.00
O976   O     0.24474   0.02654   0.94809   0.00000  Uiso   1.00
N977   N     0.09110   0.12183   0.70452   0.00000  Uiso   1.00
H978   H     0.05755   0.13860   0.70271   0.00000  Uiso   1.00
C979   C     0.08114   0.07983   0.68758   0.00000  Uiso   1.00
H980   H     0.05485   0.06445   0.70919   0.00000  Uiso   1.00
H981   H     0.11779   0.06231   0.69034   0.00000  Uiso   1.00
H982   H     0.06150   0.07928   0.98386   0.00000  Uiso   1.00
N983   N     0.23946   0.21411   0.96177   0.00000  Uiso   1.00
H984   H     0.23395   0.24521   0.96694   0.00000  Uiso   1.00
C985   C     0.29280   0.20249   0.97599   0.00000  Uiso   1.00
H986   H     0.31792   0.22017   0.95518   0.00000  Uiso   1.00
H987   H     0.29794   0.16901   0.96936   0.00000  Uiso   1.00
H988   H     0.30521   0.20958   0.68067   0.00000  Uiso   1.00
O989   O     0.50000   0.10655   0.87291   0.00000  Uiso   1.00
O990   O     0.50000   0.22678   0.79375   0.00000  Uiso   1.00
O991   O     0.50000   0.10654   0.79372   0.00000  Uiso   1.00
O992   O     0.50000   0.22679   0.87294   0.00000  Uiso   1.00
C993   C     0.50169   0.08748   0.83340   0.00000  Uiso   1.00
C994   C     0.49881   0.24584   0.83340   0.00000  Uiso   1.00
O995   O     0.42495   0.16667   0.86379   0.00000  Uiso   1.00
O996   O     0.57505   0.16666   0.80288   0.00000  Uiso   1.00
O997   O     0.42494   0.16666   0.78460   0.00000  Uiso   1.00
O998   O     0.57506   0.16667   0.88207   0.00000  Uiso   1.00
C999   C     0.40123   0.16658   0.82114   0.00000  Uiso   1.00
C1000  C     0.59877   0.16671   0.84551   0.00000  Uiso   1.00
Cu1001 Cu    0.50000   0.16667   0.88022   0.00000  Uiso   1.00
Cu1002 Cu    0.50000   0.16666   0.78645   0.00000  Uiso   1.00
N1003  N     0.50001   0.16668   0.95069   0.00000  Uiso   1.00
N1004  N     0.49999   0.16666   0.71597   0.00000  Uiso   1.00
C1005  C     0.34579   0.16667   0.81453   0.00000  Uiso   1.00
C1006  C     0.65421   0.16655   0.85210   0.00000  Uiso   1.00
H1007  H     0.65879   0.16691   0.77861   0.00000  Uiso   1.00
H1008  H     0.34124   0.16626   0.88798   0.00000  Uiso   1.00
C1009  C     0.47128   0.02166   0.79750   0.00000  Uiso   1.00
C1010  C     0.52938   0.31155   0.86998   0.00000  Uiso   1.00
H1011  H     0.44711   0.03873   0.77082   0.00000  Uiso   1.00
H1012  H     0.55312   0.29442   0.89720   0.00000  Uiso   1.00
C1013  C     0.46758   0.31220   0.79735   0.00000  Uiso   1.00
C1014  C     0.53317   0.02110   0.86997   0.00000  Uiso   1.00
C1015  C     0.49758   0.29046   0.83377   0.00000  Uiso   1.00
C1016  C     0.50325   0.04282   0.83338   0.00000  Uiso   1.00
C1017  C     0.46401   0.14389   0.68603   0.00000  Uiso   1.00
C1018  C     0.53598   0.18930   0.98056   0.00000  Uiso   1.00
C1019  C     0.46404   0.14453   0.96972   0.00000  Uiso   1.00
C1020  C     0.53532   0.18952   0.69675   0.00000  Uiso   1.00
H1021  H     0.43497   0.12766   0.94619   0.00000  Uiso   1.00
H1022  H     0.56305   0.20819   0.71973   0.00000  Uiso   1.00
N1023  N     0.43162   0.29167   0.76157   0.00000  Uiso   1.00
O1024  O     0.40226   0.26184   0.77273   0.00000  Uiso   1.00
O1025  O     0.42272   0.30662   0.71922   0.00000  Uiso   1.00
N1026  N     0.56889   0.04171   0.90587   0.00000  Uiso   1.00
O1027  O     0.59780   0.07193   0.89491   0.00000  Uiso   1.00
O1028  O     0.57807   0.02654   0.94809   0.00000  Uiso   1.00
N1029  N     0.42444   0.12183   0.70452   0.00000  Uiso   1.00
H1030  H     0.39088   0.13860   0.70271   0.00000  Uiso   1.00
C1031  C     0.41447   0.07983   0.68758   0.00000  Uiso   1.00
H1032  H     0.38819   0.06445   0.70919   0.00000  Uiso   1.00
H1033  H     0.45112   0.06231   0.69034   0.00000  Uiso   1.00
H1034  H     0.39483   0.07928   0.98386   0.00000  Uiso   1.00
N1035  N     0.57280   0.21411   0.96177   0.00000  Uiso   1.00
H1036  H     0.56728   0.24521   0.96694   0.00000  Uiso   1.00
C1037  C     0.62613   0.20249   0.97599   0.00000  Uiso   1.00
H1038  H     0.65126   0.22017   0.95518   0.00000  Uiso   1.00
H1039  H     0.63127   0.16901   0.96936   0.00000  Uiso   1.00
H1040  H     0.63854   0.20958   0.68067   0.00000  Uiso   1.00
O1041  O     0.83333   0.10655   0.87291   0.00000  Uiso   1.00
O1042  O     0.83334   0.22678   0.79375   0.00000  Uiso   1.00
O1043  O     0.83333   0.10654   0.79372   0.00000  Uiso   1.00
O1044  O     0.83334   0.22679   0.87294   0.00000  Uiso   1.00
C1045  C     0.83502   0.08748   0.83340   0.00000  Uiso   1.00
C1046  C     0.83214   0.24584   0.83340   0.00000  Uiso   1.00
O1047  O     0.75828   0.16667   0.86379   0.00000  Uiso   1.00
O1048  O     0.90839   0.16666   0.80288   0.00000  Uiso   1.00
O1049  O     0.75828   0.16666   0.78460   0.00000  Uiso   1.00
O1050  O     0.90839   0.16667   0.88207   0.00000  Uiso   1.00
C1051  C     0.73456   0.16658   0.82114   0.00000  Uiso   1.00
C1052  C     0.93211   0.16671   0.84551   0.00000  Uiso   1.00
Cu1053 Cu    0.83333   0.16667   0.88022   0.00000  Uiso   1.00
Cu1054 Cu    0.83333   0.16666   0.78645   0.00000  Uiso   1.00
N1055  N     0.83335   0.16668   0.95069   0.00000  Uiso   1.00
N1056  N     0.83332   0.16666   0.71597   0.00000  Uiso   1.00
C1057  C     0.67913   0.16667   0.81453   0.00000  Uiso   1.00
C1058  C     0.98754   0.16655   0.85210   0.00000  Uiso   1.00
H1059  H     0.99212   0.16691   0.77861   0.00000  Uiso   1.00
H1060  H     0.67458   0.16626   0.88798   0.00000  Uiso   1.00
C1061  C     0.80461   0.02166   0.79750   0.00000  Uiso   1.00
C1062  C     0.86271   0.31155   0.86998   0.00000  Uiso   1.00
H1063  H     0.78044   0.03873   0.77082   0.00000  Uiso   1.00
H1064  H     0.88645   0.29442   0.89720   0.00000  Uiso   1.00
C1065  C     0.80091   0.31220   0.79735   0.00000  Uiso   1.00
C1066  C     0.86650   0.02110   0.86997   0.00000  Uiso   1.00
C1067  C     0.83092   0.29046   0.83377   0.00000  Uiso   1.00
C1068  C     0.83658   0.04282   0.83338   0.00000  Uiso   1.00
C1069  C     0.79734   0.14389   0.68603   0.00000  Uiso   1.00
C1070  C     0.86932   0.18930   0.98056   0.00000  Uiso   1.00
C1071  C     0.79738   0.14453   0.96972   0.00000  Uiso   1.00
C1072  C     0.86865   0.18952   0.69675   0.00000  Uiso   1.00
H1073  H     0.76830   0.12766   0.94619   0.00000  Uiso   1.00
H1074  H     0.89639   0.20819   0.71973   0.00000  Uiso   1.00
N1075  N     0.76495   0.29167   0.76157   0.00000  Uiso   1.00
O1076  O     0.73559   0.26184   0.77273   0.00000  Uiso   1.00
O1077  O     0.75606   0.30662   0.71922   0.00000  Uiso   1.00
N1078  N     0.90222   0.04171   0.90587   0.00000  Uiso   1.00
O1079  O     0.93113   0.07193   0.89491   0.00000  Uiso   1.00
O1080  O     0.91140   0.02654   0.94809   0.00000  Uiso   1.00
N1081  N     0.75777   0.12183   0.70452   0.00000  Uiso   1.00
H1082  H     0.72422   0.13860   0.70271   0.00000  Uiso   1.00
C1083  C     0.74780   0.07983   0.68758   0.00000  Uiso   1.00
H1084  H     0.72152   0.06445   0.70919   0.00000  Uiso   1.00
H1085  H     0.78445   0.06231   0.69034   0.00000  Uiso   1.00
H1086  H     0.72817   0.07928   0.98386   0.00000  Uiso   1.00
N1087  N     0.90613   0.21411   0.96177   0.00000  Uiso   1.00
H1088  H     0.90062   0.24521   0.96694   0.00000  Uiso   1.00
C1089  C     0.95946   0.20249   0.97599   0.00000  Uiso   1.00
H1090  H     0.98459   0.22017   0.95518   0.00000  Uiso   1.00
H1091  H     0.96460   0.16901   0.96936   0.00000  Uiso   1.00
H1092  H     0.97188   0.20958   0.68067   0.00000  Uiso   1.00
O1093  O     0.16666   0.43989   0.87291   0.00000  Uiso   1.00
O1094  O     0.16667   0.56011   0.79375   0.00000  Uiso   1.00
O1095  O     0.16666   0.43988   0.79372   0.00000  Uiso   1.00
O1096  O     0.16667   0.56012   0.87294   0.00000  Uiso   1.00
C1097  C     0.16836   0.42082   0.83340   0.00000  Uiso   1.00
C1098  C     0.16547   0.57918   0.83340   0.00000  Uiso   1.00
O1099  O     0.09161   0.50000   0.86379   0.00000  Uiso   1.00
O1100  O     0.24172   0.50000   0.80288   0.00000  Uiso   1.00
O1101  O     0.09161   0.49999   0.78460   0.00000  Uiso   1.00
O1102  O     0.24172   0.50001   0.88207   0.00000  Uiso   1.00
C1103  C     0.06790   0.49991   0.82114   0.00000  Uiso   1.00
C1104  C     0.26544   0.50005   0.84551   0.00000  Uiso   1.00
Cu1105 Cu    0.16667   0.50001   0.88022   0.00000  Uiso   1.00
Cu1106 Cu    0.16667   0.49999   0.78645   0.00000  Uiso   1.00
N1107  N     0.16668   0.50001   0.95069   0.00000  Uiso   1.00
N1108  N     0.16665   0.49999   0.71597   0.00000  Uiso   1.00
C1109  C     0.01246   0.50000   0.81453   0.00000  Uiso   1.00
C1110  C     0.32087   0.49988   0.85210   0.00000  Uiso   1.00
H1111  H     0.32546   0.50025   0.77861   0.00000  Uiso   1.00
H1112  H     0.00791   0.49959   0.88798   0.00000  Uiso   1.00
C1113  C     0.13794   0.35500   0.79750   0.00000  Uiso   1.00
C1114  C     0.19604   0.64488   0.86998   0.00000  Uiso   1.00
H1115  H     0.11377   0.37206   0.77082   0.00000  Uiso   1.00
H1116  H     0.21978   0.62775   0.89720   0.00000  Uiso   1.00
C1117  C     0.13425   0.64553   0.79735   0.00000  Uiso   1.00
C1118  C     0.19983   0.35443   0.86997   0.00000  Uiso   1.00
C1119  C     0.16425   0.62379   0.83377   0.00000  Uiso   1.00
C1120  C     0.16992   0.37615   0.83338   0.00000  Uiso   1.00
C1121  C     0.13067   0.47722   0.68603   0.00000  Uiso   1.00
C1122  C     0.20265   0.52264   0.98056   0.00000  Uiso   1.00
C1123  C     0.13071   0.47786   0.96972   0.00000  Uiso   1.00
C1124  C     0.20199   0.52285   0.69675   0.00000  Uiso   1.00
H1125  H     0.10164   0.46100   0.94619   0.00000  Uiso   1.00
H1126  H     0.22972   0.54153   0.71973   0.00000  Uiso   1.00
N1127  N     0.09829   0.62501   0.76157   0.00000  Uiso   1.00
O1128  O     0.06893   0.59517   0.77273   0.00000  Uiso   1.00
O1129  O     0.08939   0.63996   0.71922   0.00000  Uiso   1.00
N1130  N     0.23556   0.37505   0.90587   0.00000  Uiso   1.00
O1131  O     0.26446   0.40527   0.89491   0.00000  Uiso   1.00
O1132  O     0.24474   0.35987   0.94809   0.00000  Uiso   1.00
N1133  N     0.09110   0.45516   0.70452   0.00000  Uiso   1.00
H1134  H     0.05755   0.47194   0.70271   0.00000  Uiso   1.00
C1135  C     0.08114   0.41316   0.68758   0.00000  Uiso   1.00
H1136  H     0.05485   0.39778   0.70919   0.00000  Uiso   1.00
H1137  H     0.11779   0.39565   0.69034   0.00000  Uiso   1.00
H1138  H     0.06150   0.41261   0.98386   0.00000  Uiso   1.00
N1139  N     0.23946   0.54744   0.96177   0.00000  Uiso   1.00
H1140  H     0.23395   0.57855   0.96694   0.00000  Uiso   1.00
C1141  C     0.29280   0.53583   0.97599   0.00000  Uiso   1.00
H1142  H     0.31792   0.55350   0.95518   0.00000  Uiso   1.00
H1143  H     0.29794   0.50234   0.96936   0.00000  Uiso   1.00
H1144  H     0.30521   0.54291   0.68067   0.00000  Uiso   1.00
O1145  O     0.50000   0.43989   0.87291   0.00000  Uiso   1.00
O1146  O     0.50000   0.56011   0.79375   0.00000  Uiso   1.00
O1147  O     0.50000   0.43988   0.79372   0.00000  Uiso   1.00
O1148  O     0.50000   0.56012   0.87294   0.00000  Uiso   1.00
C1149  C     0.50169   0.42082   0.83340   0.00000  Uiso   1.00
C1150  C     0.49881   0.57918   0.83340   0.00000  Uiso   1.00
O1151  O     0.42495   0.50000   0.86379   0.00000  Uiso   1.00
O1152  O     0.57505   0.50000   0.80288   0.00000  Uiso   1.00
O1153  O     0.42494   0.49999   0.78460   0.00000  Uiso   1.00
O1154  O     0.57506   0.50001   0.88207   0.00000  Uiso   1.00
C1155  C     0.40123   0.49991   0.82114   0.00000  Uiso   1.00
C1156  C     0.59877   0.50005   0.84551   0.00000  Uiso   1.00
Cu1157 Cu    0.50000   0.50001   0.88022   0.00000  Uiso   1.00
Cu1158 Cu    0.50000   0.49999   0.78645   0.00000  Uiso   1.00
N1159  N     0.50001   0.50001   0.95069   0.00000  Uiso   1.00
N1160  N     0.49999   0.49999   0.71597   0.00000  Uiso   1.00
C1161  C     0.34579   0.50000   0.81453   0.00000  Uiso   1.00
C1162  C     0.65421   0.49988   0.85210   0.00000  Uiso   1.00
H1163  H     0.65879   0.50025   0.77861   0.00000  Uiso   1.00
H1164  H     0.34124   0.49959   0.88798   0.00000  Uiso   1.00
C1165  C     0.47128   0.35500   0.79750   0.00000  Uiso   1.00
C1166  C     0.52938   0.64488   0.86998   0.00000  Uiso   1.00
H1167  H     0.44711   0.37206   0.77082   0.00000  Uiso   1.00
H1168  H     0.55312   0.62775   0.89720   0.00000  Uiso   1.00
C1169  C     0.46758   0.64553   0.79735   0.00000  Uiso   1.00
C1170  C     0.53317   0.35443   0.86997   0.00000  Uiso   1.00
C1171  C     0.49758   0.62379   0.83377   0.00000  Uiso   1.00
C1172  C     0.50325   0.37615   0.83338   0.00000  Uiso   1.00
C1173  C     0.46401   0.47722   0.68603   0.00000  Uiso   1.00
C1174  C     0.53598   0.52264   0.98056   0.00000  Uiso   1.00
C1175  C     0.46404   0.47786   0.96972   0.00000  Uiso   1.00
C1176  C     0.53532   0.52285   0.69675   0.00000  Uiso   1.00
H1177  H     0.43497   0.46100   0.94619   0.00000  Uiso   1.00
H1178  H     0.56305   0.54153   0.71973   0.00000  Uiso   1.00
N1179  N     0.43162   0.62501   0.76157   0.00000  Uiso   1.00
O1180  O     0.40226   0.59517   0.77273   0.00000  Uiso   1.00
O1181  O     0.42272   0.63996   0.71922   0.00000  Uiso   1.00
N1182  N     0.56889   0.37505   0.90587   0.00000  Uiso   1.00
O1183  O     0.59780   0.40527   0.89491   0.00000  Uiso   1.00
O1184  O     0.57807   0.35987   0.94809   0.00000  Uiso   1.00
N1185  N     0.42444   0.45516   0.70452   0.00000  Uiso   1.00
H1186  H     0.39088   0.47194   0.70271   0.00000  Uiso   1.00
C1187  C     0.41447   0.41316   0.68758   0.00000  Uiso   1.00
H1188  H     0.38819   0.39778   0.70919   0.00000  Uiso   1.00
H1189  H     0.45112   0.39565   0.69034   0.00000  Uiso   1.00
H1190  H     0.39483   0.41261   0.98386   0.00000  Uiso   1.00
N1191  N     0.57280   0.54744   0.96177   0.00000  Uiso   1.00
H1192  H     0.56728   0.57855   0.96694   0.00000  Uiso   1.00
C1193  C     0.62613   0.53583   0.97599   0.00000  Uiso   1.00
H1194  H     0.65126   0.55350   0.95518   0.00000  Uiso   1.00
H1195  H     0.63127   0.50234   0.96936   0.00000  Uiso   1.00
H1196  H     0.63854   0.54291   0.68067   0.00000  Uiso   1.00
O1197  O     0.83333   0.43989   0.87291   0.00000  Uiso   1.00
O1198  O     0.83334   0.56011   0.79375   0.00000  Uiso   1.00
O1199  O     0.83333   0.43988   0.79372   0.00000  Uiso   1.00
O1200  O     0.83334   0.56012   0.87294   0.00000  Uiso   1.00
C1201  C     0.83502   0.42082   0.83340   0.00000  Uiso   1.00
C1202  C     0.83214   0.57918   0.83340   0.00000  Uiso   1.00
O1203  O     0.75828   0.50000   0.86379   0.00000  Uiso   1.00
O1204  O     0.90839   0.50000   0.80288   0.00000  Uiso   1.00
O1205  O     0.75828   0.49999   0.78460   0.00000  Uiso   1.00
O1206  O     0.90839   0.50001   0.88207   0.00000  Uiso   1.00
C1207  C     0.73456   0.49991   0.82114   0.00000  Uiso   1.00
C1208  C     0.93211   0.50005   0.84551   0.00000  Uiso   1.00
Cu1209 Cu    0.83333   0.50001   0.88022   0.00000  Uiso   1.00
Cu1210 Cu    0.83333   0.49999   0.78645   0.00000  Uiso   1.00
N1211  N     0.83335   0.50001   0.95069   0.00000  Uiso   1.00
N1212  N     0.83332   0.49999   0.71597   0.00000  Uiso   1.00
C1213  C     0.67913   0.50000   0.81453   0.00000  Uiso   1.00
C1214  C     0.98754   0.49988   0.85210   0.00000  Uiso   1.00
H1215  H     0.99212   0.50025   0.77861   0.00000  Uiso   1.00
H1216  H     0.67458   0.49959   0.88798   0.00000  Uiso   1.00
C1217  C     0.80461   0.35500   0.79750   0.00000  Uiso   1.00
C1218  C     0.86271   0.64488   0.86998   0.00000  Uiso   1.00
H1219  H     0.78044   0.37206   0.77082   0.00000  Uiso   1.00
H1220  H     0.88645   0.62775   0.89720   0.00000  Uiso   1.00
C1221  C     0.80091   0.64553   0.79735   0.00000  Uiso   1.00
C1222  C     0.86650   0.35443   0.86997   0.00000  Uiso   1.00
C1223  C     0.83092   0.62379   0.83377   0.00000  Uiso   1.00
C1224  C     0.83658   0.37615   0.83338   0.00000  Uiso   1.00
C1225  C     0.79734   0.47722   0.68603   0.00000  Uiso   1.00
C1226  C     0.86932   0.52264   0.98056   0.00000  Uiso   1.00
C1227  C     0.79738   0.47786   0.96972   0.00000  Uiso   1.00
C1228  C     0.86865   0.52285   0.69675   0.00000  Uiso   1.00
H1229  H     0.76830   0.46100   0.94619   0.00000  Uiso   1.00
H1230  H     0.89639   0.54153   0.71973   0.00000  Uiso   1.00
N1231  N     0.76495   0.62501   0.76157   0.00000  Uiso   1.00
O1232  O     0.73559   0.59517   0.77273   0.00000  Uiso   1.00
O1233  O     0.75606   0.63996   0.71922   0.00000  Uiso   1.00
N1234  N     0.90222   0.37505   0.90587   0.00000  Uiso   1.00
O1235  O     0.93113   0.40527   0.89491   0.00000  Uiso   1.00
O1236  O     0.91140   0.35987   0.94809   0.00000  Uiso   1.00
N1237  N     0.75777   0.45516   0.70452   0.00000  Uiso   1.00
H1238  H     0.72422   0.47194   0.70271   0.00000  Uiso   1.00
C1239  C     0.74780   0.41316   0.68758   0.00000  Uiso   1.00
H1240  H     0.72152   0.39778   0.70919   0.00000  Uiso   1.00
H1241  H     0.78445   0.39565   0.69034   0.00000  Uiso   1.00
H1242  H     0.72817   0.41261   0.98386   0.00000  Uiso   1.00
N1243  N     0.90613   0.54744   0.96177   0.00000  Uiso   1.00
H1244  H     0.90062   0.57855   0.96694   0.00000  Uiso   1.00
C1245  C     0.95946   0.53583   0.97599   0.00000  Uiso   1.00
H1246  H     0.98459   0.55350   0.95518   0.00000  Uiso   1.00
H1247  H     0.96460   0.50234   0.96936   0.00000  Uiso   1.00
H1248  H     0.97188   0.54291   0.68067   0.00000  Uiso   1.00
O1249  O     0.16666   0.77322   0.87291   0.00000  Uiso   1.00
O1250  O     0.16667   0.89345   0.79375   0.00000  Uiso   1.00
O1251  O     0.16666   0.77321   0.79372   0.00000  Uiso   1.00
O1252  O     0.16667   0.89346   0.87294   0.00000  Uiso   1.00
C1253  C     0.16836   0.75415   0.83340   0.00000  Uiso   1.00
C1254  C     0.16547   0.91251   0.83340   0.00000  Uiso   1.00
O1255  O     0.09161   0.83334   0.86379   0.00000  Uiso   1.00
O1256  O     0.24172   0.83333   0.80288   0.00000  Uiso   1.00
O1257  O     0.09161   0.83333   0.78460   0.00000  Uiso   1.00
O1258  O     0.24172   0.83334   0.88207   0.00000  Uiso   1.00
C1259  C     0.06790   0.83324   0.82114   0.00000  Uiso   1.00
C1260  C     0.26544   0.83338   0.84551   0.00000  Uiso   1.00
Cu1261 Cu    0.16667   0.83334   0.88022   0.00000  Uiso   1.00
Cu1262 Cu    0.16667   0.83333   0.78645   0.00000  Uiso   1.00
N1263  N     0.16668   0.83334   0.95069   0.00000  Uiso   1.00
N1264  N     0.16665   0.83332   0.71597   0.00000  Uiso   1.00
C1265  C     0.01246   0.83333   0.81453   0.00000  Uiso   1.00
C1266  C     0.32087   0.83322   0.85210   0.00000  Uiso   1.00
H1267  H     0.32546   0.83358   0.77861   0.00000  Uiso   1.00
H1268  H     0.00791   0.83292   0.88798   0.00000  Uiso   1.00
C1269  C     0.13794   0.68833   0.79750   0.00000  Uiso   1.00
C1270  C     0.19604   0.97822   0.86998   0.00000  Uiso   1.00
H1271  H     0.11377   0.70539   0.77082   0.00000  Uiso   1.00
H1272  H     0.21978   0.96109   0.89720   0.00000  Uiso   1.00
C1273  C     0.13425   0.97886   0.79735   0.00000  Uiso   1.00
C1274  C     0.19983   0.68777   0.86997   0.00000  Uiso   1.00
C1275  C     0.16425   0.95713   0.83377   0.00000  Uiso   1.00
C1276  C     0.16992   0.70948   0.83338   0.00000  Uiso   1.00
C1277  C     0.13067   0.81056   0.68603   0.00000  Uiso   1.00
C1278  C     0.20265   0.85597   0.98056   0.00000  Uiso   1.00
C1279  C     0.13071   0.81119   0.96972   0.00000  Uiso   1.00
C1280  C     0.20199   0.85618   0.69675   0.00000  Uiso   1.00
H1281  H     0.10164   0.79433   0.94619   0.00000  Uiso   1.00
H1282  H     0.22972   0.87486   0.71973   0.00000  Uiso   1.00
N1283  N     0.09829   0.95834   0.76157   0.00000  Uiso   1.00
O1284  O     0.06893   0.92851   0.77273   0.00000  Uiso   1.00
O1285  O     0.08939   0.97329   0.71922   0.00000  Uiso   1.00
N1286  N     0.23556   0.70838   0.90587   0.00000  Uiso   1.00
O1287  O     0.26446   0.73860   0.89491   0.00000  Uiso   1.00
O1288  O     0.24474   0.69321   0.94809   0.00000  Uiso   1.00
N1289  N     0.09110   0.78849   0.70452   0.00000  Uiso   1.00
H1290  H     0.05755   0.80527   0.70271   0.00000  Uiso   1.00
C1291  C     0.08114   0.74649   0.68758   0.00000  Uiso   1.00
H1292  H     0.05485   0.73112   0.70919   0.00000  Uiso   1.00
H1293  H     0.11779   0.72898   0.69034   0.00000  Uiso   1.00
H1294  H     0.06150   0.74594   0.98386   0.00000  Uiso   1.00
N1295  N     0.23946   0.88078   0.96177   0.00000  Uiso   1.00
H1296  H     0.23395   0.91188   0.96694   0.00000  Uiso   1.00
C1297  C     0.29280   0.86916   0.97599   0.00000  Uiso   1.00
H1298  H     0.31792   0.88684   0.95518   0.00000  Uiso   1.00
H1299  H     0.29794   0.83568   0.96936   0.00000  Uiso   1.00
H1300  H     0.30521   0.87624   0.68067   0.00000  Uiso   1.00
O1301  O     0.50000   0.77322   0.87291   0.00000  Uiso   1.00
O1302  O     0.50000   0.89345   0.79375   0.00000  Uiso   1.00
O1303  O     0.50000   0.77321   0.79372   0.00000  Uiso   1.00
O1304  O     0.50000   0.89346   0.87294   0.00000  Uiso   1.00
C1305  C     0.50169   0.75415   0.83340   0.00000  Uiso   1.00
C1306  C     0.49881   0.91251   0.83340   0.00000  Uiso   1.00
O1307  O     0.42495   0.83334   0.86379   0.00000  Uiso   1.00
O1308  O     0.57505   0.83333   0.80288   0.00000  Uiso   1.00
O1309  O     0.42494   0.83333   0.78460   0.00000  Uiso   1.00
O1310  O     0.57506   0.83334   0.88207   0.00000  Uiso   1.00
C1311  C     0.40123   0.83324   0.82114   0.00000  Uiso   1.00
C1312  C     0.59877   0.83338   0.84551   0.00000  Uiso   1.00
Cu1313 Cu    0.50000   0.83334   0.88022   0.00000  Uiso   1.00
Cu1314 Cu    0.50000   0.83333   0.78645   0.00000  Uiso   1.00
N1315  N     0.50001   0.83334   0.95069   0.00000  Uiso   1.00
N1316  N     0.49999   0.83332   0.71597   0.00000  Uiso   1.00
C1317  C     0.34579   0.83333   0.81453   0.00000  Uiso   1.00
C1318  C     0.65421   0.83322   0.85210   0.00000  Uiso   1.00
H1319  H     0.65879   0.83358   0.77861   0.00000  Uiso   1.00
H1320  H     0.34124   0.83292   0.88798   0.00000  Uiso   1.00
C1321  C     0.47128   0.68833   0.79750   0.00000  Uiso   1.00
C1322  C     0.52938   0.97822   0.86998   0.00000  Uiso   1.00
H1323  H     0.44711   0.70539   0.77082   0.00000  Uiso   1.00
H1324  H     0.55312   0.96109   0.89720   0.00000  Uiso   1.00
C1325  C     0.46758   0.97886   0.79735   0.00000  Uiso   1.00
C1326  C     0.53317   0.68777   0.86997   0.00000  Uiso   1.00
C1327  C     0.49758   0.95713   0.83377   0.00000  Uiso   1.00
C1328  C     0.50325   0.70948   0.83338   0.00000  Uiso   1.00
C1329  C     0.46401   0.81056   0.68603   0.00000  Uiso   1.00
C1330  C     0.53598   0.85597   0.98056   0.00000  Uiso   1.00
C1331  C     0.46404   0.81119   0.96972   0.00000  Uiso   1.00
C1332  C     0.53532   0.85618   0.69675   0.00000  Uiso   1.00
H1333  H     0.43497   0.79433   0.94619   0.00000  Uiso   1.00
H1334  H     0.56305   0.87486   0.71973   0.00000  Uiso   1.00
N1335  N     0.43162   0.95834   0.76157   0.00000  Uiso   1.00
O1336  O     0.40226   0.92851   0.77273   0.00000  Uiso   1.00
O1337  O     0.42272   0.97329   0.71922   0.00000  Uiso   1.00
N1338  N     0.56889   0.70838   0.90587   0.00000  Uiso   1.00
O1339  O     0.59780   0.73860   0.89491   0.00000  Uiso   1.00
O1340  O     0.57807   0.69321   0.94809   0.00000  Uiso   1.00
N1341  N     0.42444   0.78849   0.70452   0.00000  Uiso   1.00
H1342  H     0.39088   0.80527   0.70271   0.00000  Uiso   1.00
C1343  C     0.41447   0.74649   0.68758   0.00000  Uiso   1.00
H1344  H     0.38819   0.73112   0.70919   0.00000  Uiso   1.00
H1345  H     0.45112   0.72898   0.69034   0.00000  Uiso   1.00
H1346  H     0.39483   0.74594   0.98386   0.00000  Uiso   1.00
N1347  N     0.57280   0.88078   0.96177   0.00000  Uiso   1.00
H1348  H     0.56728   0.91188   0.96694   0.00000  Uiso   1.00
C1349  C     0.62613   0.86916   0.97599   0.00000  Uiso   1.00
H1350  H     0.65126   0.88684   0.95518   0.00000  Uiso   1.00
H1351  H     0.63127   0.83568   0.96936   0.00000  Uiso   1.00
H1352  H     0.63854   0.87624   0.68067   0.00000  Uiso   1.00
O1353  O     0.83333   0.77322   0.87291   0.00000  Uiso   1.00
O1354  O     0.83334   0.89345   0.79375   0.00000  Uiso   1.00
O1355  O     0.83333   0.77321   0.79372   0.00000  Uiso   1.00
O1356  O     0.83334   0.89346   0.87294   0.00000  Uiso   1.00
C1357  C     0.83502   0.75415   0.83340   0.00000  Uiso   1.00
C1358  C     0.83214   0.91251   0.83340   0.00000  Uiso   1.00
O1359  O     0.75828   0.83334   0.86379   0.00000  Uiso   1.00
O1360  O     0.90839   0.83333   0.80288   0.00000  Uiso   1.00
O1361  O     0.75828   0.83333   0.78460   0.00000  Uiso   1.00
O1362  O     0.90839   0.83334   0.88207   0.00000  Uiso   1.00
C1363  C     0.73456   0.83324   0.82114   0.00000  Uiso   1.00
C1364  C     0.93211   0.83338   0.84551   0.00000  Uiso   1.00
Cu1365 Cu    0.83333   0.83334   0.88022   0.00000  Uiso   1.00
Cu1366 Cu    0.83333   0.83333   0.78645   0.00000  Uiso   1.00
N1367  N     0.83335   0.83334   0.95069   0.00000  Uiso   1.00
N1368  N     0.83332   0.83332   0.71597   0.00000  Uiso   1.00
C1369  C     0.67913   0.83333   0.81453   0.00000  Uiso   1.00
C1370  C     0.98754   0.83322   0.85210   0.00000  Uiso   1.00
H1371  H     0.99212   0.83358   0.77861   0.00000  Uiso   1.00
H1372  H     0.67458   0.83292   0.88798   0.00000  Uiso   1.00
C1373  C     0.80461   0.68833   0.79750   0.00000  Uiso   1.00
C1374  C     0.86271   0.97822   0.86998   0.00000  Uiso   1.00
H1375  H     0.78044   0.70539   0.77082   0.00000  Uiso   1.00
H1376  H     0.88645   0.96109   0.89720   0.00000  Uiso   1.00
C1377  C     0.80091   0.97886   0.79735   0.00000  Uiso   1.00
C1378  C     0.86650   0.68777   0.86997   0.00000  Uiso   1.00
C1379  C     0.83092   0.95713   0.83377   0.00000  Uiso   1.00
C1380  C     0.83658   0.70948   0.83338   0.00000  Uiso   1.00
C1381  C     0.79734   0.81056   0.68603   0.00000  Uiso   1.00
C1382  C     0.86932   0.85597   0.98056   0.00000  Uiso   1.00
C1383  C     0.79738   0.81119   0.96972   0.00000  Uiso   1.00
C1384  C     0.86865   0.85618   0.69675   0.00000  Uiso   1.00
H1385  H     0.76830   0.79433   0.94619   0.00000  Uiso   1.00
H1386  H     0.89639   0.87486   0.71973   0.00000  Uiso   1.00
N1387  N     0.76495   0.95834   0.76157   0.00000  Uiso   1.00
O1388  O     0.73559   0.92851   0.77273   0.00000  Uiso   1.00
O1389  O     0.75606   0.97329   0.71922   0.00000  Uiso   1.00
N1390  N     0.90222   0.70838   0.90587   0.00000  Uiso   1.00
O1391  O     0.93113   0.73860   0.89491   0.00000  Uiso   1.00
O1392  O     0.91140   0.69321   0.94809   0.00000  Uiso   1.00
N1393  N     0.75777   0.78849   0.70452   0.00000  Uiso   1.00
H1394  H     0.72422   0.80527   0.70271   0.00000  Uiso   1.00
C1395  C     0.74780   0.74649   0.68758   0.00000  Uiso   1.00
H1396  H     0.72152   0.73112   0.70919   0.00000  Uiso   1.00
H1397  H     0.78445   0.72898   0.69034   0.00000  Uiso   1.00
H1398  H     0.72817   0.74594   0.98386   0.00000  Uiso   1.00
N1399  N     0.90613   0.88078   0.96177   0.00000  Uiso   1.00
H1400  H     0.90062   0.91188   0.96694   0.00000  Uiso   1.00
C1401  C     0.95946   0.86916   0.97599   0.00000  Uiso   1.00
H1402  H     0.98459   0.88684   0.95518   0.00000  Uiso   1.00
H1403  H     0.96460   0.83568   0.96936   0.00000  Uiso   1.00
H1404  H     0.97188   0.87624   0.68067   0.00000  Uiso   1.00
loop_
_geom_bond_atom_site_label_1
_geom_bond_atom_site_label_2
_geom_bond_distance
_geom_bond_site_symmetry_2
_ccdc_geom_bond_type
O1     C5      1.291   .     A
O1     Cu13    1.956   .     S
O2     C6      1.292   .     A
O2     Cu14    1.956   .     S
O3     Cu14    1.961   .     S
O3     C5      1.296   .     A
O4     C6      1.293   .     A
O4     Cu13    1.961   .     S
C5     C28     1.448   .     S
C6     C27     1.446   .     S
O7     C11     1.287   .     A
O7     Cu13    1.951   .     S
O8     C12     1.287   .     A
O8     Cu14    1.951   .     S
O9     Cu14    1.957   .     S
O9     C11     1.294   .     A
O10    C12     1.294   .     A
O10    Cu13    1.957   .     S
C11    C17     1.435   .     S
C12    C18     1.435   .     S
Cu13   Cu14    2.689   .     S
Cu13   N15     2.021   .     S
Cu14   N16     2.021   .     S
N15    C31     1.359   .     A
N15    C30     1.376   .     A
N16    C32     1.362   .     A
N16    C29     1.380   .     A
C17    C122    1.339   1_455 S
C17    H123    1.087   1_455 S
C18    C69     1.339   .     S
C18    H72     1.087   .     S
H19    C69     1.087   .     S
H20    C122    1.087   1_455 S
C21    H23     1.078   .     S
C21    C28     1.396   .     A
C21    C337    1.389   1_545 S
C22    C27     1.399   .     A
C22    H24     1.084   .     S
C22    C182    1.392   .     S
C25    C27     1.409   .     A
C25    N35     1.439   .     S
C25    C177    1.389   .     S
C26    C28     1.411   .     A
C26    N38     1.439   .     S
C26    C334    1.392   1_545 S
C29    N41     1.422   .     S
C29    C967    1.424   1_554 S
C30    N47     1.419   .     S
C30    C500    1.422   .     S
C31    H33     1.080   .     S
C31    C497    1.424   .     S
C32    H34     1.082   .     S
C32    C966    1.422   1_554 S
N35    O36     1.301   .     A
N35    O37     1.301   .     A
N38    O40     1.301   .     A
N38    O39     1.301   .     A
N41    H42     1.031   .     S
N41    C43     1.448   .     S
C43    H45     1.111   .     S
C43    H44     1.110   .     S
C43    H982    1.110   1_554 S
H46    C511    1.110   .     S
N47    H48     1.031   .     S
N47    C49     1.449   .     S
C49    H50     1.110   .     S
C49    H51     1.112   .     S
C49    H520    1.111   .     S
H52    C985    1.111   1_554 S
O53    C57     1.291   .     A
O53    Cu65    1.956   .     S
O54    C58     1.292   .     A
O54    Cu66    1.956   .     S
O55    Cu66    1.961   .     S
O55    C57     1.296   .     A
O56    C58     1.293   .     A
O56    Cu65    1.961   .     S
C57    C80     1.448   .     S
C58    C79     1.446   .     S
O59    C63     1.287   .     A
O59    Cu65    1.951   .     S
O60    C64     1.287   .     A
O60    Cu66    1.951   .     S
O61    Cu66    1.957   .     S
O61    C63     1.294   .     A
O62    C64     1.294   .     A
O62    Cu65    1.957   .     S
C63    C69     1.435   .     S
C64    C70     1.435   .     S
Cu65   Cu66    2.689   .     S
Cu65   N67     2.021   .     S
Cu66   N68     2.021   .     S
N67    C83     1.359   .     A
N67    C82     1.376   .     A
N68    C84     1.362   .     A
N68    C81     1.380   .     A
C70    C121    1.339   .     S
C70    H124    1.087   .     S
H71    C121    1.087   .     S
C73    H75     1.078   .     S
C73    C80     1.396   .     A
C73    C389    1.389   1_545 S
C74    C79     1.399   .     A
C74    H76     1.084   .     S
C74    C234    1.392   .     S
C77    C79     1.409   .     A
C77    N87     1.439   .     S
C77    C229    1.389   .     S
C78    C80     1.411   .     A
C78    N90     1.439   .     S
C78    C386    1.392   1_545 S
C81    N93     1.422   .     S
C81    C1019   1.424   1_554 S
C82    N99     1.419   .     S
C82    C552    1.422   .     S
C83    H85     1.080   .     S
C83    C549    1.424   .     S
C84    H86     1.082   .     S
C84    C1018   1.422   1_554 S
N87    O88     1.301   .     A
N87    O89     1.301   .     A
N90    O92     1.301   .     A
N90    O91     1.301   .     A
N93    H94     1.031   .     S
N93    C95     1.448   .     S
C95    H97     1.111   .     S
C95    H96     1.110   .     S
C95    H1034   1.110   1_554 S
H98    C563    1.110   .     S
N99    H100    1.031   .     S
N99    C101    1.449   .     S
C101   H102    1.110   .     S
C101   H103    1.112   .     S
C101   H572    1.111   .     S
H104   C1037   1.111   1_554 S
O105   C109    1.291   .     A
O105   Cu117   1.956   .     S
O106   C110    1.292   .     A
O106   Cu118   1.956   .     S
O107   Cu118   1.961   .     S
O107   C109    1.296   .     A
O108   C110    1.293   .     A
O108   Cu117   1.961   .     S
C109   C132    1.448   .     S
C110   C131    1.446   .     S
O111   C115    1.287   .     A
O111   Cu117   1.951   .     S
O112   C116    1.287   .     A
O112   Cu118   1.951   .     S
O113   Cu118   1.957   .     S
O113   C115    1.294   .     A
O114   C116    1.294   .     A
O114   Cu117   1.957   .     S
C115   C121    1.435   .     S
C116   C122    1.435   .     S
Cu117  Cu118   2.689   .     S
Cu117  N119    2.021   .     S
Cu118  N120    2.021   .     S
N119   C135    1.359   .     A
N119   C134    1.376   .     A
N120   C136    1.362   .     A
N120   C133    1.380   .     A
C122   C17     1.339   1_655 S
C122   H20     1.087   1_655 S
H123   C17     1.087   1_655 S
C125   H127    1.078   .     S
C125   C132    1.396   .     A
C125   C441    1.389   1_545 S
C126   C131    1.399   .     A
C126   H128    1.084   .     S
C126   C286    1.392   .     S
C129   C131    1.409   .     A
C129   N139    1.439   .     S
C129   C281    1.389   .     S
C130   C132    1.411   .     A
C130   N142    1.439   .     S
C130   C438    1.392   1_545 S
C133   N145    1.422   .     S
C133   C1071   1.424   1_554 S
C134   N151    1.419   .     S
C134   C604    1.422   .     S
C135   H137    1.080   .     S
C135   C601    1.424   .     S
C136   H138    1.082   .     S
C136   C1070   1.422   1_554 S
N139   O140    1.301   .     A
N139   O141    1.301   .     A
N142   O144    1.301   .     A
N142   O143    1.301   .     A
N145   H146    1.031   .     S
N145   C147    1.448   .     S
C147   H149    1.111   .     S
C147   H148    1.110   .     S
C147   H1086   1.110   1_554 S
H150   C615    1.110   .     S
N151   H152    1.031   .     S
N151   C153    1.449   .     S
C153   H154    1.110   .     S
C153   H155    1.112   .     S
C153   H624    1.111   .     S
H156   C1089   1.111   1_554 S
O157   C161    1.291   .     A
O157   Cu169   1.956   .     S
O158   C162    1.292   .     A
O158   Cu170   1.956   .     S
O159   Cu170   1.961   .     S
O159   C161    1.296   .     A
O160   C162    1.293   .     A
O160   Cu169   1.961   .     S
C161   C184    1.448   .     S
C162   C183    1.446   .     S
O163   C167    1.287   .     A
O163   Cu169   1.951   .     S
O164   C168    1.287   .     A
O164   Cu170   1.951   .     S
O165   Cu170   1.957   .     S
O165   C167    1.294   .     A
O166   C168    1.294   .     A
O166   Cu169   1.957   .     S
C167   C173    1.435   .     S
C168   C174    1.435   .     S
Cu169  Cu170   2.689   .     S
Cu169  N171    2.021   .     S
Cu170  N172    2.021   .     S
N171   C187    1.359   .     A
N171   C186    1.376   .     A
N172   C188    1.362   .     A
N172   C185    1.380   .     A
C173   C278    1.339   1_455 S
C173   H279    1.087   1_455 S
C174   C225    1.339   .     S
C174   H228    1.087   .     S
H175   C225    1.087   .     S
H176   C278    1.087   1_455 S
C177   H179    1.078   .     S
C177   C184    1.396   .     A
C178   C183    1.399   .     A
C178   H180    1.084   .     S
C178   C338    1.392   .     S
C181   C183    1.409   .     A
C181   N191    1.439   .     S
C181   C333    1.389   .     S
C182   C184    1.411   .     A
C182   N194    1.439   .     S
C185   N197    1.422   .     S
C185   C1123   1.424   1_554 S
C186   N203    1.419   .     S
C186   C656    1.422   .     S
C187   H189    1.080   .     S
C187   C653    1.424   .     S
C188   H190    1.082   .     S
C188   C1122   1.422   1_554 S
N191   O192    1.301   .     A
N191   O193    1.301   .     A
N194   O196    1.301   .     A
N194   O195    1.301   .     A
N197   H198    1.031   .     S
N197   C199    1.448   .     S
C199   H201    1.111   .     S
C199   H200    1.110   .     S
C199   H1138   1.110   1_554 S
H202   C667    1.110   .     S
N203   H204    1.031   .     S
N203   C205    1.449   .     S
C205   H206    1.110   .     S
C205   H207    1.112   .     S
C205   H676    1.111   .     S
H208   C1141   1.111   1_554 S
O209   C213    1.291   .     A
O209   Cu221   1.956   .     S
O210   C214    1.292   .     A
O210   Cu222   1.956   .     S
O211   Cu222   1.961   .     S
O211   C213    1.296   .     A
O212   C214    1.293   .     A
O212   Cu221   1.961   .     S
C213   C236    1.448   .     S
C214   C235    1.446   .     S
O215   C219    1.287   .     A
O215   Cu221   1.951   .     S
O216   C220    1.287   .     A
O216   Cu222   1.951   .     S
O217   Cu222   1.957   .     S
O217   C219    1.294   .     A
O218   C220    1.294   .     A
O218   Cu221   1.957   .     S
C219   C225    1.435   .     S
C220   C226    1.435   .     S
Cu221  Cu222   2.689   .     S
Cu221  N223    2.021   .     S
Cu222  N224    2.021   .     S
N223   C239    1.359   .     A
N223   C238    1.376   .     A
N224   C240    1.362   .     A
N224   C237    1.380   .     A
C226   C277    1.339   .     S
C226   H280    1.087   .     S
H227   C277    1.087   .     S
C229   H231    1.078   .     S
C229   C236    1.396   .     A
C230   C235    1.399   .     A
C230   H232    1.084   .     S
C230   C390    1.392   .     S
C233   C235    1.409   .     A
C233   N243    1.439   .     S
C233   C385    1.389   .     S
C234   C236    1.411   .     A
C234   N246    1.439   .     S
C237   N249    1.422   .     S
C237   C1175   1.424   1_554 S
C238   N255    1.419   .     S
C238   C708    1.422   .     S
C239   H241    1.080   .     S
C239   C705    1.424   .     S
C240   H242    1.082   .     S
C240   C1174   1.422   1_554 S
N243   O244    1.301   .     A
N243   O245    1.301   .     A
N246   O248    1.301   .     A
N246   O247    1.301   .     A
N249   H250    1.031   .     S
N249   C251    1.448   .     S
C251   H253    1.111   .     S
C251   H252    1.110   .     S
C251   H1190   1.110   1_554 S
H254   C719    1.110   .     S
N255   H256    1.031   .     S
N255   C257    1.449   .     S
C257   H258    1.110   .     S
C257   H259    1.112   .     S
C257   H728    1.111   .     S
H260   C1193   1.111   1_554 S
O261   C265    1.291   .     A
O261   Cu273   1.956   .     S
O262   C266    1.292   .     A
O262   Cu274   1.956   .     S
O263   Cu274   1.961   .     S
O263   C265    1.296   .     A
O264   C266    1.293   .     A
O264   Cu273   1.961   .     S
C265   C288    1.448   .     S
C266   C287    1.446   .     S
O267   C271    1.287   .     A
O267   Cu273   1.951   .     S
O268   C272    1.287   .     A
O268   Cu274   1.951   .     S
O269   Cu274   1.957   .     S
O269   C271    1.294   .     A
O270   C272    1.294   .     A
O270   Cu273   1.957   .     S
C271   C277    1.435   .     S
C272   C278    1.435   .     S
Cu273  Cu274   2.689   .     S
Cu273  N275    2.021   .     S
Cu274  N276    2.021   .     S
N275   C291    1.359   .     A
N275   C290    1.376   .     A
N276   C292    1.362   .     A
N276   C289    1.380   .     A
C278   C173    1.339   1_655 S
C278   H176    1.087   1_655 S
H279   C173    1.087   1_655 S
C281   H283    1.078   .     S
C281   C288    1.396   .     A
C282   C287    1.399   .     A
C282   H284    1.084   .     S
C282   C442    1.392   .     S
C285   C287    1.409   .     A
C285   N295    1.439   .     S
C285   C437    1.389   .     S
C286   C288    1.411   .     A
C286   N298    1.439   .     S
C289   N301    1.422   .     S
C289   C1227   1.424   1_554 S
C290   N307    1.419   .     S
C290   C760    1.422   .     S
C291   H293    1.080   .     S
C291   C757    1.424   .     S
C292   H294    1.082   .     S
C292   C1226   1.422   1_554 S
N295   O296    1.301   .     A
N295   O297    1.301   .     A
N298   O300    1.301   .     A
N298   O299    1.301   .     A
N301   H302    1.031   .     S
N301   C303    1.448   .     S
C303   H305    1.111   .     S
C303   H304    1.110   .     S
C303   H1242   1.110   1_554 S
H306   C771    1.110   .     S
N307   H308    1.031   .     S
N307   C309    1.449   .     S
C309   H310    1.110   .     S
C309   H311    1.112   .     S
C309   H780    1.111   .     S
H312   C1245   1.111   1_554 S
O313   C317    1.291   .     A
O313   Cu325   1.956   .     S
O314   C318    1.292   .     A
O314   Cu326   1.956   .     S
O315   Cu326   1.961   .     S
O315   C317    1.296   .     A
O316   C318    1.293   .     A
O316   Cu325   1.961   .     S
C317   C340    1.448   .     S
C318   C339    1.446   .     S
O319   C323    1.287   .     A
O319   Cu325   1.951   .     S
O320   C324    1.287   .     A
O320   Cu326   1.951   .     S
O321   Cu326   1.957   .     S
O321   C323    1.294   .     A
O322   C324    1.294   .     A
O322   Cu325   1.957   .     S
C323   C329    1.435   .     S
C324   C330    1.435   .     S
Cu325  Cu326   2.689   .     S
Cu325  N327    2.021   .     S
Cu326  N328    2.021   .     S
N327   C343    1.359   .     A
N327   C342    1.376   .     A
N328   C344    1.362   .     A
N328   C341    1.380   .     A
C329   C434    1.339   1_455 S
C329   H435    1.087   1_455 S
C330   C381    1.339   .     S
C330   H384    1.087   .     S
H331   C381    1.087   .     S
H332   C434    1.087   1_455 S
C333   H335    1.078   .     S
C333   C340    1.396   .     A
C334   C339    1.399   .     A
C334   H336    1.084   .     S
C334   C26     1.392   1_565 S
C337   C339    1.409   .     A
C337   N347    1.439   .     S
C337   C21     1.389   1_565 S
C338   C340    1.411   .     A
C338   N350    1.439   .     S
C341   N353    1.422   .     S
C341   C1279   1.424   1_554 S
C342   N359    1.419   .     S
C342   C812    1.422   .     S
C343   H345    1.080   .     S
C343   C809    1.424   .     S
C344   H346    1.082   .     S
C344   C1278   1.422   1_554 S
N347   O348    1.301   .     A
N347   O349    1.301   .     A
N350   O352    1.301   .     A
N350   O351    1.301   .     A
N353   H354    1.031   .     S
N353   C355    1.448   .     S
C355   H357    1.111   .     S
C355   H356    1.110   .     S
C355   H1294   1.110   1_554 S
H358   C823    1.110   .     S
N359   H360    1.031   .     S
N359   C361    1.449   .     S
C361   H362    1.110   .     S
C361   H363    1.112   .     S
C361   H832    1.111   .     S
H364   C1297   1.111   1_554 S
O365   C369    1.291   .     A
O365   Cu377   1.956   .     S
O366   C370    1.292   .     A
O366   Cu378   1.956   .     S
O367   Cu378   1.961   .     S
O367   C369    1.296   .     A
O368   C370    1.293   .     A
O368   Cu377   1.961   .     S
C369   C392    1.448   .     S
C370   C391    1.446   .     S
O371   C375    1.287   .     A
O371   Cu377   1.951   .     S
O372   C376    1.287   .     A
O372   Cu378   1.951   .     S
O373   Cu378   1.957   .     S
O373   C375    1.294   .     A
O374   C376    1.294   .     A
O374   Cu377   1.957   .     S
C375   C381    1.435   .     S
C376   C382    1.435   .     S
Cu377  Cu378   2.689   .     S
Cu377  N379    2.021   .     S
Cu378  N380    2.021   .     S
N379   C395    1.359   .     A
N379   C394    1.376   .     A
N380   C396    1.362   .     A
N380   C393    1.380   .     A
C382   C433    1.339   .     S
C382   H436    1.087   .     S
H383   C433    1.087   .     S
C385   H387    1.078   .     S
C385   C392    1.396   .     A
C386   C391    1.399   .     A
C386   H388    1.084   .     S
C386   C78     1.392   1_565 S
C389   C391    1.409   .     A
C389   N399    1.439   .     S
C389   C73     1.389   1_565 S
C390   C392    1.411   .     A
C390   N402    1.439   .     S
C393   N405    1.422   .     S
C393   C1331   1.424   1_554 S
C394   N411    1.419   .     S
C394   C864    1.422   .     S
C395   H397    1.080   .     S
C395   C861    1.424   .     S
C396   H398    1.082   .     S
C396   C1330   1.422   1_554 S
N399   O400    1.301   .     A
N399   O401    1.301   .     A
N402   O404    1.301   .     A
N402   O403    1.301   .     A
N405   H406    1.031   .     S
N405   C407    1.448   .     S
C407   H409    1.111   .     S
C407   H408    1.110   .     S
C407   H1346   1.110   1_554 S
H410   C875    1.110   .     S
N411   H412    1.031   .     S
N411   C413    1.449   .     S
C413   H414    1.110   .     S
C413   H415    1.112   .     S
C413   H884    1.111   .     S
H416   C1349   1.111   1_554 S
O417   C421    1.291   .     A
O417   Cu429   1.956   .     S
O418   C422    1.292   .     A
O418   Cu430   1.956   .     S
O419   Cu430   1.961   .     S
O419   C421    1.296   .     A
O420   C422    1.293   .     A
O420   Cu429   1.961   .     S
C421   C444    1.448   .     S
C422   C443    1.446   .     S
O423   C427    1.287   .     A
O423   Cu429   1.951   .     S
O424   C428    1.287   .     A
O424   Cu430   1.951   .     S
O425   Cu430   1.957   .     S
O425   C427    1.294   .     A
O426   C428    1.294   .     A
O426   Cu429   1.957   .     S
C427   C433    1.435   .     S
C428   C434    1.435   .     S
Cu429  Cu430   2.689   .     S
Cu429  N431    2.021   .     S
Cu430  N432    2.021   .     S
N431   C447    1.359   .     A
N431   C446    1.376   .     A
N432   C448    1.362   .     A
N432   C445    1.380   .     A
C434   C329    1.339   1_655 S
C434   H332    1.087   1_655 S
H435   C329    1.087   1_655 S
C437   H439    1.078   .     S
C437   C444    1.396   .     A
C438   C443    1.399   .     A
C438   H440    1.084   .     S
C438   C130    1.392   1_565 S
C441   C443    1.409   .     A
C441   N451    1.439   .     S
C441   C125    1.389   1_565 S
C442   C444    1.411   .     A
C442   N454    1.439   .     S
C445   N457    1.422   .     S
C445   C1383   1.424   1_554 S
C446   N463    1.419   .     S
C446   C916    1.422   .     S
C447   H449    1.080   .     S
C447   C913    1.424   .     S
C448   H450    1.082   .     S
C448   C1382   1.422   1_554 S
N451   O452    1.301   .     A
N451   O453    1.301   .     A
N454   O456    1.301   .     A
N454   O455    1.301   .     A
N457   H458    1.031   .     S
N457   C459    1.448   .     S
C459   H461    1.111   .     S
C459   H460    1.110   .     S
C459   H1398   1.110   1_554 S
H462   C927    1.110   .     S
N463   H464    1.031   .     S
N463   C465    1.449   .     S
C465   H466    1.110   .     S
C465   H467    1.112   .     S
C465   H936    1.111   .     S
H468   C1401   1.111   1_554 S
O469   C473    1.291   .     A
O469   Cu481   1.956   .     S
O470   C474    1.292   .     A
O470   Cu482   1.956   .     S
O471   Cu482   1.961   .     S
O471   C473    1.296   .     A
O472   C474    1.293   .     A
O472   Cu481   1.961   .     S
C473   C496    1.448   .     S
C474   C495    1.446   .     S
O475   C479    1.287   .     A
O475   Cu481   1.951   .     S
O476   C480    1.287   .     A
O476   Cu482   1.951   .     S
O477   Cu482   1.957   .     S
O477   C479    1.294   .     A
O478   C480    1.294   .     A
O478   Cu481   1.957   .     S
C479   C485    1.435   .     S
C480   C486    1.435   .     S
Cu481  Cu482   2.689   .     S
Cu481  N483    2.021   .     S
Cu482  N484    2.021   .     S
N483   C499    1.359   .     A
N483   C498    1.376   .     A
N484   C500    1.362   .     A
N484   C497    1.380   .     A
C485   C590    1.339   1_455 S
C485   H591    1.087   1_455 S
C486   C537    1.339   .     S
C486   H540    1.087   .     S
H487   C537    1.087   .     S
H488   C590    1.087   1_455 S
C489   H491    1.078   .     S
C489   C496    1.396   .     A
C489   C805    1.389   1_545 S
C490   C495    1.399   .     A
C490   H492    1.084   .     S
C490   C650    1.392   .     S
C493   C495    1.409   .     A
C493   N503    1.439   .     S
C493   C645    1.389   .     S
C494   C496    1.411   .     A
C494   N506    1.439   .     S
C494   C802    1.392   1_545 S
C497   N509    1.422   .     S
C498   N515    1.419   .     S
C498   C968    1.422   .     S
C499   H501    1.080   .     S
C499   C965    1.424   .     S
C500   H502    1.082   .     S
N503   O504    1.301   .     A
N503   O505    1.301   .     A
N506   O508    1.301   .     A
N506   O507    1.301   .     A
N509   H510    1.031   .     S
N509   C511    1.448   .     S
C511   H513    1.111   .     S
C511   H512    1.110   .     S
H514   C979    1.110   .     S
N515   H516    1.031   .     S
N515   C517    1.449   .     S
C517   H518    1.110   .     S
C517   H519    1.112   .     S
C517   H988    1.111   .     S
O521   C525    1.291   .     A
O521   Cu533   1.956   .     S
O522   C526    1.292   .     A
O522   Cu534   1.956   .     S
O523   Cu534   1.961   .     S
O523   C525    1.296   .     A
O524   C526    1.293   .     A
O524   Cu533   1.961   .     S
C525   C548    1.448   .     S
C526   C547    1.446   .     S
O527   C531    1.287   .     A
O527   Cu533   1.951   .     S
O528   C532    1.287   .     A
O528   Cu534   1.951   .     S
O529   Cu534   1.957   .     S
O529   C531    1.294   .     A
O530   C532    1.294   .     A
O530   Cu533   1.957   .     S
C531   C537    1.435   .     S
C532   C538    1.435   .     S
Cu533  Cu534   2.689   .     S
Cu533  N535    2.021   .     S
Cu534  N536    2.021   .     S
N535   C551    1.359   .     A
N535   C550    1.376   .     A
N536   C552    1.362   .     A
N536   C549    1.380   .     A
C538   C589    1.339   .     S
C538   H592    1.087   .     S
H539   C589    1.087   .     S
C541   H543    1.078   .     S
C541   C548    1.396   .     A
C541   C857    1.389   1_545 S
C542   C547    1.399   .     A
C542   H544    1.084   .     S
C542   C702    1.392   .     S
C545   C547    1.409   .     A
C545   N555    1.439   .     S
C545   C697    1.389   .     S
C546   C548    1.411   .     A
C546   N558    1.439   .     S
C546   C854    1.392   1_545 S
C549   N561    1.422   .     S
C550   N567    1.419   .     S
C550   C1020   1.422   .     S
C551   H553    1.080   .     S
C551   C1017   1.424   .     S
C552   H554    1.082   .     S
N555   O556    1.301   .     A
N555   O557    1.301   .     A
N558   O560    1.301   .     A
N558   O559    1.301   .     A
N561   H562    1.031   .     S
N561   C563    1.448   .     S
C563   H565    1.111   .     S
C563   H564    1.110   .     S
H566   C1031   1.110   .     S
N567   H568    1.031   .     S
N567   C569    1.449   .     S
C569   H570    1.110   .     S
C569   H571    1.112   .     S
C569   H1040   1.111   .     S
O573   C577    1.291   .     A
O573   Cu585   1.956   .     S
O574   C578    1.292   .     A
O574   Cu586   1.956   .     S
O575   Cu586   1.961   .     S
O575   C577    1.296   .     A
O576   C578    1.293   .     A
O576   Cu585   1.961   .     S
C577   C600    1.448   .     S
C578   C599    1.446   .     S
O579   C583    1.287   .     A
O579   Cu585   1.951   .     S
O580   C584    1.287   .     A
O580   Cu586   1.951   .     S
O581   Cu586   1.957   .     S
O581   C583    1.294   .     A
O582   C584    1.294   .     A
O582   Cu585   1.957   .     S
C583   C589    1.435   .     S
C584   C590    1.435   .     S
Cu585  Cu586   2.689   .     S
Cu585  N587    2.021   .     S
Cu586  N588    2.021   .     S
N587   C603    1.359   .     A
N587   C602    1.376   .     A
N588   C604    1.362   .     A
N588   C601    1.380   .     A
C590   C485    1.339   1_655 S
C590   H488    1.087   1_655 S
H591   C485    1.087   1_655 S
C593   H595    1.078   .     S
C593   C600    1.396   .     A
C593   C909    1.389   1_545 S
C594   C599    1.399   .     A
C594   H596    1.084   .     S
C594   C754    1.392   .     S
C597   C599    1.409   .     A
C597   N607    1.439   .     S
C597   C749    1.389   .     S
C598   C600    1.411   .     A
C598   N610    1.439   .     S
C598   C906    1.392   1_545 S
C601   N613    1.422   .     S
C602   N619    1.419   .     S
C602   C1072   1.422   .     S
C603   H605    1.080   .     S
C603   C1069   1.424   .     S
C604   H606    1.082   .     S
N607   O608    1.301   .     A
N607   O609    1.301   .     A
N610   O612    1.301   .     A
N610   O611    1.301   .     A
N613   H614    1.031   .     S
N613   C615    1.448   .     S
C615   H617    1.111   .     S
C615   H616    1.110   .     S
H618   C1083   1.110   .     S
N619   H620    1.031   .     S
N619   C621    1.449   .     S
C621   H622    1.110   .     S
C621   H623    1.112   .     S
C621   H1092   1.111   .     S
O625   C629    1.291   .     A
O625   Cu637   1.956   .     S
O626   C630    1.292   .     A
O626   Cu638   1.956   .     S
O627   Cu638   1.961   .     S
O627   C629    1.296   .     A
O628   C630    1.293   .     A
O628   Cu637   1.961   .     S
C629   C652    1.448   .     S
C630   C651    1.446   .     S
O631   C635    1.287   .     A
O631   Cu637   1.951   .     S
O632   C636    1.287   .     A
O632   Cu638   1.951   .     S
O633   Cu638   1.957   .     S
O633   C635    1.294   .     A
O634   C636    1.294   .     A
O634   Cu637   1.957   .     S
C635   C641    1.435   .     S
C636   C642    1.435   .     S
Cu637  Cu638   2.689   .     S
Cu637  N639    2.021   .     S
Cu638  N640    2.021   .     S
N639   C655    1.359   .     A
N639   C654    1.376   .     A
N640   C656    1.362   .     A
N640   C653    1.380   .     A
C641   C746    1.339   1_455 S
C641   H747    1.087   1_455 S
C642   C693    1.339   .     S
C642   H696    1.087   .     S
H643   C693    1.087   .     S
H644   C746    1.087   1_455 S
C645   H647    1.078   .     S
C645   C652    1.396   .     A
C646   C651    1.399   .     A
C646   H648    1.084   .     S
C646   C806    1.392   .     S
C649   C651    1.409   .     A
C649   N659    1.439   .     S
C649   C801    1.389   .     S
C650   C652    1.411   .     A
C650   N662    1.439   .     S
C653   N665    1.422   .     S
C654   N671    1.419   .     S
C654   C1124   1.422   .     S
C655   H657    1.080   .     S
C655   C1121   1.424   .     S
C656   H658    1.082   .     S
N659   O660    1.301   .     A
N659   O661    1.301   .     A
N662   O664    1.301   .     A
N662   O663    1.301   .     A
N665   H666    1.031   .     S
N665   C667    1.448   .     S
C667   H669    1.111   .     S
C667   H668    1.110   .     S
H670   C1135   1.110   .     S
N671   H672    1.031   .     S
N671   C673    1.449   .     S
C673   H674    1.110   .     S
C673   H675    1.112   .     S
C673   H1144   1.111   .     S
O677   C681    1.291   .     A
O677   Cu689   1.956   .     S
O678   C682    1.292   .     A
O678   Cu690   1.956   .     S
O679   Cu690   1.961   .     S
O679   C681    1.296   .     A
O680   C682    1.293   .     A
O680   Cu689   1.961   .     S
C681   C704    1.448   .     S
C682   C703    1.446   .     S
O683   C687    1.287   .     A
O683   Cu689   1.951   .     S
O684   C688    1.287   .     A
O684   Cu690   1.951   .     S
O685   Cu690   1.957   .     S
O685   C687    1.294   .     A
O686   C688    1.294   .     A
O686   Cu689   1.957   .     S
C687   C693    1.435   .     S
C688   C694    1.435   .     S
Cu689  Cu690   2.689   .     S
Cu689  N691    2.021   .     S
Cu690  N692    2.021   .     S
N691   C707    1.359   .     A
N691   C706    1.376   .     A
N692   C708    1.362   .     A
N692   C705    1.380   .     A
C694   C745    1.339   .     S
C694   H748    1.087   .     S
H695   C745    1.087   .     S
C697   H699    1.078   .     S
C697   C704    1.396   .     A
C698   C703    1.399   .     A
C698   H700    1.084   .     S
C698   C858    1.392   .     S
C701   C703    1.409   .     A
C701   N711    1.439   .     S
C701   C853    1.389   .     S
C702   C704    1.411   .     A
C702   N714    1.439   .     S
C705   N717    1.422   .     S
C706   N723    1.419   .     S
C706   C1176   1.422   .     S
C707   H709    1.080   .     S
C707   C1173   1.424   .     S
C708   H710    1.082   .     S
N711   O712    1.301   .     A
N711   O713    1.301   .     A
N714   O716    1.301   .     A
N714   O715    1.301   .     A
N717   H718    1.031   .     S
N717   C719    1.448   .     S
C719   H721    1.111   .     S
C719   H720    1.110   .     S
H722   C1187   1.110   .     S
N723   H724    1.031   .     S
N723   C725    1.449   .     S
C725   H726    1.110   .     S
C725   H727    1.112   .     S
C725   H1196   1.111   .     S
O729   C733    1.291   .     A
O729   Cu741   1.956   .     S
O730   C734    1.292   .     A
O730   Cu742   1.956   .     S
O731   Cu742   1.961   .     S
O731   C733    1.296   .     A
O732   C734    1.293   .     A
O732   Cu741   1.961   .     S
C733   C756    1.448   .     S
C734   C755    1.446   .     S
O735   C739    1.287   .     A
O735   Cu741   1.951   .     S
O736   C740    1.287   .     A
O736   Cu742   1.951   .     S
O737   Cu742   1.957   .     S
O737   C739    1.294   .     A
O738   C740    1.294   .     A
O738   Cu741   1.957   .     S
C739   C745    1.435   .     S
C740   C746    1.435   .     S
Cu741  Cu742   2.689   .     S
Cu741  N743    2.021   .     S
Cu742  N744    2.021   .     S
N743   C759    1.359   .     A
N743   C758    1.376   .     A
N744   C760    1.362   .     A
N744   C757    1.380   .     A
C746   C641    1.339   1_655 S
C746   H644    1.087   1_655 S
H747   C641    1.087   1_655 S
C749   H751    1.078   .     S
C749   C756    1.396   .     A
C750   C755    1.399   .     A
C750   H752    1.084   .     S
C750   C910    1.392   .     S
C753   C755    1.409   .     A
C753   N763    1.439   .     S
C753   C905    1.389   .     S
C754   C756    1.411   .     A
C754   N766    1.439   .     S
C757   N769    1.422   .     S
C758   N775    1.419   .     S
C758   C1228   1.422   .     S
C759   H761    1.080   .     S
C759   C1225   1.424   .     S
C760   H762    1.082   .     S
N763   O764    1.301   .     A
N763   O765    1.301   .     A
N766   O768    1.301   .     A
N766   O767    1.301   .     A
N769   H770    1.031   .     S
N769   C771    1.448   .     S
C771   H773    1.111   .     S
C771   H772    1.110   .     S
H774   C1239   1.110   .     S
N775   H776    1.031   .     S
N775   C777    1.449   .     S
C777   H778    1.110   .     S
C777   H779    1.112   .     S
C777   H1248   1.111   .     S
O781   C785    1.291   .     A
O781   Cu793   1.956   .     S
O782   C786    1.292   .     A
O782   Cu794   1.956   .     S
O783   Cu794   1.961   .     S
O783   C785    1.296   .     A
O784   C786    1.293   .     A
O784   Cu793   1.961   .     S
C785   C808    1.448   .     S
C786   C807    1.446   .     S
O787   C791    1.287   .     A
O787   Cu793   1.951   .     S
O788   C792    1.287   .     A
O788   Cu794   1.951   .     S
O789   Cu794   1.957   .     S
O789   C791    1.294   .     A
O790   C792    1.294   .     A
O790   Cu793   1.957   .     S
C791   C797    1.435   .     S
C792   C798    1.435   .     S
Cu793  Cu794   2.689   .     S
Cu793  N795    2.021   .     S
Cu794  N796    2.021   .     S
N795   C811    1.359   .     A
N795   C810    1.376   .     A
N796   C812    1.362   .     A
N796   C809    1.380   .     A
C797   C902    1.339   1_455 S
C797   H903    1.087   1_455 S
C798   C849    1.339   .     S
C798   H852    1.087   .     S
H799   C849    1.087   .     S
H800   C902    1.087   1_455 S
C801   H803    1.078   .     S
C801   C808    1.396   .     A
C802   C807    1.399   .     A
C802   H804    1.084   .     S
C802   C494    1.392   1_565 S
C805   C807    1.409   .     A
C805   N815    1.439   .     S
C805   C489    1.389   1_565 S
C806   C808    1.411   .     A
C806   N818    1.439   .     S
C809   N821    1.422   .     S
C810   N827    1.419   .     S
C810   C1280   1.422   .     S
C811   H813    1.080   .     S
C811   C1277   1.424   .     S
C812   H814    1.082   .     S
N815   O816    1.301   .     A
N815   O817    1.301   .     A
N818   O820    1.301   .     A
N818   O819    1.301   .     A
N821   H822    1.031   .     S
N821   C823    1.448   .     S
C823   H825    1.111   .     S
C823   H824    1.110   .     S
H826   C1291   1.110   .     S
N827   H828    1.031   .     S
N827   C829    1.449   .     S
C829   H830    1.110   .     S
C829   H831    1.112   .     S
C829   H1300   1.111   .     S
O833   C837    1.291   .     A
O833   Cu845   1.956   .     S
O834   C838    1.292   .     A
O834   Cu846   1.956   .     S
O835   Cu846   1.961   .     S
O835   C837    1.296   .     A
O836   C838    1.293   .     A
O836   Cu845   1.961   .     S
C837   C860    1.448   .     S
C838   C859    1.446   .     S
O839   C843    1.287   .     A
O839   Cu845   1.951   .     S
O840   C844    1.287   .     A
O840   Cu846   1.951   .     S
O841   Cu846   1.957   .     S
O841   C843    1.294   .     A
O842   C844    1.294   .     A
O842   Cu845   1.957   .     S
C843   C849    1.435   .     S
C844   C850    1.435   .     S
Cu845  Cu846   2.689   .     S
Cu845  N847    2.021   .     S
Cu846  N848    2.021   .     S
N847   C863    1.359   .     A
N847   C862    1.376   .     A
N848   C864    1.362   .     A
N848   C861    1.380   .     A
C850   C901    1.339   .     S
C850   H904    1.087   .     S
H851   C901    1.087   .     S
C853   H855    1.078   .     S
C853   C860    1.396   .     A
C854   C859    1.399   .     A
C854   H856    1.084   .     S
C854   C546    1.392   1_565 S
C857   C859    1.409   .     A
C857   N867    1.439   .     S
C857   C541    1.389   1_565 S
C858   C860    1.411   .     A
C858   N870    1.439   .     S
C861   N873    1.422   .     S
C862   N879    1.419   .     S
C862   C1332   1.422   .     S
C863   H865    1.080   .     S
C863   C1329   1.424   .     S
C864   H866    1.082   .     S
N867   O868    1.301   .     A
N867   O869    1.301   .     A
N870   O872    1.301   .     A
N870   O871    1.301   .     A
N873   H874    1.031   .     S
N873   C875    1.448   .     S
C875   H877    1.111   .     S
C875   H876    1.110   .     S
H878   C1343   1.110   .     S
N879   H880    1.031   .     S
N879   C881    1.449   .     S
C881   H882    1.110   .     S
C881   H883    1.112   .     S
C881   H1352   1.111   .     S
O885   C889    1.291   .     A
O885   Cu897   1.956   .     S
O886   C890    1.292   .     A
O886   Cu898   1.956   .     S
O887   Cu898   1.961   .     S
O887   C889    1.296   .     A
O888   C890    1.293   .     A
O888   Cu897   1.961   .     S
C889   C912    1.448   .     S
C890   C911    1.446   .     S
O891   C895    1.287   .     A
O891   Cu897   1.951   .     S
O892   C896    1.287   .     A
O892   Cu898   1.951   .     S
O893   Cu898   1.957   .     S
O893   C895    1.294   .     A
O894   C896    1.294   .     A
O894   Cu897   1.957   .     S
C895   C901    1.435   .     S
C896   C902    1.435   .     S
Cu897  Cu898   2.689   .     S
Cu897  N899    2.021   .     S
Cu898  N900    2.021   .     S
N899   C915    1.359   .     A
N899   C914    1.376   .     A
N900   C916    1.362   .     A
N900   C913    1.380   .     A
C902   C797    1.339   1_655 S
C902   H800    1.087   1_655 S
H903   C797    1.087   1_655 S
C905   H907    1.078   .     S
C905   C912    1.396   .     A
C906   C911    1.399   .     A
C906   H908    1.084   .     S
C906   C598    1.392   1_565 S
C909   C911    1.409   .     A
C909   N919    1.439   .     S
C909   C593    1.389   1_565 S
C910   C912    1.411   .     A
C910   N922    1.439   .     S
C913   N925    1.422   .     S
C914   N931    1.419   .     S
C914   C1384   1.422   .     S
C915   H917    1.080   .     S
C915   C1381   1.424   .     S
C916   H918    1.082   .     S
N919   O920    1.301   .     A
N919   O921    1.301   .     A
N922   O924    1.301   .     A
N922   O923    1.301   .     A
N925   H926    1.031   .     S
N925   C927    1.448   .     S
C927   H929    1.111   .     S
C927   H928    1.110   .     S
H930   C1395   1.110   .     S
N931   H932    1.031   .     S
N931   C933    1.449   .     S
C933   H934    1.110   .     S
C933   H935    1.112   .     S
C933   H1404   1.111   .     S
O937   C941    1.291   .     A
O937   Cu949   1.956   .     S
O938   C942    1.292   .     A
O938   Cu950   1.956   .     S
O939   Cu950   1.961   .     S
O939   C941    1.296   .     A
O940   C942    1.293   .     A
O940   Cu949   1.961   .     S
C941   C964    1.448   .     S
C942   C963    1.446   .     S
O943   C947    1.287   .     A
O943   Cu949   1.951   .     S
O944   C948    1.287   .     A
O944   Cu950   1.951   .     S
O945   Cu950   1.957   .     S
O945   C947    1.294   .     A
O946   C948    1.294   .     A
O946   Cu949   1.957   .     S
C947   C953    1.435   .     S
C948   C954    1.435   .     S
Cu949  Cu950   2.689   .     S
Cu949  N951    2.021   .     S
Cu950  N952    2.021   .     S
N951   C967    1.359   .     A
N951   C966    1.376   .     A
N952   C968    1.362   .     A
N952   C965    1.380   .     A
C953   C1058   1.339   1_455 S
C953   H1059   1.087   1_455 S
C954   C1005   1.339   .     S
C954   H1008   1.087   .     S
H955   C1005   1.087   .     S
H956   C1058   1.087   1_455 S
C957   H959    1.078   .     S
C957   C964    1.396   .     A
C957   C1273   1.389   1_545 S
C958   C963    1.399   .     A
C958   H960    1.084   .     S
C958   C1118   1.392   .     S
C961   C963    1.409   .     A
C961   N971    1.439   .     S
C961   C1113   1.389   .     S
C962   C964    1.411   .     A
C962   N974    1.439   .     S
C962   C1270   1.392   1_545 S
C965   N977    1.422   .     S
C966   N983    1.419   .     S
C966   C32     1.422   1_556 S
C967   H969    1.080   .     S
C967   C29     1.424   1_556 S
C968   H970    1.082   .     S
N971   O972    1.301   .     A
N971   O973    1.301   .     A
N974   O976    1.301   .     A
N974   O975    1.301   .     A
N977   H978    1.031   .     S
N977   C979    1.448   .     S
C979   H981    1.111   .     S
C979   H980    1.110   .     S
H982   C43     1.110   1_556 S
N983   H984    1.031   .     S
N983   C985    1.449   .     S
C985   H986    1.110   .     S
C985   H987    1.112   .     S
C985   H52     1.111   1_556 S
O989   C993    1.291   .     A
O989   Cu1001  1.956   .     S
O990   C994    1.292   .     A
O990   Cu1002  1.956   .     S
O991   Cu1002  1.961   .     S
O991   C993    1.296   .     A
O992   C994    1.293   .     A
O992   Cu1001  1.961   .     S
C993   C1016   1.448   .     S
C994   C1015   1.446   .     S
O995   C999    1.287   .     A
O995   Cu1001  1.951   .     S
O996   C1000   1.287   .     A
O996   Cu1002  1.951   .     S
O997   Cu1002  1.957   .     S
O997   C999    1.294   .     A
O998   C1000   1.294   .     A
O998   Cu1001  1.957   .     S
C999   C1005   1.435   .     S
C1000  C1006   1.435   .     S
Cu1001 Cu1002  2.689   .     S
Cu1001 N1003   2.021   .     S
Cu1002 N1004   2.021   .     S
N1003  C1019   1.359   .     A
N1003  C1018   1.376   .     A
N1004  C1020   1.362   .     A
N1004  C1017   1.380   .     A
C1006  C1057   1.339   .     S
C1006  H1060   1.087   .     S
H1007  C1057   1.087   .     S
C1009  H1011   1.078   .     S
C1009  C1016   1.396   .     A
C1009  C1325   1.389   1_545 S
C1010  C1015   1.399   .     A
C1010  H1012   1.084   .     S
C1010  C1170   1.392   .     S
C1013  C1015   1.409   .     A
C1013  N1023   1.439   .     S
C1013  C1165   1.389   .     S
C1014  C1016   1.411   .     A
C1014  N1026   1.439   .     S
C1014  C1322   1.392   1_545 S
C1017  N1029   1.422   .     S
C1018  N1035   1.419   .     S
C1018  C84     1.422   1_556 S
C1019  H1021   1.080   .     S
C1019  C81     1.424   1_556 S
C1020  H1022   1.082   .     S
N1023  O1024   1.301   .     A
N1023  O1025   1.301   .     A
N1026  O1028   1.301   .     A
N1026  O1027   1.301   .     A
N1029  H1030   1.031   .     S
N1029  C1031   1.448   .     S
C1031  H1033   1.111   .     S
C1031  H1032   1.110   .     S
H1034  C95     1.110   1_556 S
N1035  H1036   1.031   .     S
N1035  C1037   1.449   .     S
C1037  H1038   1.110   .     S
C1037  H1039   1.112   .     S
C1037  H104    1.111   1_556 S
O1041  C1045   1.291   .     A
O1041  Cu1053  1.956   .     S
O1042  C1046   1.292   .     A
O1042  Cu1054  1.956   .     S
O1043  Cu1054  1.961   .     S
O1043  C1045   1.296   .     A
O1044  C1046   1.293   .     A
O1044  Cu1053  1.961   .     S
C1045  C1068   1.448   .     S
C1046  C1067   1.446   .     S
O1047  C1051   1.287   .     A
O1047  Cu1053  1.951   .     S
O1048  C1052   1.287   .     A
O1048  Cu1054  1.951   .     S
O1049  Cu1054  1.957   .     S
O1049  C1051   1.294   .     A
O1050  C1052   1.294   .     A
O1050  Cu1053  1.957   .     S
C1051  C1057   1.435   .     S
C1052  C1058   1.435   .     S
Cu1053 Cu1054  2.689   .     S
Cu1053 N1055   2.021   .     S
Cu1054 N1056   2.021   .     S
N1055  C1071   1.359   .     A
N1055  C1070   1.376   .     A
N1056  C1072   1.362   .     A
N1056  C1069   1.380   .     A
C1058  C953    1.339   1_655 S
C1058  H956    1.087   1_655 S
H1059  C953    1.087   1_655 S
C1061  H1063   1.078   .     S
C1061  C1068   1.396   .     A
C1061  C1377   1.389   1_545 S
C1062  C1067   1.399   .     A
C1062  H1064   1.084   .     S
C1062  C1222   1.392   .     S
C1065  C1067   1.409   .     A
C1065  N1075   1.439   .     S
C1065  C1217   1.389   .     S
C1066  C1068   1.411   .     A
C1066  N1078   1.439   .     S
C1066  C1374   1.392   1_545 S
C1069  N1081   1.422   .     S
C1070  N1087   1.419   .     S
C1070  C136    1.422   1_556 S
C1071  H1073   1.080   .     S
C1071  C133    1.424   1_556 S
C1072  H1074   1.082   .     S
N1075  O1076   1.301   .     A
N1075  O1077   1.301   .     A
N1078  O1080   1.301   .     A
N1078  O1079   1.301   .     A
N1081  H1082   1.031   .     S
N1081  C1083   1.448   .     S
C1083  H1085   1.111   .     S
C1083  H1084   1.110   .     S
H1086  C147    1.110   1_556 S
N1087  H1088   1.031   .     S
N1087  C1089   1.449   .     S
C1089  H1090   1.110   .     S
C1089  H1091   1.112   .     S
C1089  H156    1.111   1_556 S
O1093  C1097   1.291   .     A
O1093  Cu1105  1.956   .     S
O1094  C1098   1.292   .     A
O1094  Cu1106  1.956   .     S
O1095  Cu1106  1.961   .     S
O1095  C1097   1.296   .     A
O1096  C1098   1.293   .     A
O1096  Cu1105  1.961   .     S
C1097  C1120   1.448   .     S
C1098  C1119   1.446   .     S
O1099  C1103   1.287   .     A
O1099  Cu1105  1.951   .     S
O1100  C1104   1.287   .     A
O1100  Cu1106  1.951   .     S
O1101  Cu1106  1.957   .     S
O1101  C1103   1.294   .     A
O1102  C1104   1.294   .     A
O1102  Cu1105  1.957   .     S
C1103  C1109   1.435   .     S
C1104  C1110   1.435   .     S
Cu1105 Cu1106  2.689   .     S
Cu1105 N1107   2.021   .     S
Cu1106 N1108   2.021   .     S
N1107  C1123   1.359   .     A
N1107  C1122   1.376   .     A
N1108  C1124   1.362   .     A
N1108  C1121   1.380   .     A
C1109  C1214   1.339   1_455 S
C1109  H1215   1.087   1_455 S
C1110  C1161   1.339   .     S
C1110  H1164   1.087   .     S
H1111  C1161   1.087   .     S
H1112  C1214   1.087   1_455 S
C1113  H1115   1.078   .     S
C1113  C1120   1.396   .     A
C1114  C1119   1.399   .     A
C1114  H1116   1.084   .     S
C1114  C1274   1.392   .     S
C1117  C1119   1.409   .     A
C1117  N1127   1.439   .     S
C1117  C1269   1.389   .     S
C1118  C1120   1.411   .     A
C1118  N1130   1.439   .     S
C1121  N1133   1.422   .     S
C1122  N1139   1.419   .     S
C1122  C188    1.422   1_556 S
C1123  H1125   1.080   .     S
C1123  C185    1.424   1_556 S
C1124  H1126   1.082   .     S
N1127  O1128   1.301   .     A
N1127  O1129   1.301   .     A
N1130  O1132   1.301   .     A
N1130  O1131   1.301   .     A
N1133  H1134   1.031   .     S
N1133  C1135   1.448   .     S
C1135  H1137   1.111   .     S
C1135  H1136   1.110   .     S
H1138  C199    1.110   1_556 S
N1139  H1140   1.031   .     S
N1139  C1141   1.449   .     S
C1141  H1142   1.110   .     S
C1141  H1143   1.112   .     S
C1141  H208    1.111   1_556 S
O1145  C1149   1.291   .     A
O1145  Cu1157  1.956   .     S
O1146  C1150   1.292   .     A
O1146  Cu1158  1.956   .     S
O1147  Cu1158  1.961   .     S
O1147  C1149   1.296   .     A
O1148  C1150   1.293   .     A
O1148  Cu1157  1.961   .     S
C1149  C1172   1.448   .     S
C1150  C1171   1.446   .     S
O1151  C1155   1.287   .     A
O1151  Cu1157  1.951   .     S
O1152  C1156   1.287   .     A
O1152  Cu1158  1.951   .     S
O1153  Cu1158  1.957   .     S
O1153  C1155   1.294   .     A
O1154  C1156   1.294   .     A
O1154  Cu1157  1.957   .     S
C1155  C1161   1.435   .     S
C1156  C1162   1.435   .     S
Cu1157 Cu1158  2.689   .     S
Cu1157 N1159   2.021   .     S
Cu1158 N1160   2.021   .     S
N1159  C1175   1.359   .     A
N1159  C1174   1.376   .     A
N1160  C1176   1.362   .     A
N1160  C1173   1.380   .     A
C1162  C1213   1.339   .     S
C1162  H1216   1.087   .     S
H1163  C1213   1.087   .     S
C1165  H1167   1.078   .     S
C1165  C1172   1.396   .     A
C1166  C1171   1.399   .     A
C1166  H1168   1.084   .     S
C1166  C1326   1.392   .     S
C1169  C1171   1.409   .     A
C1169  N1179   1.439   .     S
C1169  C1321   1.389   .     S
C1170  C1172   1.411   .     A
C1170  N1182   1.439   .     S
C1173  N1185   1.422   .     S
C1174  N1191   1.419   .     S
C1174  C240    1.422   1_556 S
C1175  H1177   1.080   .     S
C1175  C237    1.424   1_556 S
C1176  H1178   1.082   .     S
N1179  O1180   1.301   .     A
N1179  O1181   1.301   .     A
N1182  O1184   1.301   .     A
N1182  O1183   1.301   .     A
N1185  H1186   1.031   .     S
N1185  C1187   1.448   .     S
C1187  H1189   1.111   .     S
C1187  H1188   1.110   .     S
H1190  C251    1.110   1_556 S
N1191  H1192   1.031   .     S
N1191  C1193   1.449   .     S
C1193  H1194   1.110   .     S
C1193  H1195   1.112   .     S
C1193  H260    1.111   1_556 S
O1197  C1201   1.291   .     A
O1197  Cu1209  1.956   .     S
O1198  C1202   1.292   .     A
O1198  Cu1210  1.956   .     S
O1199  Cu1210  1.961   .     S
O1199  C1201   1.296   .     A
O1200  C1202   1.293   .     A
O1200  Cu1209  1.961   .     S
C1201  C1224   1.448   .     S
C1202  C1223   1.446   .     S
O1203  C1207   1.287   .     A
O1203  Cu1209  1.951   .     S
O1204  C1208   1.287   .     A
O1204  Cu1210  1.951   .     S
O1205  Cu1210  1.957   .     S
O1205  C1207   1.294   .     A
O1206  C1208   1.294   .     A
O1206  Cu1209  1.957   .     S
C1207  C1213   1.435   .     S
C1208  C1214   1.435   .     S
Cu1209 Cu1210  2.689   .     S
Cu1209 N1211   2.021   .     S
Cu1210 N1212   2.021   .     S
N1211  C1227   1.359   .     A
N1211  C1226   1.376   .     A
N1212  C1228   1.362   .     A
N1212  C1225   1.380   .     A
C1214  C1109   1.339   1_655 S
C1214  H1112   1.087   1_655 S
H1215  C1109   1.087   1_655 S
C1217  H1219   1.078   .     S
C1217  C1224   1.396   .     A
C1218  C1223   1.399   .     A
C1218  H1220   1.084   .     S
C1218  C1378   1.392   .     S
C1221  C1223   1.409   .     A
C1221  N1231   1.439   .     S
C1221  C1373   1.389   .     S
C1222  C1224   1.411   .     A
C1222  N1234   1.439   .     S
C1225  N1237   1.422   .     S
C1226  N1243   1.419   .     S
C1226  C292    1.422   1_556 S
C1227  H1229   1.080   .     S
C1227  C289    1.424   1_556 S
C1228  H1230   1.082   .     S
N1231  O1232   1.301   .     A
N1231  O1233   1.301   .     A
N1234  O1236   1.301   .     A
N1234  O1235   1.301   .     A
N1237  H1238   1.031   .     S
N1237  C1239   1.448   .     S
C1239  H1241   1.111   .     S
C1239  H1240   1.110   .     S
H1242  C303    1.110   1_556 S
N1243  H1244   1.031   .     S
N1243  C1245   1.449   .     S
C1245  H1246   1.110   .     S
C1245  H1247   1.112   .     S
C1245  H312    1.111   1_556 S
O1249  C1253   1.291   .     A
O1249  Cu1261  1.956   .     S
O1250  C1254   1.292   .     A
O1250  Cu1262  1.956   .     S
O1251  Cu1262  1.961   .     S
O1251  C1253   1.296   .     A
O1252  C1254   1.293   .     A
O1252  Cu1261  1.961   .     S
C1253  C1276   1.448   .     S
C1254  C1275   1.446   .     S
O1255  C1259   1.287   .     A
O1255  Cu1261  1.951   .     S
O1256  C1260   1.287   .     A
O1256  Cu1262  1.951   .     S
O1257  Cu1262  1.957   .     S
O1257  C1259   1.294   .     A
O1258  C1260   1.294   .     A
O1258  Cu1261  1.957   .     S
C1259  C1265   1.435   .     S
C1260  C1266   1.435   .     S
Cu1261 Cu1262  2.689   .     S
Cu1261 N1263   2.021   .     S
Cu1262 N1264   2.021   .     S
N1263  C1279   1.359   .     A
N1263  C1278   1.376   .     A
N1264  C1280   1.362   .     A
N1264  C1277   1.380   .     A
C1265  C1370   1.339   1_455 S
C1265  H1371   1.087   1_455 S
C1266  C1317   1.339   .     S
C1266  H1320   1.087   .     S
H1267  C1317   1.087   .     S
H1268  C1370   1.087   1_455 S
C1269  H1271   1.078   .     S
C1269  C1276   1.396   .     A
C1270  C1275   1.399   .     A
C1270  H1272   1.084   .     S
C1270  C962    1.392   1_565 S
C1273  C1275   1.409   .     A
C1273  N1283   1.439   .     S
C1273  C957    1.389   1_565 S
C1274  C1276   1.411   .     A
C1274  N1286   1.439   .     S
C1277  N1289   1.422   .     S
C1278  N1295   1.419   .     S
C1278  C344    1.422   1_556 S
C1279  H1281   1.080   .     S
C1279  C341    1.424   1_556 S
C1280  H1282   1.082   .     S
N1283  O1284   1.301   .     A
N1283  O1285   1.301   .     A
N1286  O1288   1.301   .     A
N1286  O1287   1.301   .     A
N1289  H1290   1.031   .     S
N1289  C1291   1.448   .     S
C1291  H1293   1.111   .     S
C1291  H1292   1.110   .     S
H1294  C355    1.110   1_556 S
N1295  H1296   1.031   .     S
N1295  C1297   1.449   .     S
C1297  H1298   1.110   .     S
C1297  H1299   1.112   .     S
C1297  H364    1.111   1_556 S
O1301  C1305   1.291   .     A
O1301  Cu1313  1.956   .     S
O1302  C1306   1.292   .     A
O1302  Cu1314  1.956   .     S
O1303  Cu1314  1.961   .     S
O1303  C1305   1.296   .     A
O1304  C1306   1.293   .     A
O1304  Cu1313  1.961   .     S
C1305  C1328   1.448   .     S
C1306  C1327   1.446   .     S
O1307  C1311   1.287   .     A
O1307  Cu1313  1.951   .     S
O1308  C1312   1.287   .     A
O1308  Cu1314  1.951   .     S
O1309  Cu1314  1.957   .     S
O1309  C1311   1.294   .     A
O1310  C1312   1.294   .     A
O1310  Cu1313  1.957   .     S
C1311  C1317   1.435   .     S
C1312  C1318   1.435   .     S
Cu1313 Cu1314  2.689   .     S
Cu1313 N1315   2.021   .     S
Cu1314 N1316   2.021   .     S
N1315  C1331   1.359   .     A
N1315  C1330   1.376   .     A
N1316  C1332   1.362   .     A
N1316  C1329   1.380   .     A
C1318  C1369   1.339   .     S
C1318  H1372   1.087   .     S
H1319  C1369   1.087   .     S
C1321  H1323   1.078   .     S
C1321  C1328   1.396   .     A
C1322  C1327   1.399   .     A
C1322  H1324   1.084   .     S
C1322  C1014   1.392   1_565 S
C1325  C1327   1.409   .     A
C1325  N1335   1.439   .     S
C1325  C1009   1.389   1_565 S
C1326  C1328   1.411   .     A
C1326  N1338   1.439   .     S
C1329  N1341   1.422   .     S
C1330  N1347   1.419   .     S
C1330  C396    1.422   1_556 S
C1331  H1333   1.080   .     S
C1331  C393    1.424   1_556 S
C1332  H1334   1.082   .     S
N1335  O1336   1.301   .     A
N1335  O1337   1.301   .     A
N1338  O1340   1.301   .     A
N1338  O1339   1.301   .     A
N1341  H1342   1.031   .     S
N1341  C1343   1.448   .     S
C1343  H1345   1.111   .     S
C1343  H1344   1.110   .     S
H1346  C407    1.110   1_556 S
N1347  H1348   1.031   .     S
N1347  C1349   1.449   .     S
C1349  H1350   1.110   .     S
C1349  H1351   1.112   .     S
C1349  H416    1.111   1_556 S
O1353  C1357   1.291   .     A
O1353  Cu1365  1.956   .     S
O1354  C1358   1.292   .     A
O1354  Cu1366  1.956   .     S
O1355  Cu1366  1.961   .     S
O1355  C1357   1.296   .     A
O1356  C1358   1.293   .     A
O1356  Cu1365  1.961   .     S
C1357  C1380   1.448   .     S
C1358  C1379   1.446   .     S
O1359  C1363   1.287   .     A
O1359  Cu1365  1.951   .     S
O1360  C1364   1.287   .     A
O1360  Cu1366  1.951   .     S
O1361  Cu1366  1.957   .     S
O1361  C1363   1.294   .     A
O1362  C1364   1.294   .     A
O1362  Cu1365  1.957   .     S
C1363  C1369   1.435   .     S
C1364  C1370   1.435   .     S
Cu1365 Cu1366  2.689   .     S
Cu1365 N1367   2.021   .     S
Cu1366 N1368   2.021   .     S
N1367  C1383   1.359   .     A
N1367  C1382   1.376   .     A
N1368  C1384   1.362   .     A
N1368  C1381   1.380   .     A
C1370  C1265   1.339   1_655 S
C1370  H1268   1.087   1_655 S
H1371  C1265   1.087   1_655 S
C1373  H1375   1.078   .     S
C1373  C1380   1.396   .     A
C1374  C1379   1.399   .     A
C1374  H1376   1.084   .     S
C1374  C1066   1.392   1_565 S
C1377  C1379   1.409   .     A
C1377  N1387   1.439   .     S
C1377  C1061   1.389   1_565 S
C1378  C1380   1.411   .     A
C1378  N1390   1.439   .     S
C1381  N1393   1.422   .     S
C1382  N1399   1.419   .     S
C1382  C448    1.422   1_556 S
C1383  H1385   1.080   .     S
C1383  C445    1.424   1_556 S
C1384  H1386   1.082   .     S
N1387  O1388   1.301   .     A
N1387  O1389   1.301   .     A
N1390  O1392   1.301   .     A
N1390  O1391   1.301   .     A
N1393  H1394   1.031   .     S
N1393  C1395   1.448   .     S
C1395  H1397   1.111   .     S
C1395  H1396   1.110   .     S
H1398  C459    1.110   1_556 S
N1399  H1400   1.031   .     S
N1399  C1401   1.449   .     S
C1401  H1402   1.110   .     S
C1401  H1403   1.112   .     S
C1401  H468    1.111   1_556 S
