data_str_m2_o10_o17_pcu_sym.77
_audit_creation_date              2020-01-03
_audit_creation_method            'Materials Studio'
_symmetry_space_group_name_H-M    'P1'
_symmetry_Int_Tables_number       1
_symmetry_cell_setting            triclinic
loop_
_symmetry_equiv_pos_as_xyz
  x,y,z
_cell_length_a                    30.1382
_cell_length_b                    26.4630
_cell_length_c                    22.7492
_cell_angle_alpha                 102.2181
_cell_angle_beta                  93.4325
_cell_angle_gamma                 90.8661
loop_
_atom_site_label
_atom_site_type_symbol
_atom_site_fract_x
_atom_site_fract_y
_atom_site_fract_z
_atom_site_U_iso_or_equiv
_atom_site_adp_type
_atom_site_occupancy
C1     C     0.24883   0.06713   0.15183   0.00000  Uiso   1.00
C2     C     0.09138   0.11781   0.15014   0.00000  Uiso   1.00
C3     C     0.38293   0.16749   0.16147   0.00000  Uiso   1.00
C4     C     0.11588   0.16465   0.16868   0.00000  Uiso   1.00
C5     C     0.40365   0.12367   0.13250   0.00000  Uiso   1.00
C6     C     0.09417   0.21119   0.18234   0.00000  Uiso   1.00
C7     C     0.45002   0.12225   0.13333   0.00000  Uiso   1.00
C8     C     0.04760   0.21262   0.18028   0.00000  Uiso   1.00
C9     C     0.47551   0.16792   0.15805   0.00000  Uiso   1.00
C10    C     0.02240   0.16619   0.15989   0.00000  Uiso   1.00
C11    C     0.45405   0.21457   0.18386   0.00000  Uiso   1.00
C12    C     0.25291   0.26616   0.18141   0.00000  Uiso   1.00
C13    C     0.04406   0.11814   0.14253   0.00000  Uiso   1.00
C14    C     0.47105   0.07523   0.11354   0.00000  Uiso   1.00
C15    C     0.02594   0.25946   0.19993   0.00000  Uiso   1.00
C16    C     0.03676   0.00218   0.04657   0.00000  Uiso   1.00
C17    C     0.03587   0.27639   0.03728   0.00000  Uiso   1.00
C18    C     0.08107   0.25569   0.05284   0.00000  Uiso   1.00
C19    C     0.45396   0.01094   0.23464   0.00000  Uiso   1.00
C20    C     0.43034   0.04622   0.28476   0.00000  Uiso   1.00
C21    C     0.40699   0.09011   0.26342   0.00000  Uiso   1.00
C22    C     0.18920   0.08766   0.31835   0.00000  Uiso   1.00
C23    C     0.01764   0.07258   0.11855   0.00000  Uiso   1.00
C24    C     0.18349   0.03119   0.28705   0.00000  Uiso   1.00
C25    C     0.14093   0.00976   0.30466   0.00000  Uiso   1.00
C26    C     0.31378   0.24657   0.00934   0.00000  Uiso   1.00
C27    C     0.35213   0.21987   0.03660   0.00000  Uiso   1.00
C28    C     0.39671   0.22994   0.01235   0.00000  Uiso   1.00
C29    C     0.48010   0.26025   0.20768   0.00000  Uiso   1.00
C30    C     0.24354   0.01204   0.14524   0.00000  Uiso   1.00
C31    C     0.26064   0.32104   0.18753   0.00000  Uiso   1.00
C32    C     0.16459   0.16620   0.16764   0.00000  Uiso   1.00
C33    C     0.33502   0.16539   0.16509   0.00000  Uiso   1.00
C34    C     0.40715   0.21321   0.18584   0.00000  Uiso   1.00
Cl35   Cl    0.37563   0.26785   0.21313   0.00000  Uiso   1.00
Cl36   Cl    0.12202   0.06043   0.13943   0.00000  Uiso   1.00
Cl37   Cl    0.43916   0.01729   0.08732   0.00000  Uiso   1.00
Cl38   Cl    0.05618   0.31794   0.21863   0.00000  Uiso   1.00
Cl39   Cl    0.20807   0.31423   0.08311   0.00000  Uiso   1.00
Cl40   Cl    0.29672   0.01857   0.24980   0.00000  Uiso   1.00
Cu41   Cu    0.25500   0.17246   0.22813   0.00000  Uiso   1.00
Cu42   Cu    0.24499   0.16087   0.10521   0.00000  Uiso   1.00
H43    H     0.38292   0.08981   0.11303   0.00000  Uiso   1.00
H44    H     0.43150   0.00251   0.19362   0.00000  Uiso   1.00
H45    H     0.48357   0.03241   0.22547   0.00000  Uiso   1.00
H46    H     0.40514   0.02338   0.30256   0.00000  Uiso   1.00
H47    H     0.45504   0.06353   0.32182   0.00000  Uiso   1.00
H48    H     0.43194   0.11673   0.25127   0.00000  Uiso   1.00
H49    H     0.38814   0.11192   0.30048   0.00000  Uiso   1.00
H50    H     0.38314   0.07466   0.22445   0.00000  Uiso   1.00
H51    H     0.16559   0.11103   0.29631   0.00000  Uiso   1.00
H52    H     0.18141   0.09128   0.03256   0.00000  Uiso   1.00
H53    H     0.18190   0.02761   0.23748   0.00000  Uiso   1.00
H54    H     0.11446   0.24622   0.19442   0.00000  Uiso   1.00
H55    H     0.21168   0.00867   0.30053   0.00000  Uiso   1.00
H56    H     0.14232   0.01048   0.01998   0.00000  Uiso   1.00
H57    H     0.13526   0.30266   0.27989   0.00000  Uiso   1.00
H58    H     0.11378   0.03522   0.29556   0.00000  Uiso   1.00
H59    H     0.31671   0.28859   0.02992   0.00000  Uiso   1.00
H60    H     0.31706   0.24399   0.29458   0.00000  Uiso   1.00
H61    H     0.35433   0.23501   0.08593   0.00000  Uiso   1.00
H62    H     0.34583   0.17744   0.02652   0.00000  Uiso   1.00
H63    H     0.42427   0.22172   0.04333   0.00000  Uiso   1.00
H64    H     0.39961   0.20413   0.30108   0.00000  Uiso   1.00
H65    H     0.06682   0.01595   0.02903   0.00000  Uiso   1.00
H66    H     0.39994   0.27050   0.00745   0.00000  Uiso   1.00
H67    H     0.00832   0.01312   0.01927   0.00000  Uiso   1.00
H68    H     0.01068   0.26405   0.06554   0.00000  Uiso   1.00
H69    H     0.02581   0.25871   0.32297   0.00000  Uiso   1.00
H70    H     0.10461   0.25967   0.01843   0.00000  Uiso   1.00
H71    H     0.07741   0.21396   0.05329   0.00000  Uiso   1.00
H72    H     0.09497   0.27688   0.09766   0.00000  Uiso   1.00
N73    N     0.23744   0.15214   0.01284   0.00000  Uiso   1.00
N74    N     0.26255   0.18119   0.32049   0.00000  Uiso   1.00
O75    O     0.25325   0.09538   0.20659   0.00000  Uiso   1.00
O76    O     0.46467   0.29806   0.25368   0.00000  Uiso   1.00
O77    O     0.23296   0.10364   0.31414   0.00000  Uiso   1.00
O78    O     0.27185   0.22844   0.02217   0.00000  Uiso   1.00
O79    O     0.24674   0.23796   0.12674   0.00000  Uiso   1.00
O80    O     0.24480   0.08559   0.10279   0.00000  Uiso   1.00
O81    O     0.25520   0.24774   0.23055   0.00000  Uiso   1.00
O82    O     0.18935   0.17155   0.21857   0.00000  Uiso   1.00
O83    O     0.31064   0.16179   0.11476   0.00000  Uiso   1.00
O84    O     0.18090   0.16176   0.11477   0.00000  Uiso   1.00
O85    O     0.31910   0.17157   0.21857   0.00000  Uiso   1.00
O86    O     0.03626   0.02423   0.10880   0.00000  Uiso   1.00
C87    C     0.74883   0.06713   0.15183   0.00000  Uiso   1.00
C88    C     0.59138   0.11781   0.15014   0.00000  Uiso   1.00
C89    C     0.88293   0.16749   0.16147   0.00000  Uiso   1.00
C90    C     0.61588   0.16465   0.16868   0.00000  Uiso   1.00
C91    C     0.90365   0.12367   0.13250   0.00000  Uiso   1.00
C92    C     0.59417   0.21119   0.18234   0.00000  Uiso   1.00
C93    C     0.95002   0.12225   0.13333   0.00000  Uiso   1.00
C94    C     0.54760   0.21262   0.18028   0.00000  Uiso   1.00
C95    C     0.97551   0.16792   0.15805   0.00000  Uiso   1.00
C96    C     0.52240   0.16619   0.15989   0.00000  Uiso   1.00
C97    C     0.95405   0.21457   0.18386   0.00000  Uiso   1.00
C98    C     0.75291   0.26616   0.18141   0.00000  Uiso   1.00
C99    C     0.54406   0.11814   0.14253   0.00000  Uiso   1.00
C100   C     0.97105   0.07523   0.11354   0.00000  Uiso   1.00
C101   C     0.52594   0.25946   0.19993   0.00000  Uiso   1.00
C102   C     0.53676   0.00218   0.04657   0.00000  Uiso   1.00
C103   C     0.53587   0.27639   0.03728   0.00000  Uiso   1.00
C104   C     0.58107   0.25569   0.05284   0.00000  Uiso   1.00
C105   C     0.95396   0.01094   0.23464   0.00000  Uiso   1.00
C106   C     0.93034   0.04622   0.28476   0.00000  Uiso   1.00
C107   C     0.90699   0.09011   0.26342   0.00000  Uiso   1.00
C108   C     0.68920   0.08766   0.31835   0.00000  Uiso   1.00
C109   C     0.51764   0.07258   0.11855   0.00000  Uiso   1.00
C110   C     0.68349   0.03119   0.28705   0.00000  Uiso   1.00
C111   C     0.64093   0.00976   0.30466   0.00000  Uiso   1.00
C112   C     0.81378   0.24657   0.00934   0.00000  Uiso   1.00
C113   C     0.85213   0.21987   0.03660   0.00000  Uiso   1.00
C114   C     0.89671   0.22994   0.01235   0.00000  Uiso   1.00
C115   C     0.98010   0.26025   0.20768   0.00000  Uiso   1.00
C116   C     0.74354   0.01204   0.14524   0.00000  Uiso   1.00
C117   C     0.76064   0.32104   0.18753   0.00000  Uiso   1.00
C118   C     0.66459   0.16620   0.16764   0.00000  Uiso   1.00
C119   C     0.83502   0.16539   0.16509   0.00000  Uiso   1.00
C120   C     0.90715   0.21321   0.18584   0.00000  Uiso   1.00
Cl121  Cl    0.87563   0.26785   0.21313   0.00000  Uiso   1.00
Cl122  Cl    0.62202   0.06043   0.13943   0.00000  Uiso   1.00
Cl123  Cl    0.93916   0.01729   0.08732   0.00000  Uiso   1.00
Cl124  Cl    0.55618   0.31794   0.21863   0.00000  Uiso   1.00
Cl125  Cl    0.70807   0.31423   0.08311   0.00000  Uiso   1.00
Cl126  Cl    0.79672   0.01857   0.24980   0.00000  Uiso   1.00
Cu127  Cu    0.75500   0.17246   0.22813   0.00000  Uiso   1.00
Cu128  Cu    0.74499   0.16087   0.10521   0.00000  Uiso   1.00
H129   H     0.88292   0.08981   0.11303   0.00000  Uiso   1.00
H130   H     0.93150   0.00251   0.19362   0.00000  Uiso   1.00
H131   H     0.98357   0.03241   0.22547   0.00000  Uiso   1.00
H132   H     0.90514   0.02338   0.30256   0.00000  Uiso   1.00
H133   H     0.95504   0.06353   0.32182   0.00000  Uiso   1.00
H134   H     0.93194   0.11673   0.25127   0.00000  Uiso   1.00
H135   H     0.88814   0.11192   0.30048   0.00000  Uiso   1.00
H136   H     0.88314   0.07466   0.22445   0.00000  Uiso   1.00
H137   H     0.66559   0.11103   0.29631   0.00000  Uiso   1.00
H138   H     0.68141   0.09128   0.03256   0.00000  Uiso   1.00
H139   H     0.68190   0.02761   0.23748   0.00000  Uiso   1.00
H140   H     0.61446   0.24622   0.19442   0.00000  Uiso   1.00
H141   H     0.71168   0.00867   0.30053   0.00000  Uiso   1.00
H142   H     0.64232   0.01048   0.01998   0.00000  Uiso   1.00
H143   H     0.63526   0.30266   0.27989   0.00000  Uiso   1.00
H144   H     0.61378   0.03522   0.29556   0.00000  Uiso   1.00
H145   H     0.81671   0.28859   0.02992   0.00000  Uiso   1.00
H146   H     0.81706   0.24399   0.29458   0.00000  Uiso   1.00
H147   H     0.85433   0.23501   0.08593   0.00000  Uiso   1.00
H148   H     0.84583   0.17744   0.02652   0.00000  Uiso   1.00
H149   H     0.92427   0.22172   0.04333   0.00000  Uiso   1.00
H150   H     0.89961   0.20413   0.30108   0.00000  Uiso   1.00
H151   H     0.56682   0.01595   0.02903   0.00000  Uiso   1.00
H152   H     0.89994   0.27050   0.00745   0.00000  Uiso   1.00
H153   H     0.50832   0.01312   0.01927   0.00000  Uiso   1.00
H154   H     0.51068   0.26405   0.06554   0.00000  Uiso   1.00
H155   H     0.52581   0.25871   0.32297   0.00000  Uiso   1.00
H156   H     0.60461   0.25967   0.01843   0.00000  Uiso   1.00
H157   H     0.57741   0.21396   0.05329   0.00000  Uiso   1.00
H158   H     0.59497   0.27688   0.09766   0.00000  Uiso   1.00
N159   N     0.73744   0.15214   0.01284   0.00000  Uiso   1.00
N160   N     0.76255   0.18119   0.32049   0.00000  Uiso   1.00
O161   O     0.75325   0.09538   0.20659   0.00000  Uiso   1.00
O162   O     0.96467   0.29806   0.25368   0.00000  Uiso   1.00
O163   O     0.73296   0.10364   0.31414   0.00000  Uiso   1.00
O164   O     0.77185   0.22844   0.02217   0.00000  Uiso   1.00
O165   O     0.74674   0.23796   0.12674   0.00000  Uiso   1.00
O166   O     0.74480   0.08559   0.10279   0.00000  Uiso   1.00
O167   O     0.75520   0.24774   0.23055   0.00000  Uiso   1.00
O168   O     0.68935   0.17155   0.21857   0.00000  Uiso   1.00
O169   O     0.81064   0.16179   0.11476   0.00000  Uiso   1.00
O170   O     0.68090   0.16176   0.11477   0.00000  Uiso   1.00
O171   O     0.81910   0.17157   0.21857   0.00000  Uiso   1.00
O172   O     0.53626   0.02423   0.10880   0.00000  Uiso   1.00
C173   C     0.24883   0.40047   0.15183   0.00000  Uiso   1.00
C174   C     0.09138   0.45114   0.15014   0.00000  Uiso   1.00
C175   C     0.38293   0.50082   0.16147   0.00000  Uiso   1.00
C176   C     0.11588   0.49799   0.16868   0.00000  Uiso   1.00
C177   C     0.40365   0.45700   0.13250   0.00000  Uiso   1.00
C178   C     0.09417   0.54452   0.18234   0.00000  Uiso   1.00
C179   C     0.45002   0.45559   0.13333   0.00000  Uiso   1.00
C180   C     0.04760   0.54595   0.18028   0.00000  Uiso   1.00
C181   C     0.47551   0.50125   0.15805   0.00000  Uiso   1.00
C182   C     0.02240   0.49952   0.15989   0.00000  Uiso   1.00
C183   C     0.45405   0.54790   0.18386   0.00000  Uiso   1.00
C184   C     0.25291   0.59949   0.18141   0.00000  Uiso   1.00
C185   C     0.04406   0.45147   0.14253   0.00000  Uiso   1.00
C186   C     0.47105   0.40857   0.11354   0.00000  Uiso   1.00
C187   C     0.02594   0.59280   0.19993   0.00000  Uiso   1.00
C188   C     0.03676   0.33552   0.04657   0.00000  Uiso   1.00
C189   C     0.03587   0.60972   0.03728   0.00000  Uiso   1.00
C190   C     0.08107   0.58903   0.05284   0.00000  Uiso   1.00
C191   C     0.45396   0.34428   0.23464   0.00000  Uiso   1.00
C192   C     0.43034   0.37956   0.28476   0.00000  Uiso   1.00
C193   C     0.40699   0.42344   0.26342   0.00000  Uiso   1.00
C194   C     0.18920   0.42099   0.31835   0.00000  Uiso   1.00
C195   C     0.01764   0.40591   0.11855   0.00000  Uiso   1.00
C196   C     0.18349   0.36453   0.28705   0.00000  Uiso   1.00
C197   C     0.14093   0.34309   0.30466   0.00000  Uiso   1.00
C198   C     0.31378   0.57991   0.00934   0.00000  Uiso   1.00
C199   C     0.35213   0.55320   0.03660   0.00000  Uiso   1.00
C200   C     0.39671   0.56327   0.01235   0.00000  Uiso   1.00
C201   C     0.48010   0.59358   0.20768   0.00000  Uiso   1.00
C202   C     0.24354   0.34537   0.14524   0.00000  Uiso   1.00
C203   C     0.26064   0.65438   0.18753   0.00000  Uiso   1.00
C204   C     0.16459   0.49953   0.16764   0.00000  Uiso   1.00
C205   C     0.33502   0.49872   0.16509   0.00000  Uiso   1.00
C206   C     0.40715   0.54654   0.18584   0.00000  Uiso   1.00
Cl207  Cl    0.37563   0.60118   0.21313   0.00000  Uiso   1.00
Cl208  Cl    0.12202   0.39376   0.13943   0.00000  Uiso   1.00
Cl209  Cl    0.43916   0.35063   0.08732   0.00000  Uiso   1.00
Cl210  Cl    0.05618   0.65127   0.21863   0.00000  Uiso   1.00
Cl211  Cl    0.20807   0.64757   0.08311   0.00000  Uiso   1.00
Cl212  Cl    0.29672   0.35190   0.24980   0.00000  Uiso   1.00
Cu213  Cu    0.25500   0.50579   0.22813   0.00000  Uiso   1.00
Cu214  Cu    0.24499   0.49421   0.10521   0.00000  Uiso   1.00
H215   H     0.38292   0.42314   0.11303   0.00000  Uiso   1.00
H216   H     0.43150   0.33585   0.19362   0.00000  Uiso   1.00
H217   H     0.48357   0.36575   0.22547   0.00000  Uiso   1.00
H218   H     0.40514   0.35672   0.30256   0.00000  Uiso   1.00
H219   H     0.45504   0.39686   0.32182   0.00000  Uiso   1.00
H220   H     0.43194   0.45007   0.25127   0.00000  Uiso   1.00
H221   H     0.38814   0.44525   0.30048   0.00000  Uiso   1.00
H222   H     0.38314   0.40799   0.22445   0.00000  Uiso   1.00
H223   H     0.16559   0.44437   0.29631   0.00000  Uiso   1.00
H224   H     0.18141   0.42461   0.03256   0.00000  Uiso   1.00
H225   H     0.18190   0.36095   0.23748   0.00000  Uiso   1.00
H226   H     0.11446   0.57955   0.19442   0.00000  Uiso   1.00
H227   H     0.21168   0.34200   0.30053   0.00000  Uiso   1.00
H228   H     0.14232   0.34381   0.01998   0.00000  Uiso   1.00
H229   H     0.13526   0.63599   0.27989   0.00000  Uiso   1.00
H230   H     0.11378   0.36856   0.29556   0.00000  Uiso   1.00
H231   H     0.31671   0.62192   0.02992   0.00000  Uiso   1.00
H232   H     0.31706   0.57733   0.29458   0.00000  Uiso   1.00
H233   H     0.35433   0.56835   0.08593   0.00000  Uiso   1.00
H234   H     0.34583   0.51077   0.02652   0.00000  Uiso   1.00
H235   H     0.42427   0.55505   0.04333   0.00000  Uiso   1.00
H236   H     0.39961   0.53747   0.30108   0.00000  Uiso   1.00
H237   H     0.06682   0.34928   0.02903   0.00000  Uiso   1.00
H238   H     0.39994   0.60383   0.00745   0.00000  Uiso   1.00
H239   H     0.00832   0.34645   0.01927   0.00000  Uiso   1.00
H240   H     0.01068   0.59738   0.06554   0.00000  Uiso   1.00
H241   H     0.02581   0.59204   0.32297   0.00000  Uiso   1.00
H242   H     0.10461   0.59300   0.01843   0.00000  Uiso   1.00
H243   H     0.07741   0.54730   0.05329   0.00000  Uiso   1.00
H244   H     0.09497   0.61022   0.09766   0.00000  Uiso   1.00
N245   N     0.23744   0.48547   0.01284   0.00000  Uiso   1.00
N246   N     0.26255   0.51453   0.32049   0.00000  Uiso   1.00
O247   O     0.25325   0.42871   0.20659   0.00000  Uiso   1.00
O248   O     0.46467   0.63139   0.25368   0.00000  Uiso   1.00
O249   O     0.23296   0.43697   0.31414   0.00000  Uiso   1.00
O250   O     0.27185   0.56177   0.02217   0.00000  Uiso   1.00
O251   O     0.24674   0.57129   0.12674   0.00000  Uiso   1.00
O252   O     0.24480   0.41892   0.10279   0.00000  Uiso   1.00
O253   O     0.25520   0.58108   0.23055   0.00000  Uiso   1.00
O254   O     0.18935   0.50488   0.21857   0.00000  Uiso   1.00
O255   O     0.31064   0.49512   0.11476   0.00000  Uiso   1.00
O256   O     0.18090   0.49510   0.11477   0.00000  Uiso   1.00
O257   O     0.31910   0.50490   0.21857   0.00000  Uiso   1.00
O258   O     0.03626   0.35756   0.10880   0.00000  Uiso   1.00
C259   C     0.74883   0.40047   0.15183   0.00000  Uiso   1.00
C260   C     0.59138   0.45114   0.15014   0.00000  Uiso   1.00
C261   C     0.88293   0.50082   0.16147   0.00000  Uiso   1.00
C262   C     0.61588   0.49799   0.16868   0.00000  Uiso   1.00
C263   C     0.90365   0.45700   0.13250   0.00000  Uiso   1.00
C264   C     0.59417   0.54452   0.18234   0.00000  Uiso   1.00
C265   C     0.95002   0.45559   0.13333   0.00000  Uiso   1.00
C266   C     0.54760   0.54595   0.18028   0.00000  Uiso   1.00
C267   C     0.97551   0.50125   0.15805   0.00000  Uiso   1.00
C268   C     0.52240   0.49952   0.15989   0.00000  Uiso   1.00
C269   C     0.95405   0.54790   0.18386   0.00000  Uiso   1.00
C270   C     0.75291   0.59949   0.18141   0.00000  Uiso   1.00
C271   C     0.54406   0.45147   0.14253   0.00000  Uiso   1.00
C272   C     0.97105   0.40857   0.11354   0.00000  Uiso   1.00
C273   C     0.52594   0.59280   0.19993   0.00000  Uiso   1.00
C274   C     0.53676   0.33552   0.04657   0.00000  Uiso   1.00
C275   C     0.53587   0.60972   0.03728   0.00000  Uiso   1.00
C276   C     0.58107   0.58903   0.05284   0.00000  Uiso   1.00
C277   C     0.95396   0.34428   0.23464   0.00000  Uiso   1.00
C278   C     0.93034   0.37956   0.28476   0.00000  Uiso   1.00
C279   C     0.90699   0.42344   0.26342   0.00000  Uiso   1.00
C280   C     0.68920   0.42099   0.31835   0.00000  Uiso   1.00
C281   C     0.51764   0.40591   0.11855   0.00000  Uiso   1.00
C282   C     0.68349   0.36453   0.28705   0.00000  Uiso   1.00
C283   C     0.64093   0.34309   0.30466   0.00000  Uiso   1.00
C284   C     0.81378   0.57991   0.00934   0.00000  Uiso   1.00
C285   C     0.85213   0.55320   0.03660   0.00000  Uiso   1.00
C286   C     0.89671   0.56327   0.01235   0.00000  Uiso   1.00
C287   C     0.98010   0.59358   0.20768   0.00000  Uiso   1.00
C288   C     0.74354   0.34537   0.14524   0.00000  Uiso   1.00
C289   C     0.76064   0.65438   0.18753   0.00000  Uiso   1.00
C290   C     0.66459   0.49953   0.16764   0.00000  Uiso   1.00
C291   C     0.83502   0.49872   0.16509   0.00000  Uiso   1.00
C292   C     0.90715   0.54654   0.18584   0.00000  Uiso   1.00
Cl293  Cl    0.87563   0.60118   0.21313   0.00000  Uiso   1.00
Cl294  Cl    0.62202   0.39376   0.13943   0.00000  Uiso   1.00
Cl295  Cl    0.93916   0.35063   0.08732   0.00000  Uiso   1.00
Cl296  Cl    0.55618   0.65127   0.21863   0.00000  Uiso   1.00
Cl297  Cl    0.70807   0.64757   0.08311   0.00000  Uiso   1.00
Cl298  Cl    0.79672   0.35190   0.24980   0.00000  Uiso   1.00
Cu299  Cu    0.75500   0.50579   0.22813   0.00000  Uiso   1.00
Cu300  Cu    0.74499   0.49421   0.10521   0.00000  Uiso   1.00
H301   H     0.88292   0.42314   0.11303   0.00000  Uiso   1.00
H302   H     0.93150   0.33585   0.19362   0.00000  Uiso   1.00
H303   H     0.98357   0.36575   0.22547   0.00000  Uiso   1.00
H304   H     0.90514   0.35672   0.30256   0.00000  Uiso   1.00
H305   H     0.95504   0.39686   0.32182   0.00000  Uiso   1.00
H306   H     0.93194   0.45007   0.25127   0.00000  Uiso   1.00
H307   H     0.88814   0.44525   0.30048   0.00000  Uiso   1.00
H308   H     0.88314   0.40799   0.22445   0.00000  Uiso   1.00
H309   H     0.66559   0.44437   0.29631   0.00000  Uiso   1.00
H310   H     0.68141   0.42461   0.03256   0.00000  Uiso   1.00
H311   H     0.68190   0.36095   0.23748   0.00000  Uiso   1.00
H312   H     0.61446   0.57955   0.19442   0.00000  Uiso   1.00
H313   H     0.71168   0.34200   0.30053   0.00000  Uiso   1.00
H314   H     0.64232   0.34381   0.01998   0.00000  Uiso   1.00
H315   H     0.63526   0.63599   0.27989   0.00000  Uiso   1.00
H316   H     0.61378   0.36856   0.29556   0.00000  Uiso   1.00
H317   H     0.81671   0.62192   0.02992   0.00000  Uiso   1.00
H318   H     0.81706   0.57733   0.29458   0.00000  Uiso   1.00
H319   H     0.85433   0.56835   0.08593   0.00000  Uiso   1.00
H320   H     0.84583   0.51077   0.02652   0.00000  Uiso   1.00
H321   H     0.92427   0.55505   0.04333   0.00000  Uiso   1.00
H322   H     0.89961   0.53747   0.30108   0.00000  Uiso   1.00
H323   H     0.56682   0.34928   0.02903   0.00000  Uiso   1.00
H324   H     0.89994   0.60383   0.00745   0.00000  Uiso   1.00
H325   H     0.50832   0.34645   0.01927   0.00000  Uiso   1.00
H326   H     0.51068   0.59738   0.06554   0.00000  Uiso   1.00
H327   H     0.52581   0.59204   0.32297   0.00000  Uiso   1.00
H328   H     0.60461   0.59300   0.01843   0.00000  Uiso   1.00
H329   H     0.57741   0.54730   0.05329   0.00000  Uiso   1.00
H330   H     0.59497   0.61022   0.09766   0.00000  Uiso   1.00
N331   N     0.73744   0.48547   0.01284   0.00000  Uiso   1.00
N332   N     0.76255   0.51453   0.32049   0.00000  Uiso   1.00
O333   O     0.75325   0.42871   0.20659   0.00000  Uiso   1.00
O334   O     0.96467   0.63139   0.25368   0.00000  Uiso   1.00
O335   O     0.73296   0.43697   0.31414   0.00000  Uiso   1.00
O336   O     0.77185   0.56177   0.02217   0.00000  Uiso   1.00
O337   O     0.74674   0.57129   0.12674   0.00000  Uiso   1.00
O338   O     0.74480   0.41892   0.10279   0.00000  Uiso   1.00
O339   O     0.75520   0.58108   0.23055   0.00000  Uiso   1.00
O340   O     0.68935   0.50488   0.21857   0.00000  Uiso   1.00
O341   O     0.81064   0.49512   0.11476   0.00000  Uiso   1.00
O342   O     0.68090   0.49510   0.11477   0.00000  Uiso   1.00
O343   O     0.81910   0.50490   0.21857   0.00000  Uiso   1.00
O344   O     0.53626   0.35756   0.10880   0.00000  Uiso   1.00
C345   C     0.24883   0.73380   0.15183   0.00000  Uiso   1.00
C346   C     0.09138   0.78447   0.15014   0.00000  Uiso   1.00
C347   C     0.38293   0.83416   0.16147   0.00000  Uiso   1.00
C348   C     0.11588   0.83132   0.16868   0.00000  Uiso   1.00
C349   C     0.40365   0.79034   0.13250   0.00000  Uiso   1.00
C350   C     0.09417   0.87786   0.18234   0.00000  Uiso   1.00
C351   C     0.45002   0.78892   0.13333   0.00000  Uiso   1.00
C352   C     0.04760   0.87928   0.18028   0.00000  Uiso   1.00
C353   C     0.47551   0.83459   0.15805   0.00000  Uiso   1.00
C354   C     0.02240   0.83286   0.15989   0.00000  Uiso   1.00
C355   C     0.45405   0.88123   0.18386   0.00000  Uiso   1.00
C356   C     0.25291   0.93283   0.18141   0.00000  Uiso   1.00
C357   C     0.04406   0.78481   0.14253   0.00000  Uiso   1.00
C358   C     0.47105   0.74190   0.11354   0.00000  Uiso   1.00
C359   C     0.02594   0.92613   0.19993   0.00000  Uiso   1.00
C360   C     0.03676   0.66885   0.04657   0.00000  Uiso   1.00
C361   C     0.03587   0.94306   0.03728   0.00000  Uiso   1.00
C362   C     0.08107   0.92236   0.05284   0.00000  Uiso   1.00
C363   C     0.45396   0.67761   0.23464   0.00000  Uiso   1.00
C364   C     0.43034   0.71289   0.28476   0.00000  Uiso   1.00
C365   C     0.40699   0.75678   0.26342   0.00000  Uiso   1.00
C366   C     0.18920   0.75432   0.31835   0.00000  Uiso   1.00
C367   C     0.01764   0.73925   0.11855   0.00000  Uiso   1.00
C368   C     0.18349   0.69786   0.28705   0.00000  Uiso   1.00
C369   C     0.14093   0.67643   0.30466   0.00000  Uiso   1.00
C370   C     0.31378   0.91324   0.00934   0.00000  Uiso   1.00
C371   C     0.35213   0.88653   0.03660   0.00000  Uiso   1.00
C372   C     0.39671   0.89661   0.01235   0.00000  Uiso   1.00
C373   C     0.48010   0.92692   0.20768   0.00000  Uiso   1.00
C374   C     0.24354   0.67870   0.14524   0.00000  Uiso   1.00
C375   C     0.26064   0.98771   0.18753   0.00000  Uiso   1.00
C376   C     0.16459   0.83286   0.16764   0.00000  Uiso   1.00
C377   C     0.33502   0.83206   0.16509   0.00000  Uiso   1.00
C378   C     0.40715   0.87988   0.18584   0.00000  Uiso   1.00
Cl379  Cl    0.37563   0.93451   0.21313   0.00000  Uiso   1.00
Cl380  Cl    0.12202   0.72710   0.13943   0.00000  Uiso   1.00
Cl381  Cl    0.43916   0.68396   0.08732   0.00000  Uiso   1.00
Cl382  Cl    0.05618   0.98460   0.21863   0.00000  Uiso   1.00
Cl383  Cl    0.20807   0.98090   0.08311   0.00000  Uiso   1.00
Cl384  Cl    0.29672   0.68523   0.24980   0.00000  Uiso   1.00
Cu385  Cu    0.25500   0.83913   0.22813   0.00000  Uiso   1.00
Cu386  Cu    0.24499   0.82754   0.10521   0.00000  Uiso   1.00
H387   H     0.38292   0.75648   0.11303   0.00000  Uiso   1.00
H388   H     0.43150   0.66918   0.19362   0.00000  Uiso   1.00
H389   H     0.48357   0.69908   0.22547   0.00000  Uiso   1.00
H390   H     0.40514   0.69005   0.30256   0.00000  Uiso   1.00
H391   H     0.45504   0.73020   0.32182   0.00000  Uiso   1.00
H392   H     0.43194   0.78340   0.25127   0.00000  Uiso   1.00
H393   H     0.38814   0.77859   0.30048   0.00000  Uiso   1.00
H394   H     0.38314   0.74133   0.22445   0.00000  Uiso   1.00
H395   H     0.16559   0.77770   0.29631   0.00000  Uiso   1.00
H396   H     0.18141   0.75795   0.03256   0.00000  Uiso   1.00
H397   H     0.18190   0.69428   0.23748   0.00000  Uiso   1.00
H398   H     0.11446   0.91288   0.19442   0.00000  Uiso   1.00
H399   H     0.21168   0.67534   0.30053   0.00000  Uiso   1.00
H400   H     0.14232   0.67714   0.01998   0.00000  Uiso   1.00
H401   H     0.13526   0.96933   0.27989   0.00000  Uiso   1.00
H402   H     0.11378   0.70189   0.29556   0.00000  Uiso   1.00
H403   H     0.31671   0.95526   0.02992   0.00000  Uiso   1.00
H404   H     0.31706   0.91066   0.29458   0.00000  Uiso   1.00
H405   H     0.35433   0.90168   0.08593   0.00000  Uiso   1.00
H406   H     0.34583   0.84410   0.02652   0.00000  Uiso   1.00
H407   H     0.42427   0.88838   0.04333   0.00000  Uiso   1.00
H408   H     0.39961   0.87080   0.30108   0.00000  Uiso   1.00
H409   H     0.06682   0.68262   0.02903   0.00000  Uiso   1.00
H410   H     0.39994   0.93716   0.00745   0.00000  Uiso   1.00
H411   H     0.00832   0.67979   0.01927   0.00000  Uiso   1.00
H412   H     0.01068   0.93071   0.06554   0.00000  Uiso   1.00
H413   H     0.02581   0.92537   0.32297   0.00000  Uiso   1.00
H414   H     0.10461   0.92633   0.01843   0.00000  Uiso   1.00
H415   H     0.07741   0.88063   0.05329   0.00000  Uiso   1.00
H416   H     0.09497   0.94355   0.09766   0.00000  Uiso   1.00
N417   N     0.23744   0.81881   0.01284   0.00000  Uiso   1.00
N418   N     0.26255   0.84786   0.32049   0.00000  Uiso   1.00
O419   O     0.25325   0.76204   0.20659   0.00000  Uiso   1.00
O420   O     0.46467   0.96472   0.25368   0.00000  Uiso   1.00
O421   O     0.23296   0.77030   0.31414   0.00000  Uiso   1.00
O422   O     0.27185   0.89511   0.02217   0.00000  Uiso   1.00
O423   O     0.24674   0.90462   0.12674   0.00000  Uiso   1.00
O424   O     0.24480   0.75226   0.10279   0.00000  Uiso   1.00
O425   O     0.25520   0.91441   0.23055   0.00000  Uiso   1.00
O426   O     0.18935   0.83821   0.21857   0.00000  Uiso   1.00
O427   O     0.31064   0.82845   0.11476   0.00000  Uiso   1.00
O428   O     0.18090   0.82843   0.11477   0.00000  Uiso   1.00
O429   O     0.31910   0.83824   0.21857   0.00000  Uiso   1.00
O430   O     0.03626   0.69090   0.10880   0.00000  Uiso   1.00
C431   C     0.74883   0.73380   0.15183   0.00000  Uiso   1.00
C432   C     0.59138   0.78447   0.15014   0.00000  Uiso   1.00
C433   C     0.88293   0.83416   0.16147   0.00000  Uiso   1.00
C434   C     0.61588   0.83132   0.16868   0.00000  Uiso   1.00
C435   C     0.90365   0.79034   0.13250   0.00000  Uiso   1.00
C436   C     0.59417   0.87786   0.18234   0.00000  Uiso   1.00
C437   C     0.95002   0.78892   0.13333   0.00000  Uiso   1.00
C438   C     0.54760   0.87928   0.18028   0.00000  Uiso   1.00
C439   C     0.97551   0.83459   0.15805   0.00000  Uiso   1.00
C440   C     0.52240   0.83286   0.15989   0.00000  Uiso   1.00
C441   C     0.95405   0.88123   0.18386   0.00000  Uiso   1.00
C442   C     0.75291   0.93283   0.18141   0.00000  Uiso   1.00
C443   C     0.54406   0.78481   0.14253   0.00000  Uiso   1.00
C444   C     0.97105   0.74190   0.11354   0.00000  Uiso   1.00
C445   C     0.52594   0.92613   0.19993   0.00000  Uiso   1.00
C446   C     0.53676   0.66885   0.04657   0.00000  Uiso   1.00
C447   C     0.53587   0.94306   0.03728   0.00000  Uiso   1.00
C448   C     0.58107   0.92236   0.05284   0.00000  Uiso   1.00
C449   C     0.95396   0.67761   0.23464   0.00000  Uiso   1.00
C450   C     0.93034   0.71289   0.28476   0.00000  Uiso   1.00
C451   C     0.90699   0.75678   0.26342   0.00000  Uiso   1.00
C452   C     0.68920   0.75432   0.31835   0.00000  Uiso   1.00
C453   C     0.51764   0.73925   0.11855   0.00000  Uiso   1.00
C454   C     0.68349   0.69786   0.28705   0.00000  Uiso   1.00
C455   C     0.64093   0.67643   0.30466   0.00000  Uiso   1.00
C456   C     0.81378   0.91324   0.00934   0.00000  Uiso   1.00
C457   C     0.85213   0.88653   0.03660   0.00000  Uiso   1.00
C458   C     0.89671   0.89661   0.01235   0.00000  Uiso   1.00
C459   C     0.98010   0.92692   0.20768   0.00000  Uiso   1.00
C460   C     0.74354   0.67870   0.14524   0.00000  Uiso   1.00
C461   C     0.76064   0.98771   0.18753   0.00000  Uiso   1.00
C462   C     0.66459   0.83286   0.16764   0.00000  Uiso   1.00
C463   C     0.83502   0.83206   0.16509   0.00000  Uiso   1.00
C464   C     0.90715   0.87988   0.18584   0.00000  Uiso   1.00
Cl465  Cl    0.87563   0.93451   0.21313   0.00000  Uiso   1.00
Cl466  Cl    0.62202   0.72710   0.13943   0.00000  Uiso   1.00
Cl467  Cl    0.93916   0.68396   0.08732   0.00000  Uiso   1.00
Cl468  Cl    0.55618   0.98460   0.21863   0.00000  Uiso   1.00
Cl469  Cl    0.70807   0.98090   0.08311   0.00000  Uiso   1.00
Cl470  Cl    0.79672   0.68523   0.24980   0.00000  Uiso   1.00
Cu471  Cu    0.75500   0.83913   0.22813   0.00000  Uiso   1.00
Cu472  Cu    0.74499   0.82754   0.10521   0.00000  Uiso   1.00
H473   H     0.88292   0.75648   0.11303   0.00000  Uiso   1.00
H474   H     0.93150   0.66918   0.19362   0.00000  Uiso   1.00
H475   H     0.98357   0.69908   0.22547   0.00000  Uiso   1.00
H476   H     0.90514   0.69005   0.30256   0.00000  Uiso   1.00
H477   H     0.95504   0.73020   0.32182   0.00000  Uiso   1.00
H478   H     0.93194   0.78340   0.25127   0.00000  Uiso   1.00
H479   H     0.88814   0.77859   0.30048   0.00000  Uiso   1.00
H480   H     0.88314   0.74133   0.22445   0.00000  Uiso   1.00
H481   H     0.66559   0.77770   0.29631   0.00000  Uiso   1.00
H482   H     0.68141   0.75795   0.03256   0.00000  Uiso   1.00
H483   H     0.68190   0.69428   0.23748   0.00000  Uiso   1.00
H484   H     0.61446   0.91288   0.19442   0.00000  Uiso   1.00
H485   H     0.71168   0.67534   0.30053   0.00000  Uiso   1.00
H486   H     0.64232   0.67714   0.01998   0.00000  Uiso   1.00
H487   H     0.63526   0.96933   0.27989   0.00000  Uiso   1.00
H488   H     0.61378   0.70189   0.29556   0.00000  Uiso   1.00
H489   H     0.81671   0.95526   0.02992   0.00000  Uiso   1.00
H490   H     0.81706   0.91066   0.29458   0.00000  Uiso   1.00
H491   H     0.85433   0.90168   0.08593   0.00000  Uiso   1.00
H492   H     0.84583   0.84410   0.02652   0.00000  Uiso   1.00
H493   H     0.92427   0.88838   0.04333   0.00000  Uiso   1.00
H494   H     0.89961   0.87080   0.30108   0.00000  Uiso   1.00
H495   H     0.56682   0.68262   0.02903   0.00000  Uiso   1.00
H496   H     0.89994   0.93716   0.00745   0.00000  Uiso   1.00
H497   H     0.50832   0.67979   0.01927   0.00000  Uiso   1.00
H498   H     0.51068   0.93071   0.06554   0.00000  Uiso   1.00
H499   H     0.52581   0.92537   0.32297   0.00000  Uiso   1.00
H500   H     0.60461   0.92633   0.01843   0.00000  Uiso   1.00
H501   H     0.57741   0.88063   0.05329   0.00000  Uiso   1.00
H502   H     0.59497   0.94355   0.09766   0.00000  Uiso   1.00
N503   N     0.73744   0.81881   0.01284   0.00000  Uiso   1.00
N504   N     0.76255   0.84786   0.32049   0.00000  Uiso   1.00
O505   O     0.75325   0.76204   0.20659   0.00000  Uiso   1.00
O506   O     0.96467   0.96472   0.25368   0.00000  Uiso   1.00
O507   O     0.73296   0.77030   0.31414   0.00000  Uiso   1.00
O508   O     0.77185   0.89511   0.02217   0.00000  Uiso   1.00
O509   O     0.74674   0.90462   0.12674   0.00000  Uiso   1.00
O510   O     0.74480   0.75226   0.10279   0.00000  Uiso   1.00
O511   O     0.75520   0.91441   0.23055   0.00000  Uiso   1.00
O512   O     0.68935   0.83821   0.21857   0.00000  Uiso   1.00
O513   O     0.81064   0.82845   0.11476   0.00000  Uiso   1.00
O514   O     0.68090   0.82843   0.11477   0.00000  Uiso   1.00
O515   O     0.81910   0.83824   0.21857   0.00000  Uiso   1.00
O516   O     0.53626   0.69090   0.10880   0.00000  Uiso   1.00
C517   C     0.24883   0.06713   0.48517   0.00000  Uiso   1.00
C518   C     0.09138   0.11781   0.48347   0.00000  Uiso   1.00
C519   C     0.38293   0.16749   0.49480   0.00000  Uiso   1.00
C520   C     0.11588   0.16465   0.50202   0.00000  Uiso   1.00
C521   C     0.40365   0.12367   0.46583   0.00000  Uiso   1.00
C522   C     0.09417   0.21119   0.51567   0.00000  Uiso   1.00
C523   C     0.45002   0.12225   0.46666   0.00000  Uiso   1.00
C524   C     0.04760   0.21262   0.51361   0.00000  Uiso   1.00
C525   C     0.47551   0.16792   0.49138   0.00000  Uiso   1.00
C526   C     0.02240   0.16619   0.49322   0.00000  Uiso   1.00
C527   C     0.45405   0.21457   0.51719   0.00000  Uiso   1.00
C528   C     0.25291   0.26616   0.51475   0.00000  Uiso   1.00
C529   C     0.04406   0.11814   0.47586   0.00000  Uiso   1.00
C530   C     0.47105   0.07523   0.44688   0.00000  Uiso   1.00
C531   C     0.02594   0.25946   0.53326   0.00000  Uiso   1.00
C532   C     0.03676   0.00218   0.37990   0.00000  Uiso   1.00
C533   C     0.03587   0.27639   0.37062   0.00000  Uiso   1.00
C534   C     0.08107   0.25569   0.38617   0.00000  Uiso   1.00
C535   C     0.45396   0.01094   0.56797   0.00000  Uiso   1.00
C536   C     0.43034   0.04622   0.61809   0.00000  Uiso   1.00
C537   C     0.40699   0.09011   0.59676   0.00000  Uiso   1.00
C538   C     0.18920   0.08766   0.65168   0.00000  Uiso   1.00
C539   C     0.01764   0.07258   0.45188   0.00000  Uiso   1.00
C540   C     0.18349   0.03119   0.62038   0.00000  Uiso   1.00
C541   C     0.14093   0.00976   0.63799   0.00000  Uiso   1.00
C542   C     0.31378   0.24657   0.34267   0.00000  Uiso   1.00
C543   C     0.35213   0.21987   0.36994   0.00000  Uiso   1.00
C544   C     0.39671   0.22994   0.34569   0.00000  Uiso   1.00
C545   C     0.48010   0.26025   0.54102   0.00000  Uiso   1.00
C546   C     0.24354   0.01204   0.47858   0.00000  Uiso   1.00
C547   C     0.26064   0.32104   0.52087   0.00000  Uiso   1.00
C548   C     0.16459   0.16620   0.50097   0.00000  Uiso   1.00
C549   C     0.33502   0.16539   0.49843   0.00000  Uiso   1.00
C550   C     0.40715   0.21321   0.51917   0.00000  Uiso   1.00
Cl551  Cl    0.37563   0.26785   0.54646   0.00000  Uiso   1.00
Cl552  Cl    0.12202   0.06043   0.47276   0.00000  Uiso   1.00
Cl553  Cl    0.43916   0.01729   0.42065   0.00000  Uiso   1.00
Cl554  Cl    0.05618   0.31794   0.55197   0.00000  Uiso   1.00
Cl555  Cl    0.20807   0.31423   0.41644   0.00000  Uiso   1.00
Cl556  Cl    0.29672   0.01857   0.58313   0.00000  Uiso   1.00
Cu557  Cu    0.25500   0.17246   0.56146   0.00000  Uiso   1.00
Cu558  Cu    0.24499   0.16087   0.43854   0.00000  Uiso   1.00
H559   H     0.38292   0.08981   0.44636   0.00000  Uiso   1.00
H560   H     0.43150   0.00251   0.52695   0.00000  Uiso   1.00
H561   H     0.48357   0.03241   0.55881   0.00000  Uiso   1.00
H562   H     0.40514   0.02338   0.63589   0.00000  Uiso   1.00
H563   H     0.45504   0.06353   0.65515   0.00000  Uiso   1.00
H564   H     0.43194   0.11673   0.58461   0.00000  Uiso   1.00
H565   H     0.38814   0.11192   0.63381   0.00000  Uiso   1.00
H566   H     0.38314   0.07466   0.55779   0.00000  Uiso   1.00
H567   H     0.16559   0.11103   0.62965   0.00000  Uiso   1.00
H568   H     0.18141   0.09128   0.36589   0.00000  Uiso   1.00
H569   H     0.18190   0.02761   0.57081   0.00000  Uiso   1.00
H570   H     0.11446   0.24622   0.52776   0.00000  Uiso   1.00
H571   H     0.21168   0.00867   0.63386   0.00000  Uiso   1.00
H572   H     0.14232   0.01048   0.35332   0.00000  Uiso   1.00
H573   H     0.13526   0.30266   0.61323   0.00000  Uiso   1.00
H574   H     0.11378   0.03522   0.62889   0.00000  Uiso   1.00
H575   H     0.31671   0.28859   0.36325   0.00000  Uiso   1.00
H576   H     0.31706   0.24399   0.62791   0.00000  Uiso   1.00
H577   H     0.35433   0.23501   0.41926   0.00000  Uiso   1.00
H578   H     0.34583   0.17744   0.35985   0.00000  Uiso   1.00
H579   H     0.42427   0.22172   0.37667   0.00000  Uiso   1.00
H580   H     0.39961   0.20413   0.63442   0.00000  Uiso   1.00
H581   H     0.06682   0.01595   0.36236   0.00000  Uiso   1.00
H582   H     0.39994   0.27050   0.34079   0.00000  Uiso   1.00
H583   H     0.00832   0.01312   0.35260   0.00000  Uiso   1.00
H584   H     0.01068   0.26405   0.39887   0.00000  Uiso   1.00
H585   H     0.02581   0.25871   0.65630   0.00000  Uiso   1.00
H586   H     0.10461   0.25967   0.35176   0.00000  Uiso   1.00
H587   H     0.07741   0.21396   0.38662   0.00000  Uiso   1.00
H588   H     0.09497   0.27688   0.43099   0.00000  Uiso   1.00
N589   N     0.23744   0.15214   0.34617   0.00000  Uiso   1.00
N590   N     0.26255   0.18119   0.65383   0.00000  Uiso   1.00
O591   O     0.25325   0.09538   0.53992   0.00000  Uiso   1.00
O592   O     0.46467   0.29806   0.58702   0.00000  Uiso   1.00
O593   O     0.23296   0.10364   0.64747   0.00000  Uiso   1.00
O594   O     0.27185   0.22844   0.35551   0.00000  Uiso   1.00
O595   O     0.24674   0.23796   0.46008   0.00000  Uiso   1.00
O596   O     0.24480   0.08559   0.43612   0.00000  Uiso   1.00
O597   O     0.25520   0.24774   0.56388   0.00000  Uiso   1.00
O598   O     0.18935   0.17155   0.55191   0.00000  Uiso   1.00
O599   O     0.31064   0.16179   0.44809   0.00000  Uiso   1.00
O600   O     0.18090   0.16176   0.44810   0.00000  Uiso   1.00
O601   O     0.31910   0.17157   0.55190   0.00000  Uiso   1.00
O602   O     0.03626   0.02423   0.44213   0.00000  Uiso   1.00
C603   C     0.74883   0.06713   0.48517   0.00000  Uiso   1.00
C604   C     0.59138   0.11781   0.48347   0.00000  Uiso   1.00
C605   C     0.88293   0.16749   0.49480   0.00000  Uiso   1.00
C606   C     0.61588   0.16465   0.50202   0.00000  Uiso   1.00
C607   C     0.90365   0.12367   0.46583   0.00000  Uiso   1.00
C608   C     0.59417   0.21119   0.51567   0.00000  Uiso   1.00
C609   C     0.95002   0.12225   0.46666   0.00000  Uiso   1.00
C610   C     0.54760   0.21262   0.51361   0.00000  Uiso   1.00
C611   C     0.97551   0.16792   0.49138   0.00000  Uiso   1.00
C612   C     0.52240   0.16619   0.49322   0.00000  Uiso   1.00
C613   C     0.95405   0.21457   0.51719   0.00000  Uiso   1.00
C614   C     0.75291   0.26616   0.51475   0.00000  Uiso   1.00
C615   C     0.54406   0.11814   0.47586   0.00000  Uiso   1.00
C616   C     0.97105   0.07523   0.44688   0.00000  Uiso   1.00
C617   C     0.52594   0.25946   0.53326   0.00000  Uiso   1.00
C618   C     0.53676   0.00218   0.37990   0.00000  Uiso   1.00
C619   C     0.53587   0.27639   0.37062   0.00000  Uiso   1.00
C620   C     0.58107   0.25569   0.38617   0.00000  Uiso   1.00
C621   C     0.95396   0.01094   0.56797   0.00000  Uiso   1.00
C622   C     0.93034   0.04622   0.61809   0.00000  Uiso   1.00
C623   C     0.90699   0.09011   0.59676   0.00000  Uiso   1.00
C624   C     0.68920   0.08766   0.65168   0.00000  Uiso   1.00
C625   C     0.51764   0.07258   0.45188   0.00000  Uiso   1.00
C626   C     0.68349   0.03119   0.62038   0.00000  Uiso   1.00
C627   C     0.64093   0.00976   0.63799   0.00000  Uiso   1.00
C628   C     0.81378   0.24657   0.34267   0.00000  Uiso   1.00
C629   C     0.85213   0.21987   0.36994   0.00000  Uiso   1.00
C630   C     0.89671   0.22994   0.34569   0.00000  Uiso   1.00
C631   C     0.98010   0.26025   0.54102   0.00000  Uiso   1.00
C632   C     0.74354   0.01204   0.47858   0.00000  Uiso   1.00
C633   C     0.76064   0.32104   0.52087   0.00000  Uiso   1.00
C634   C     0.66459   0.16620   0.50097   0.00000  Uiso   1.00
C635   C     0.83502   0.16539   0.49843   0.00000  Uiso   1.00
C636   C     0.90715   0.21321   0.51917   0.00000  Uiso   1.00
Cl637  Cl    0.87563   0.26785   0.54646   0.00000  Uiso   1.00
Cl638  Cl    0.62202   0.06043   0.47276   0.00000  Uiso   1.00
Cl639  Cl    0.93916   0.01729   0.42065   0.00000  Uiso   1.00
Cl640  Cl    0.55618   0.31794   0.55197   0.00000  Uiso   1.00
Cl641  Cl    0.70807   0.31423   0.41644   0.00000  Uiso   1.00
Cl642  Cl    0.79672   0.01857   0.58313   0.00000  Uiso   1.00
Cu643  Cu    0.75500   0.17246   0.56146   0.00000  Uiso   1.00
Cu644  Cu    0.74499   0.16087   0.43854   0.00000  Uiso   1.00
H645   H     0.88292   0.08981   0.44636   0.00000  Uiso   1.00
H646   H     0.93150   0.00251   0.52695   0.00000  Uiso   1.00
H647   H     0.98357   0.03241   0.55881   0.00000  Uiso   1.00
H648   H     0.90514   0.02338   0.63589   0.00000  Uiso   1.00
H649   H     0.95504   0.06353   0.65515   0.00000  Uiso   1.00
H650   H     0.93194   0.11673   0.58461   0.00000  Uiso   1.00
H651   H     0.88814   0.11192   0.63381   0.00000  Uiso   1.00
H652   H     0.88314   0.07466   0.55779   0.00000  Uiso   1.00
H653   H     0.66559   0.11103   0.62965   0.00000  Uiso   1.00
H654   H     0.68141   0.09128   0.36589   0.00000  Uiso   1.00
H655   H     0.68190   0.02761   0.57081   0.00000  Uiso   1.00
H656   H     0.61446   0.24622   0.52776   0.00000  Uiso   1.00
H657   H     0.71168   0.00867   0.63386   0.00000  Uiso   1.00
H658   H     0.64232   0.01048   0.35332   0.00000  Uiso   1.00
H659   H     0.63526   0.30266   0.61323   0.00000  Uiso   1.00
H660   H     0.61378   0.03522   0.62889   0.00000  Uiso   1.00
H661   H     0.81671   0.28859   0.36325   0.00000  Uiso   1.00
H662   H     0.81706   0.24399   0.62791   0.00000  Uiso   1.00
H663   H     0.85433   0.23501   0.41926   0.00000  Uiso   1.00
H664   H     0.84583   0.17744   0.35985   0.00000  Uiso   1.00
H665   H     0.92427   0.22172   0.37667   0.00000  Uiso   1.00
H666   H     0.89961   0.20413   0.63442   0.00000  Uiso   1.00
H667   H     0.56682   0.01595   0.36236   0.00000  Uiso   1.00
H668   H     0.89994   0.27050   0.34079   0.00000  Uiso   1.00
H669   H     0.50832   0.01312   0.35260   0.00000  Uiso   1.00
H670   H     0.51068   0.26405   0.39887   0.00000  Uiso   1.00
H671   H     0.52581   0.25871   0.65630   0.00000  Uiso   1.00
H672   H     0.60461   0.25967   0.35176   0.00000  Uiso   1.00
H673   H     0.57741   0.21396   0.38662   0.00000  Uiso   1.00
H674   H     0.59497   0.27688   0.43099   0.00000  Uiso   1.00
N675   N     0.73744   0.15214   0.34617   0.00000  Uiso   1.00
N676   N     0.76255   0.18119   0.65383   0.00000  Uiso   1.00
O677   O     0.75325   0.09538   0.53992   0.00000  Uiso   1.00
O678   O     0.96467   0.29806   0.58702   0.00000  Uiso   1.00
O679   O     0.73296   0.10364   0.64747   0.00000  Uiso   1.00
O680   O     0.77185   0.22844   0.35551   0.00000  Uiso   1.00
O681   O     0.74674   0.23796   0.46008   0.00000  Uiso   1.00
O682   O     0.74480   0.08559   0.43612   0.00000  Uiso   1.00
O683   O     0.75520   0.24774   0.56388   0.00000  Uiso   1.00
O684   O     0.68935   0.17155   0.55191   0.00000  Uiso   1.00
O685   O     0.81064   0.16179   0.44809   0.00000  Uiso   1.00
O686   O     0.68090   0.16176   0.44810   0.00000  Uiso   1.00
O687   O     0.81910   0.17157   0.55190   0.00000  Uiso   1.00
O688   O     0.53626   0.02423   0.44213   0.00000  Uiso   1.00
C689   C     0.24883   0.40047   0.48517   0.00000  Uiso   1.00
C690   C     0.09138   0.45114   0.48347   0.00000  Uiso   1.00
C691   C     0.38293   0.50082   0.49480   0.00000  Uiso   1.00
C692   C     0.11588   0.49799   0.50202   0.00000  Uiso   1.00
C693   C     0.40365   0.45700   0.46583   0.00000  Uiso   1.00
C694   C     0.09417   0.54452   0.51567   0.00000  Uiso   1.00
C695   C     0.45002   0.45559   0.46666   0.00000  Uiso   1.00
C696   C     0.04760   0.54595   0.51361   0.00000  Uiso   1.00
C697   C     0.47551   0.50125   0.49138   0.00000  Uiso   1.00
C698   C     0.02240   0.49952   0.49322   0.00000  Uiso   1.00
C699   C     0.45405   0.54790   0.51719   0.00000  Uiso   1.00
C700   C     0.25291   0.59949   0.51475   0.00000  Uiso   1.00
C701   C     0.04406   0.45147   0.47586   0.00000  Uiso   1.00
C702   C     0.47105   0.40857   0.44688   0.00000  Uiso   1.00
C703   C     0.02594   0.59280   0.53326   0.00000  Uiso   1.00
C704   C     0.03676   0.33552   0.37990   0.00000  Uiso   1.00
C705   C     0.03587   0.60972   0.37062   0.00000  Uiso   1.00
C706   C     0.08107   0.58903   0.38617   0.00000  Uiso   1.00
C707   C     0.45396   0.34428   0.56797   0.00000  Uiso   1.00
C708   C     0.43034   0.37956   0.61809   0.00000  Uiso   1.00
C709   C     0.40699   0.42344   0.59676   0.00000  Uiso   1.00
C710   C     0.18920   0.42099   0.65168   0.00000  Uiso   1.00
C711   C     0.01764   0.40591   0.45188   0.00000  Uiso   1.00
C712   C     0.18349   0.36453   0.62038   0.00000  Uiso   1.00
C713   C     0.14093   0.34309   0.63799   0.00000  Uiso   1.00
C714   C     0.31378   0.57991   0.34267   0.00000  Uiso   1.00
C715   C     0.35213   0.55320   0.36994   0.00000  Uiso   1.00
C716   C     0.39671   0.56327   0.34569   0.00000  Uiso   1.00
C717   C     0.48010   0.59358   0.54102   0.00000  Uiso   1.00
C718   C     0.24354   0.34537   0.47858   0.00000  Uiso   1.00
C719   C     0.26064   0.65438   0.52087   0.00000  Uiso   1.00
C720   C     0.16459   0.49953   0.50097   0.00000  Uiso   1.00
C721   C     0.33502   0.49872   0.49843   0.00000  Uiso   1.00
C722   C     0.40715   0.54654   0.51917   0.00000  Uiso   1.00
Cl723  Cl    0.37563   0.60118   0.54646   0.00000  Uiso   1.00
Cl724  Cl    0.12202   0.39376   0.47276   0.00000  Uiso   1.00
Cl725  Cl    0.43916   0.35063   0.42065   0.00000  Uiso   1.00
Cl726  Cl    0.05618   0.65127   0.55197   0.00000  Uiso   1.00
Cl727  Cl    0.20807   0.64757   0.41644   0.00000  Uiso   1.00
Cl728  Cl    0.29672   0.35190   0.58313   0.00000  Uiso   1.00
Cu729  Cu    0.25500   0.50579   0.56146   0.00000  Uiso   1.00
Cu730  Cu    0.24499   0.49421   0.43854   0.00000  Uiso   1.00
H731   H     0.38292   0.42314   0.44636   0.00000  Uiso   1.00
H732   H     0.43150   0.33585   0.52695   0.00000  Uiso   1.00
H733   H     0.48357   0.36575   0.55881   0.00000  Uiso   1.00
H734   H     0.40514   0.35672   0.63589   0.00000  Uiso   1.00
H735   H     0.45504   0.39686   0.65515   0.00000  Uiso   1.00
H736   H     0.43194   0.45007   0.58461   0.00000  Uiso   1.00
H737   H     0.38814   0.44525   0.63381   0.00000  Uiso   1.00
H738   H     0.38314   0.40799   0.55779   0.00000  Uiso   1.00
H739   H     0.16559   0.44437   0.62965   0.00000  Uiso   1.00
H740   H     0.18141   0.42461   0.36589   0.00000  Uiso   1.00
H741   H     0.18190   0.36095   0.57081   0.00000  Uiso   1.00
H742   H     0.11446   0.57955   0.52776   0.00000  Uiso   1.00
H743   H     0.21168   0.34200   0.63386   0.00000  Uiso   1.00
H744   H     0.14232   0.34381   0.35332   0.00000  Uiso   1.00
H745   H     0.13526   0.63599   0.61323   0.00000  Uiso   1.00
H746   H     0.11378   0.36856   0.62889   0.00000  Uiso   1.00
H747   H     0.31671   0.62192   0.36325   0.00000  Uiso   1.00
H748   H     0.31706   0.57733   0.62791   0.00000  Uiso   1.00
H749   H     0.35433   0.56835   0.41926   0.00000  Uiso   1.00
H750   H     0.34583   0.51077   0.35985   0.00000  Uiso   1.00
H751   H     0.42427   0.55505   0.37667   0.00000  Uiso   1.00
H752   H     0.39961   0.53747   0.63442   0.00000  Uiso   1.00
H753   H     0.06682   0.34928   0.36236   0.00000  Uiso   1.00
H754   H     0.39994   0.60383   0.34079   0.00000  Uiso   1.00
H755   H     0.00832   0.34645   0.35260   0.00000  Uiso   1.00
H756   H     0.01068   0.59738   0.39887   0.00000  Uiso   1.00
H757   H     0.02581   0.59204   0.65630   0.00000  Uiso   1.00
H758   H     0.10461   0.59300   0.35176   0.00000  Uiso   1.00
H759   H     0.07741   0.54730   0.38662   0.00000  Uiso   1.00
H760   H     0.09497   0.61022   0.43099   0.00000  Uiso   1.00
N761   N     0.23744   0.48547   0.34617   0.00000  Uiso   1.00
N762   N     0.26255   0.51453   0.65383   0.00000  Uiso   1.00
O763   O     0.25325   0.42871   0.53992   0.00000  Uiso   1.00
O764   O     0.46467   0.63139   0.58702   0.00000  Uiso   1.00
O765   O     0.23296   0.43697   0.64747   0.00000  Uiso   1.00
O766   O     0.27185   0.56177   0.35551   0.00000  Uiso   1.00
O767   O     0.24674   0.57129   0.46008   0.00000  Uiso   1.00
O768   O     0.24480   0.41892   0.43612   0.00000  Uiso   1.00
O769   O     0.25520   0.58108   0.56388   0.00000  Uiso   1.00
O770   O     0.18935   0.50488   0.55191   0.00000  Uiso   1.00
O771   O     0.31064   0.49512   0.44809   0.00000  Uiso   1.00
O772   O     0.18090   0.49510   0.44810   0.00000  Uiso   1.00
O773   O     0.31910   0.50490   0.55190   0.00000  Uiso   1.00
O774   O     0.03626   0.35756   0.44213   0.00000  Uiso   1.00
C775   C     0.74883   0.40047   0.48517   0.00000  Uiso   1.00
C776   C     0.59138   0.45114   0.48347   0.00000  Uiso   1.00
C777   C     0.88293   0.50082   0.49480   0.00000  Uiso   1.00
C778   C     0.61588   0.49799   0.50202   0.00000  Uiso   1.00
C779   C     0.90365   0.45700   0.46583   0.00000  Uiso   1.00
C780   C     0.59417   0.54452   0.51567   0.00000  Uiso   1.00
C781   C     0.95002   0.45559   0.46666   0.00000  Uiso   1.00
C782   C     0.54760   0.54595   0.51361   0.00000  Uiso   1.00
C783   C     0.97551   0.50125   0.49138   0.00000  Uiso   1.00
C784   C     0.52240   0.49952   0.49322   0.00000  Uiso   1.00
C785   C     0.95405   0.54790   0.51719   0.00000  Uiso   1.00
C786   C     0.75291   0.59949   0.51475   0.00000  Uiso   1.00
C787   C     0.54406   0.45147   0.47586   0.00000  Uiso   1.00
C788   C     0.97105   0.40857   0.44688   0.00000  Uiso   1.00
C789   C     0.52594   0.59280   0.53326   0.00000  Uiso   1.00
C790   C     0.53676   0.33552   0.37990   0.00000  Uiso   1.00
C791   C     0.53587   0.60972   0.37062   0.00000  Uiso   1.00
C792   C     0.58107   0.58903   0.38617   0.00000  Uiso   1.00
C793   C     0.95396   0.34428   0.56797   0.00000  Uiso   1.00
C794   C     0.93034   0.37956   0.61809   0.00000  Uiso   1.00
C795   C     0.90699   0.42344   0.59676   0.00000  Uiso   1.00
C796   C     0.68920   0.42099   0.65168   0.00000  Uiso   1.00
C797   C     0.51764   0.40591   0.45188   0.00000  Uiso   1.00
C798   C     0.68349   0.36453   0.62038   0.00000  Uiso   1.00
C799   C     0.64093   0.34309   0.63799   0.00000  Uiso   1.00
C800   C     0.81378   0.57991   0.34267   0.00000  Uiso   1.00
C801   C     0.85213   0.55320   0.36994   0.00000  Uiso   1.00
C802   C     0.89671   0.56327   0.34569   0.00000  Uiso   1.00
C803   C     0.98010   0.59358   0.54102   0.00000  Uiso   1.00
C804   C     0.74354   0.34537   0.47858   0.00000  Uiso   1.00
C805   C     0.76064   0.65438   0.52087   0.00000  Uiso   1.00
C806   C     0.66459   0.49953   0.50097   0.00000  Uiso   1.00
C807   C     0.83502   0.49872   0.49843   0.00000  Uiso   1.00
C808   C     0.90715   0.54654   0.51917   0.00000  Uiso   1.00
Cl809  Cl    0.87563   0.60118   0.54646   0.00000  Uiso   1.00
Cl810  Cl    0.62202   0.39376   0.47276   0.00000  Uiso   1.00
Cl811  Cl    0.93916   0.35063   0.42065   0.00000  Uiso   1.00
Cl812  Cl    0.55618   0.65127   0.55197   0.00000  Uiso   1.00
Cl813  Cl    0.70807   0.64757   0.41644   0.00000  Uiso   1.00
Cl814  Cl    0.79672   0.35190   0.58313   0.00000  Uiso   1.00
Cu815  Cu    0.75500   0.50579   0.56146   0.00000  Uiso   1.00
Cu816  Cu    0.74499   0.49421   0.43854   0.00000  Uiso   1.00
H817   H     0.88292   0.42314   0.44636   0.00000  Uiso   1.00
H818   H     0.93150   0.33585   0.52695   0.00000  Uiso   1.00
H819   H     0.98357   0.36575   0.55881   0.00000  Uiso   1.00
H820   H     0.90514   0.35672   0.63589   0.00000  Uiso   1.00
H821   H     0.95504   0.39686   0.65515   0.00000  Uiso   1.00
H822   H     0.93194   0.45007   0.58461   0.00000  Uiso   1.00
H823   H     0.88814   0.44525   0.63381   0.00000  Uiso   1.00
H824   H     0.88314   0.40799   0.55779   0.00000  Uiso   1.00
H825   H     0.66559   0.44437   0.62965   0.00000  Uiso   1.00
H826   H     0.68141   0.42461   0.36589   0.00000  Uiso   1.00
H827   H     0.68190   0.36095   0.57081   0.00000  Uiso   1.00
H828   H     0.61446   0.57955   0.52776   0.00000  Uiso   1.00
H829   H     0.71168   0.34200   0.63386   0.00000  Uiso   1.00
H830   H     0.64232   0.34381   0.35332   0.00000  Uiso   1.00
H831   H     0.63526   0.63599   0.61323   0.00000  Uiso   1.00
H832   H     0.61378   0.36856   0.62889   0.00000  Uiso   1.00
H833   H     0.81671   0.62192   0.36325   0.00000  Uiso   1.00
H834   H     0.81706   0.57733   0.62791   0.00000  Uiso   1.00
H835   H     0.85433   0.56835   0.41926   0.00000  Uiso   1.00
H836   H     0.84583   0.51077   0.35985   0.00000  Uiso   1.00
H837   H     0.92427   0.55505   0.37667   0.00000  Uiso   1.00
H838   H     0.89961   0.53747   0.63442   0.00000  Uiso   1.00
H839   H     0.56682   0.34928   0.36236   0.00000  Uiso   1.00
H840   H     0.89994   0.60383   0.34079   0.00000  Uiso   1.00
H841   H     0.50832   0.34645   0.35260   0.00000  Uiso   1.00
H842   H     0.51068   0.59738   0.39887   0.00000  Uiso   1.00
H843   H     0.52581   0.59204   0.65630   0.00000  Uiso   1.00
H844   H     0.60461   0.59300   0.35176   0.00000  Uiso   1.00
H845   H     0.57741   0.54730   0.38662   0.00000  Uiso   1.00
H846   H     0.59497   0.61022   0.43099   0.00000  Uiso   1.00
N847   N     0.73744   0.48547   0.34617   0.00000  Uiso   1.00
N848   N     0.76255   0.51453   0.65383   0.00000  Uiso   1.00
O849   O     0.75325   0.42871   0.53992   0.00000  Uiso   1.00
O850   O     0.96467   0.63139   0.58702   0.00000  Uiso   1.00
O851   O     0.73296   0.43697   0.64747   0.00000  Uiso   1.00
O852   O     0.77185   0.56177   0.35551   0.00000  Uiso   1.00
O853   O     0.74674   0.57129   0.46008   0.00000  Uiso   1.00
O854   O     0.74480   0.41892   0.43612   0.00000  Uiso   1.00
O855   O     0.75520   0.58108   0.56388   0.00000  Uiso   1.00
O856   O     0.68935   0.50488   0.55191   0.00000  Uiso   1.00
O857   O     0.81064   0.49512   0.44809   0.00000  Uiso   1.00
O858   O     0.68090   0.49510   0.44810   0.00000  Uiso   1.00
O859   O     0.81910   0.50490   0.55190   0.00000  Uiso   1.00
O860   O     0.53626   0.35756   0.44213   0.00000  Uiso   1.00
C861   C     0.24883   0.73380   0.48517   0.00000  Uiso   1.00
C862   C     0.09138   0.78447   0.48347   0.00000  Uiso   1.00
C863   C     0.38293   0.83416   0.49480   0.00000  Uiso   1.00
C864   C     0.11588   0.83132   0.50202   0.00000  Uiso   1.00
C865   C     0.40365   0.79034   0.46583   0.00000  Uiso   1.00
C866   C     0.09417   0.87786   0.51567   0.00000  Uiso   1.00
C867   C     0.45002   0.78892   0.46666   0.00000  Uiso   1.00
C868   C     0.04760   0.87928   0.51361   0.00000  Uiso   1.00
C869   C     0.47551   0.83459   0.49138   0.00000  Uiso   1.00
C870   C     0.02240   0.83286   0.49322   0.00000  Uiso   1.00
C871   C     0.45405   0.88123   0.51719   0.00000  Uiso   1.00
C872   C     0.25291   0.93283   0.51475   0.00000  Uiso   1.00
C873   C     0.04406   0.78481   0.47586   0.00000  Uiso   1.00
C874   C     0.47105   0.74190   0.44688   0.00000  Uiso   1.00
C875   C     0.02594   0.92613   0.53326   0.00000  Uiso   1.00
C876   C     0.03676   0.66885   0.37990   0.00000  Uiso   1.00
C877   C     0.03587   0.94306   0.37062   0.00000  Uiso   1.00
C878   C     0.08107   0.92236   0.38617   0.00000  Uiso   1.00
C879   C     0.45396   0.67761   0.56797   0.00000  Uiso   1.00
C880   C     0.43034   0.71289   0.61809   0.00000  Uiso   1.00
C881   C     0.40699   0.75678   0.59676   0.00000  Uiso   1.00
C882   C     0.18920   0.75432   0.65168   0.00000  Uiso   1.00
C883   C     0.01764   0.73925   0.45188   0.00000  Uiso   1.00
C884   C     0.18349   0.69786   0.62038   0.00000  Uiso   1.00
C885   C     0.14093   0.67643   0.63799   0.00000  Uiso   1.00
C886   C     0.31378   0.91324   0.34267   0.00000  Uiso   1.00
C887   C     0.35213   0.88653   0.36994   0.00000  Uiso   1.00
C888   C     0.39671   0.89661   0.34569   0.00000  Uiso   1.00
C889   C     0.48010   0.92692   0.54102   0.00000  Uiso   1.00
C890   C     0.24354   0.67870   0.47858   0.00000  Uiso   1.00
C891   C     0.26064   0.98771   0.52087   0.00000  Uiso   1.00
C892   C     0.16459   0.83286   0.50097   0.00000  Uiso   1.00
C893   C     0.33502   0.83206   0.49843   0.00000  Uiso   1.00
C894   C     0.40715   0.87988   0.51917   0.00000  Uiso   1.00
Cl895  Cl    0.37563   0.93451   0.54646   0.00000  Uiso   1.00
Cl896  Cl    0.12202   0.72710   0.47276   0.00000  Uiso   1.00
Cl897  Cl    0.43916   0.68396   0.42065   0.00000  Uiso   1.00
Cl898  Cl    0.05618   0.98460   0.55197   0.00000  Uiso   1.00
Cl899  Cl    0.20807   0.98090   0.41644   0.00000  Uiso   1.00
Cl900  Cl    0.29672   0.68523   0.58313   0.00000  Uiso   1.00
Cu901  Cu    0.25500   0.83913   0.56146   0.00000  Uiso   1.00
Cu902  Cu    0.24499   0.82754   0.43854   0.00000  Uiso   1.00
H903   H     0.38292   0.75648   0.44636   0.00000  Uiso   1.00
H904   H     0.43150   0.66918   0.52695   0.00000  Uiso   1.00
H905   H     0.48357   0.69908   0.55881   0.00000  Uiso   1.00
H906   H     0.40514   0.69005   0.63589   0.00000  Uiso   1.00
H907   H     0.45504   0.73020   0.65515   0.00000  Uiso   1.00
H908   H     0.43194   0.78340   0.58461   0.00000  Uiso   1.00
H909   H     0.38814   0.77859   0.63381   0.00000  Uiso   1.00
H910   H     0.38314   0.74133   0.55779   0.00000  Uiso   1.00
H911   H     0.16559   0.77770   0.62965   0.00000  Uiso   1.00
H912   H     0.18141   0.75795   0.36589   0.00000  Uiso   1.00
H913   H     0.18190   0.69428   0.57081   0.00000  Uiso   1.00
H914   H     0.11446   0.91288   0.52776   0.00000  Uiso   1.00
H915   H     0.21168   0.67534   0.63386   0.00000  Uiso   1.00
H916   H     0.14232   0.67714   0.35332   0.00000  Uiso   1.00
H917   H     0.13526   0.96933   0.61323   0.00000  Uiso   1.00
H918   H     0.11378   0.70189   0.62889   0.00000  Uiso   1.00
H919   H     0.31671   0.95526   0.36325   0.00000  Uiso   1.00
H920   H     0.31706   0.91066   0.62791   0.00000  Uiso   1.00
H921   H     0.35433   0.90168   0.41926   0.00000  Uiso   1.00
H922   H     0.34583   0.84410   0.35985   0.00000  Uiso   1.00
H923   H     0.42427   0.88838   0.37667   0.00000  Uiso   1.00
H924   H     0.39961   0.87080   0.63442   0.00000  Uiso   1.00
H925   H     0.06682   0.68262   0.36236   0.00000  Uiso   1.00
H926   H     0.39994   0.93716   0.34079   0.00000  Uiso   1.00
H927   H     0.00832   0.67979   0.35260   0.00000  Uiso   1.00
H928   H     0.01068   0.93071   0.39887   0.00000  Uiso   1.00
H929   H     0.02581   0.92537   0.65630   0.00000  Uiso   1.00
H930   H     0.10461   0.92633   0.35176   0.00000  Uiso   1.00
H931   H     0.07741   0.88063   0.38662   0.00000  Uiso   1.00
H932   H     0.09497   0.94355   0.43099   0.00000  Uiso   1.00
N933   N     0.23744   0.81881   0.34617   0.00000  Uiso   1.00
N934   N     0.26255   0.84786   0.65383   0.00000  Uiso   1.00
O935   O     0.25325   0.76204   0.53992   0.00000  Uiso   1.00
O936   O     0.46467   0.96472   0.58702   0.00000  Uiso   1.00
O937   O     0.23296   0.77030   0.64747   0.00000  Uiso   1.00
O938   O     0.27185   0.89511   0.35551   0.00000  Uiso   1.00
O939   O     0.24674   0.90462   0.46008   0.00000  Uiso   1.00
O940   O     0.24480   0.75226   0.43612   0.00000  Uiso   1.00
O941   O     0.25520   0.91441   0.56388   0.00000  Uiso   1.00
O942   O     0.18935   0.83821   0.55191   0.00000  Uiso   1.00
O943   O     0.31064   0.82845   0.44809   0.00000  Uiso   1.00
O944   O     0.18090   0.82843   0.44810   0.00000  Uiso   1.00
O945   O     0.31910   0.83824   0.55190   0.00000  Uiso   1.00
O946   O     0.03626   0.69090   0.44213   0.00000  Uiso   1.00
C947   C     0.74883   0.73380   0.48517   0.00000  Uiso   1.00
C948   C     0.59138   0.78447   0.48347   0.00000  Uiso   1.00
C949   C     0.88293   0.83416   0.49480   0.00000  Uiso   1.00
C950   C     0.61588   0.83132   0.50202   0.00000  Uiso   1.00
C951   C     0.90365   0.79034   0.46583   0.00000  Uiso   1.00
C952   C     0.59417   0.87786   0.51567   0.00000  Uiso   1.00
C953   C     0.95002   0.78892   0.46666   0.00000  Uiso   1.00
C954   C     0.54760   0.87928   0.51361   0.00000  Uiso   1.00
C955   C     0.97551   0.83459   0.49138   0.00000  Uiso   1.00
C956   C     0.52240   0.83286   0.49322   0.00000  Uiso   1.00
C957   C     0.95405   0.88123   0.51719   0.00000  Uiso   1.00
C958   C     0.75291   0.93283   0.51475   0.00000  Uiso   1.00
C959   C     0.54406   0.78481   0.47586   0.00000  Uiso   1.00
C960   C     0.97105   0.74190   0.44688   0.00000  Uiso   1.00
C961   C     0.52594   0.92613   0.53326   0.00000  Uiso   1.00
C962   C     0.53676   0.66885   0.37990   0.00000  Uiso   1.00
C963   C     0.53587   0.94306   0.37062   0.00000  Uiso   1.00
C964   C     0.58107   0.92236   0.38617   0.00000  Uiso   1.00
C965   C     0.95396   0.67761   0.56797   0.00000  Uiso   1.00
C966   C     0.93034   0.71289   0.61809   0.00000  Uiso   1.00
C967   C     0.90699   0.75678   0.59676   0.00000  Uiso   1.00
C968   C     0.68920   0.75432   0.65168   0.00000  Uiso   1.00
C969   C     0.51764   0.73925   0.45188   0.00000  Uiso   1.00
C970   C     0.68349   0.69786   0.62038   0.00000  Uiso   1.00
C971   C     0.64093   0.67643   0.63799   0.00000  Uiso   1.00
C972   C     0.81378   0.91324   0.34267   0.00000  Uiso   1.00
C973   C     0.85213   0.88653   0.36994   0.00000  Uiso   1.00
C974   C     0.89671   0.89661   0.34569   0.00000  Uiso   1.00
C975   C     0.98010   0.92692   0.54102   0.00000  Uiso   1.00
C976   C     0.74354   0.67870   0.47858   0.00000  Uiso   1.00
C977   C     0.76064   0.98771   0.52087   0.00000  Uiso   1.00
C978   C     0.66459   0.83286   0.50097   0.00000  Uiso   1.00
C979   C     0.83502   0.83206   0.49843   0.00000  Uiso   1.00
C980   C     0.90715   0.87988   0.51917   0.00000  Uiso   1.00
Cl981  Cl    0.87563   0.93451   0.54646   0.00000  Uiso   1.00
Cl982  Cl    0.62202   0.72710   0.47276   0.00000  Uiso   1.00
Cl983  Cl    0.93916   0.68396   0.42065   0.00000  Uiso   1.00
Cl984  Cl    0.55618   0.98460   0.55197   0.00000  Uiso   1.00
Cl985  Cl    0.70807   0.98090   0.41644   0.00000  Uiso   1.00
Cl986  Cl    0.79672   0.68523   0.58313   0.00000  Uiso   1.00
Cu987  Cu    0.75500   0.83913   0.56146   0.00000  Uiso   1.00
Cu988  Cu    0.74499   0.82754   0.43854   0.00000  Uiso   1.00
H989   H     0.88292   0.75648   0.44636   0.00000  Uiso   1.00
H990   H     0.93150   0.66918   0.52695   0.00000  Uiso   1.00
H991   H     0.98357   0.69908   0.55881   0.00000  Uiso   1.00
H992   H     0.90514   0.69005   0.63589   0.00000  Uiso   1.00
H993   H     0.95504   0.73020   0.65515   0.00000  Uiso   1.00
H994   H     0.93194   0.78340   0.58461   0.00000  Uiso   1.00
H995   H     0.88814   0.77859   0.63381   0.00000  Uiso   1.00
H996   H     0.88314   0.74133   0.55779   0.00000  Uiso   1.00
H997   H     0.66559   0.77770   0.62965   0.00000  Uiso   1.00
H998   H     0.68141   0.75795   0.36589   0.00000  Uiso   1.00
H999   H     0.68190   0.69428   0.57081   0.00000  Uiso   1.00
H1000  H     0.61446   0.91288   0.52776   0.00000  Uiso   1.00
H1001  H     0.71168   0.67534   0.63386   0.00000  Uiso   1.00
H1002  H     0.64232   0.67714   0.35332   0.00000  Uiso   1.00
H1003  H     0.63526   0.96933   0.61323   0.00000  Uiso   1.00
H1004  H     0.61378   0.70189   0.62889   0.00000  Uiso   1.00
H1005  H     0.81671   0.95526   0.36325   0.00000  Uiso   1.00
H1006  H     0.81706   0.91066   0.62791   0.00000  Uiso   1.00
H1007  H     0.85433   0.90168   0.41926   0.00000  Uiso   1.00
H1008  H     0.84583   0.84410   0.35985   0.00000  Uiso   1.00
H1009  H     0.92427   0.88838   0.37667   0.00000  Uiso   1.00
H1010  H     0.89961   0.87080   0.63442   0.00000  Uiso   1.00
H1011  H     0.56682   0.68262   0.36236   0.00000  Uiso   1.00
H1012  H     0.89994   0.93716   0.34079   0.00000  Uiso   1.00
H1013  H     0.50832   0.67979   0.35260   0.00000  Uiso   1.00
H1014  H     0.51068   0.93071   0.39887   0.00000  Uiso   1.00
H1015  H     0.52581   0.92537   0.65630   0.00000  Uiso   1.00
H1016  H     0.60461   0.92633   0.35176   0.00000  Uiso   1.00
H1017  H     0.57741   0.88063   0.38662   0.00000  Uiso   1.00
H1018  H     0.59497   0.94355   0.43099   0.00000  Uiso   1.00
N1019  N     0.73744   0.81881   0.34617   0.00000  Uiso   1.00
N1020  N     0.76255   0.84786   0.65383   0.00000  Uiso   1.00
O1021  O     0.75325   0.76204   0.53992   0.00000  Uiso   1.00
O1022  O     0.96467   0.96472   0.58702   0.00000  Uiso   1.00
O1023  O     0.73296   0.77030   0.64747   0.00000  Uiso   1.00
O1024  O     0.77185   0.89511   0.35551   0.00000  Uiso   1.00
O1025  O     0.74674   0.90462   0.46008   0.00000  Uiso   1.00
O1026  O     0.74480   0.75226   0.43612   0.00000  Uiso   1.00
O1027  O     0.75520   0.91441   0.56388   0.00000  Uiso   1.00
O1028  O     0.68935   0.83821   0.55191   0.00000  Uiso   1.00
O1029  O     0.81064   0.82845   0.44809   0.00000  Uiso   1.00
O1030  O     0.68090   0.82843   0.44810   0.00000  Uiso   1.00
O1031  O     0.81910   0.83824   0.55190   0.00000  Uiso   1.00
O1032  O     0.53626   0.69090   0.44213   0.00000  Uiso   1.00
C1033  C     0.24883   0.06713   0.81850   0.00000  Uiso   1.00
C1034  C     0.09138   0.11781   0.81680   0.00000  Uiso   1.00
C1035  C     0.38293   0.16749   0.82814   0.00000  Uiso   1.00
C1036  C     0.11588   0.16465   0.83535   0.00000  Uiso   1.00
C1037  C     0.40365   0.12367   0.79917   0.00000  Uiso   1.00
C1038  C     0.09417   0.21119   0.84901   0.00000  Uiso   1.00
C1039  C     0.45002   0.12225   0.79999   0.00000  Uiso   1.00
C1040  C     0.04760   0.21262   0.84695   0.00000  Uiso   1.00
C1041  C     0.47551   0.16792   0.82471   0.00000  Uiso   1.00
C1042  C     0.02240   0.16619   0.82656   0.00000  Uiso   1.00
C1043  C     0.45405   0.21457   0.85052   0.00000  Uiso   1.00
C1044  C     0.25291   0.26616   0.84808   0.00000  Uiso   1.00
C1045  C     0.04406   0.11814   0.80920   0.00000  Uiso   1.00
C1046  C     0.47105   0.07523   0.78021   0.00000  Uiso   1.00
C1047  C     0.02594   0.25946   0.86659   0.00000  Uiso   1.00
C1048  C     0.03676   0.00218   0.71324   0.00000  Uiso   1.00
C1049  C     0.03587   0.27639   0.70395   0.00000  Uiso   1.00
C1050  C     0.08107   0.25569   0.71951   0.00000  Uiso   1.00
C1051  C     0.45396   0.01094   0.90130   0.00000  Uiso   1.00
C1052  C     0.43034   0.04622   0.95143   0.00000  Uiso   1.00
C1053  C     0.40699   0.09011   0.93009   0.00000  Uiso   1.00
C1054  C     0.18920   0.08766   0.98501   0.00000  Uiso   1.00
C1055  C     0.01764   0.07258   0.78522   0.00000  Uiso   1.00
C1056  C     0.18349   0.03119   0.95371   0.00000  Uiso   1.00
C1057  C     0.14093   0.00976   0.97133   0.00000  Uiso   1.00
C1058  C     0.31378   0.24657   0.67601   0.00000  Uiso   1.00
C1059  C     0.35213   0.21987   0.70327   0.00000  Uiso   1.00
C1060  C     0.39671   0.22994   0.67902   0.00000  Uiso   1.00
C1061  C     0.48010   0.26025   0.87435   0.00000  Uiso   1.00
C1062  C     0.24354   0.01204   0.81191   0.00000  Uiso   1.00
C1063  C     0.26064   0.32104   0.85420   0.00000  Uiso   1.00
C1064  C     0.16459   0.16620   0.83431   0.00000  Uiso   1.00
C1065  C     0.33502   0.16539   0.83176   0.00000  Uiso   1.00
C1066  C     0.40715   0.21321   0.85250   0.00000  Uiso   1.00
Cl1067 Cl    0.37563   0.26785   0.87979   0.00000  Uiso   1.00
Cl1068 Cl    0.12202   0.06043   0.80609   0.00000  Uiso   1.00
Cl1069 Cl    0.43916   0.01729   0.75399   0.00000  Uiso   1.00
Cl1070 Cl    0.05618   0.31794   0.88530   0.00000  Uiso   1.00
Cl1071 Cl    0.20807   0.31423   0.74978   0.00000  Uiso   1.00
Cl1072 Cl    0.29672   0.01857   0.91646   0.00000  Uiso   1.00
Cu1073 Cu    0.25500   0.17246   0.89479   0.00000  Uiso   1.00
Cu1074 Cu    0.24499   0.16087   0.77187   0.00000  Uiso   1.00
H1075  H     0.38292   0.08981   0.77970   0.00000  Uiso   1.00
H1076  H     0.43150   0.00251   0.86029   0.00000  Uiso   1.00
H1077  H     0.48357   0.03241   0.89214   0.00000  Uiso   1.00
H1078  H     0.40514   0.02338   0.96922   0.00000  Uiso   1.00
H1079  H     0.45504   0.06353   0.98849   0.00000  Uiso   1.00
H1080  H     0.43194   0.11673   0.91794   0.00000  Uiso   1.00
H1081  H     0.38814   0.11192   0.96714   0.00000  Uiso   1.00
H1082  H     0.38314   0.07466   0.89112   0.00000  Uiso   1.00
H1083  H     0.16559   0.11103   0.96298   0.00000  Uiso   1.00
H1084  H     0.18141   0.09128   0.69923   0.00000  Uiso   1.00
H1085  H     0.18190   0.02761   0.90415   0.00000  Uiso   1.00
H1086  H     0.11446   0.24622   0.86109   0.00000  Uiso   1.00
H1087  H     0.21168   0.00867   0.96719   0.00000  Uiso   1.00
H1088  H     0.14232   0.01048   0.68665   0.00000  Uiso   1.00
H1089  H     0.13526   0.30266   0.94656   0.00000  Uiso   1.00
H1090  H     0.11378   0.03522   0.96222   0.00000  Uiso   1.00
H1091  H     0.31671   0.28859   0.69658   0.00000  Uiso   1.00
H1092  H     0.31706   0.24399   0.96125   0.00000  Uiso   1.00
H1093  H     0.35433   0.23501   0.75260   0.00000  Uiso   1.00
H1094  H     0.34583   0.17744   0.69319   0.00000  Uiso   1.00
H1095  H     0.42427   0.22172   0.71000   0.00000  Uiso   1.00
H1096  H     0.39961   0.20413   0.96775   0.00000  Uiso   1.00
H1097  H     0.06682   0.01595   0.69570   0.00000  Uiso   1.00
H1098  H     0.39994   0.27050   0.67412   0.00000  Uiso   1.00
H1099  H     0.00832   0.01312   0.68594   0.00000  Uiso   1.00
H1100  H     0.01068   0.26405   0.73221   0.00000  Uiso   1.00
H1101  H     0.02581   0.25871   0.98964   0.00000  Uiso   1.00
H1102  H     0.10461   0.25967   0.68510   0.00000  Uiso   1.00
H1103  H     0.07741   0.21396   0.71995   0.00000  Uiso   1.00
H1104  H     0.09497   0.27688   0.76433   0.00000  Uiso   1.00
N1105  N     0.23744   0.15214   0.67951   0.00000  Uiso   1.00
N1106  N     0.26255   0.18119   0.98716   0.00000  Uiso   1.00
O1107  O     0.25325   0.09538   0.87326   0.00000  Uiso   1.00
O1108  O     0.46467   0.29806   0.92035   0.00000  Uiso   1.00
O1109  O     0.23296   0.10364   0.98081   0.00000  Uiso   1.00
O1110  O     0.27185   0.22844   0.68884   0.00000  Uiso   1.00
O1111  O     0.24674   0.23796   0.79341   0.00000  Uiso   1.00
O1112  O     0.24480   0.08559   0.76945   0.00000  Uiso   1.00
O1113  O     0.25520   0.24774   0.89721   0.00000  Uiso   1.00
O1114  O     0.18935   0.17155   0.88524   0.00000  Uiso   1.00
O1115  O     0.31064   0.16179   0.78143   0.00000  Uiso   1.00
O1116  O     0.18090   0.16176   0.78143   0.00000  Uiso   1.00
O1117  O     0.31910   0.17157   0.88523   0.00000  Uiso   1.00
O1118  O     0.03626   0.02423   0.77547   0.00000  Uiso   1.00
C1119  C     0.74883   0.06713   0.81850   0.00000  Uiso   1.00
C1120  C     0.59138   0.11781   0.81680   0.00000  Uiso   1.00
C1121  C     0.88293   0.16749   0.82814   0.00000  Uiso   1.00
C1122  C     0.61588   0.16465   0.83535   0.00000  Uiso   1.00
C1123  C     0.90365   0.12367   0.79917   0.00000  Uiso   1.00
C1124  C     0.59417   0.21119   0.84901   0.00000  Uiso   1.00
C1125  C     0.95002   0.12225   0.79999   0.00000  Uiso   1.00
C1126  C     0.54760   0.21262   0.84695   0.00000  Uiso   1.00
C1127  C     0.97551   0.16792   0.82471   0.00000  Uiso   1.00
C1128  C     0.52240   0.16619   0.82656   0.00000  Uiso   1.00
C1129  C     0.95405   0.21457   0.85052   0.00000  Uiso   1.00
C1130  C     0.75291   0.26616   0.84808   0.00000  Uiso   1.00
C1131  C     0.54406   0.11814   0.80920   0.00000  Uiso   1.00
C1132  C     0.97105   0.07523   0.78021   0.00000  Uiso   1.00
C1133  C     0.52594   0.25946   0.86659   0.00000  Uiso   1.00
C1134  C     0.53676   0.00218   0.71324   0.00000  Uiso   1.00
C1135  C     0.53587   0.27639   0.70395   0.00000  Uiso   1.00
C1136  C     0.58107   0.25569   0.71951   0.00000  Uiso   1.00
C1137  C     0.95396   0.01094   0.90130   0.00000  Uiso   1.00
C1138  C     0.93034   0.04622   0.95143   0.00000  Uiso   1.00
C1139  C     0.90699   0.09011   0.93009   0.00000  Uiso   1.00
C1140  C     0.68920   0.08766   0.98501   0.00000  Uiso   1.00
C1141  C     0.51764   0.07258   0.78522   0.00000  Uiso   1.00
C1142  C     0.68349   0.03119   0.95371   0.00000  Uiso   1.00
C1143  C     0.64093   0.00976   0.97133   0.00000  Uiso   1.00
C1144  C     0.81378   0.24657   0.67601   0.00000  Uiso   1.00
C1145  C     0.85213   0.21987   0.70327   0.00000  Uiso   1.00
C1146  C     0.89671   0.22994   0.67902   0.00000  Uiso   1.00
C1147  C     0.98010   0.26025   0.87435   0.00000  Uiso   1.00
C1148  C     0.74354   0.01204   0.81191   0.00000  Uiso   1.00
C1149  C     0.76064   0.32104   0.85420   0.00000  Uiso   1.00
C1150  C     0.66459   0.16620   0.83431   0.00000  Uiso   1.00
C1151  C     0.83502   0.16539   0.83176   0.00000  Uiso   1.00
C1152  C     0.90715   0.21321   0.85250   0.00000  Uiso   1.00
Cl1153 Cl    0.87563   0.26785   0.87979   0.00000  Uiso   1.00
Cl1154 Cl    0.62202   0.06043   0.80609   0.00000  Uiso   1.00
Cl1155 Cl    0.93916   0.01729   0.75399   0.00000  Uiso   1.00
Cl1156 Cl    0.55618   0.31794   0.88530   0.00000  Uiso   1.00
Cl1157 Cl    0.70807   0.31423   0.74978   0.00000  Uiso   1.00
Cl1158 Cl    0.79672   0.01857   0.91646   0.00000  Uiso   1.00
Cu1159 Cu    0.75500   0.17246   0.89479   0.00000  Uiso   1.00
Cu1160 Cu    0.74499   0.16087   0.77187   0.00000  Uiso   1.00
H1161  H     0.88292   0.08981   0.77970   0.00000  Uiso   1.00
H1162  H     0.93150   0.00251   0.86029   0.00000  Uiso   1.00
H1163  H     0.98357   0.03241   0.89214   0.00000  Uiso   1.00
H1164  H     0.90514   0.02338   0.96922   0.00000  Uiso   1.00
H1165  H     0.95504   0.06353   0.98849   0.00000  Uiso   1.00
H1166  H     0.93194   0.11673   0.91794   0.00000  Uiso   1.00
H1167  H     0.88814   0.11192   0.96714   0.00000  Uiso   1.00
H1168  H     0.88314   0.07466   0.89112   0.00000  Uiso   1.00
H1169  H     0.66559   0.11103   0.96298   0.00000  Uiso   1.00
H1170  H     0.68141   0.09128   0.69923   0.00000  Uiso   1.00
H1171  H     0.68190   0.02761   0.90415   0.00000  Uiso   1.00
H1172  H     0.61446   0.24622   0.86109   0.00000  Uiso   1.00
H1173  H     0.71168   0.00867   0.96719   0.00000  Uiso   1.00
H1174  H     0.64232   0.01048   0.68665   0.00000  Uiso   1.00
H1175  H     0.63526   0.30266   0.94656   0.00000  Uiso   1.00
H1176  H     0.61378   0.03522   0.96222   0.00000  Uiso   1.00
H1177  H     0.81671   0.28859   0.69658   0.00000  Uiso   1.00
H1178  H     0.81706   0.24399   0.96125   0.00000  Uiso   1.00
H1179  H     0.85433   0.23501   0.75260   0.00000  Uiso   1.00
H1180  H     0.84583   0.17744   0.69319   0.00000  Uiso   1.00
H1181  H     0.92427   0.22172   0.71000   0.00000  Uiso   1.00
H1182  H     0.89961   0.20413   0.96775   0.00000  Uiso   1.00
H1183  H     0.56682   0.01595   0.69570   0.00000  Uiso   1.00
H1184  H     0.89994   0.27050   0.67412   0.00000  Uiso   1.00
H1185  H     0.50832   0.01312   0.68594   0.00000  Uiso   1.00
H1186  H     0.51068   0.26405   0.73221   0.00000  Uiso   1.00
H1187  H     0.52581   0.25871   0.98964   0.00000  Uiso   1.00
H1188  H     0.60461   0.25967   0.68510   0.00000  Uiso   1.00
H1189  H     0.57741   0.21396   0.71995   0.00000  Uiso   1.00
H1190  H     0.59497   0.27688   0.76433   0.00000  Uiso   1.00
N1191  N     0.73744   0.15214   0.67951   0.00000  Uiso   1.00
N1192  N     0.76255   0.18119   0.98716   0.00000  Uiso   1.00
O1193  O     0.75325   0.09538   0.87326   0.00000  Uiso   1.00
O1194  O     0.96467   0.29806   0.92035   0.00000  Uiso   1.00
O1195  O     0.73296   0.10364   0.98081   0.00000  Uiso   1.00
O1196  O     0.77185   0.22844   0.68884   0.00000  Uiso   1.00
O1197  O     0.74674   0.23796   0.79341   0.00000  Uiso   1.00
O1198  O     0.74480   0.08559   0.76945   0.00000  Uiso   1.00
O1199  O     0.75520   0.24774   0.89721   0.00000  Uiso   1.00
O1200  O     0.68935   0.17155   0.88524   0.00000  Uiso   1.00
O1201  O     0.81064   0.16179   0.78143   0.00000  Uiso   1.00
O1202  O     0.68090   0.16176   0.78143   0.00000  Uiso   1.00
O1203  O     0.81910   0.17157   0.88523   0.00000  Uiso   1.00
O1204  O     0.53626   0.02423   0.77547   0.00000  Uiso   1.00
C1205  C     0.24883   0.40047   0.81850   0.00000  Uiso   1.00
C1206  C     0.09138   0.45114   0.81680   0.00000  Uiso   1.00
C1207  C     0.38293   0.50082   0.82814   0.00000  Uiso   1.00
C1208  C     0.11588   0.49799   0.83535   0.00000  Uiso   1.00
C1209  C     0.40365   0.45700   0.79917   0.00000  Uiso   1.00
C1210  C     0.09417   0.54452   0.84901   0.00000  Uiso   1.00
C1211  C     0.45002   0.45559   0.79999   0.00000  Uiso   1.00
C1212  C     0.04760   0.54595   0.84695   0.00000  Uiso   1.00
C1213  C     0.47551   0.50125   0.82471   0.00000  Uiso   1.00
C1214  C     0.02240   0.49952   0.82656   0.00000  Uiso   1.00
C1215  C     0.45405   0.54790   0.85052   0.00000  Uiso   1.00
C1216  C     0.25291   0.59949   0.84808   0.00000  Uiso   1.00
C1217  C     0.04406   0.45147   0.80920   0.00000  Uiso   1.00
C1218  C     0.47105   0.40857   0.78021   0.00000  Uiso   1.00
C1219  C     0.02594   0.59280   0.86659   0.00000  Uiso   1.00
C1220  C     0.03676   0.33552   0.71324   0.00000  Uiso   1.00
C1221  C     0.03587   0.60972   0.70395   0.00000  Uiso   1.00
C1222  C     0.08107   0.58903   0.71951   0.00000  Uiso   1.00
C1223  C     0.45396   0.34428   0.90130   0.00000  Uiso   1.00
C1224  C     0.43034   0.37956   0.95143   0.00000  Uiso   1.00
C1225  C     0.40699   0.42344   0.93009   0.00000  Uiso   1.00
C1226  C     0.18920   0.42099   0.98501   0.00000  Uiso   1.00
C1227  C     0.01764   0.40591   0.78522   0.00000  Uiso   1.00
C1228  C     0.18349   0.36453   0.95371   0.00000  Uiso   1.00
C1229  C     0.14093   0.34309   0.97133   0.00000  Uiso   1.00
C1230  C     0.31378   0.57991   0.67601   0.00000  Uiso   1.00
C1231  C     0.35213   0.55320   0.70327   0.00000  Uiso   1.00
C1232  C     0.39671   0.56327   0.67902   0.00000  Uiso   1.00
C1233  C     0.48010   0.59358   0.87435   0.00000  Uiso   1.00
C1234  C     0.24354   0.34537   0.81191   0.00000  Uiso   1.00
C1235  C     0.26064   0.65438   0.85420   0.00000  Uiso   1.00
C1236  C     0.16459   0.49953   0.83431   0.00000  Uiso   1.00
C1237  C     0.33502   0.49872   0.83176   0.00000  Uiso   1.00
C1238  C     0.40715   0.54654   0.85250   0.00000  Uiso   1.00
Cl1239 Cl    0.37563   0.60118   0.87979   0.00000  Uiso   1.00
Cl1240 Cl    0.12202   0.39376   0.80609   0.00000  Uiso   1.00
Cl1241 Cl    0.43916   0.35063   0.75399   0.00000  Uiso   1.00
Cl1242 Cl    0.05618   0.65127   0.88530   0.00000  Uiso   1.00
Cl1243 Cl    0.20807   0.64757   0.74978   0.00000  Uiso   1.00
Cl1244 Cl    0.29672   0.35190   0.91646   0.00000  Uiso   1.00
Cu1245 Cu    0.25500   0.50579   0.89479   0.00000  Uiso   1.00
Cu1246 Cu    0.24499   0.49421   0.77187   0.00000  Uiso   1.00
H1247  H     0.38292   0.42314   0.77970   0.00000  Uiso   1.00
H1248  H     0.43150   0.33585   0.86029   0.00000  Uiso   1.00
H1249  H     0.48357   0.36575   0.89214   0.00000  Uiso   1.00
H1250  H     0.40514   0.35672   0.96922   0.00000  Uiso   1.00
H1251  H     0.45504   0.39686   0.98849   0.00000  Uiso   1.00
H1252  H     0.43194   0.45007   0.91794   0.00000  Uiso   1.00
H1253  H     0.38814   0.44525   0.96714   0.00000  Uiso   1.00
H1254  H     0.38314   0.40799   0.89112   0.00000  Uiso   1.00
H1255  H     0.16559   0.44437   0.96298   0.00000  Uiso   1.00
H1256  H     0.18141   0.42461   0.69923   0.00000  Uiso   1.00
H1257  H     0.18190   0.36095   0.90415   0.00000  Uiso   1.00
H1258  H     0.11446   0.57955   0.86109   0.00000  Uiso   1.00
H1259  H     0.21168   0.34200   0.96719   0.00000  Uiso   1.00
H1260  H     0.14232   0.34381   0.68665   0.00000  Uiso   1.00
H1261  H     0.13526   0.63599   0.94656   0.00000  Uiso   1.00
H1262  H     0.11378   0.36856   0.96222   0.00000  Uiso   1.00
H1263  H     0.31671   0.62192   0.69658   0.00000  Uiso   1.00
H1264  H     0.31706   0.57733   0.96125   0.00000  Uiso   1.00
H1265  H     0.35433   0.56835   0.75260   0.00000  Uiso   1.00
H1266  H     0.34583   0.51077   0.69319   0.00000  Uiso   1.00
H1267  H     0.42427   0.55505   0.71000   0.00000  Uiso   1.00
H1268  H     0.39961   0.53747   0.96775   0.00000  Uiso   1.00
H1269  H     0.06682   0.34928   0.69570   0.00000  Uiso   1.00
H1270  H     0.39994   0.60383   0.67412   0.00000  Uiso   1.00
H1271  H     0.00832   0.34645   0.68594   0.00000  Uiso   1.00
H1272  H     0.01068   0.59738   0.73221   0.00000  Uiso   1.00
H1273  H     0.02581   0.59204   0.98964   0.00000  Uiso   1.00
H1274  H     0.10461   0.59300   0.68510   0.00000  Uiso   1.00
H1275  H     0.07741   0.54730   0.71995   0.00000  Uiso   1.00
H1276  H     0.09497   0.61022   0.76433   0.00000  Uiso   1.00
N1277  N     0.23744   0.48547   0.67951   0.00000  Uiso   1.00
N1278  N     0.26255   0.51453   0.98716   0.00000  Uiso   1.00
O1279  O     0.25325   0.42871   0.87326   0.00000  Uiso   1.00
O1280  O     0.46467   0.63139   0.92035   0.00000  Uiso   1.00
O1281  O     0.23296   0.43697   0.98081   0.00000  Uiso   1.00
O1282  O     0.27185   0.56177   0.68884   0.00000  Uiso   1.00
O1283  O     0.24674   0.57129   0.79341   0.00000  Uiso   1.00
O1284  O     0.24480   0.41892   0.76945   0.00000  Uiso   1.00
O1285  O     0.25520   0.58108   0.89721   0.00000  Uiso   1.00
O1286  O     0.18935   0.50488   0.88524   0.00000  Uiso   1.00
O1287  O     0.31064   0.49512   0.78143   0.00000  Uiso   1.00
O1288  O     0.18090   0.49510   0.78143   0.00000  Uiso   1.00
O1289  O     0.31910   0.50490   0.88523   0.00000  Uiso   1.00
O1290  O     0.03626   0.35756   0.77547   0.00000  Uiso   1.00
C1291  C     0.74883   0.40047   0.81850   0.00000  Uiso   1.00
C1292  C     0.59138   0.45114   0.81680   0.00000  Uiso   1.00
C1293  C     0.88293   0.50082   0.82814   0.00000  Uiso   1.00
C1294  C     0.61588   0.49799   0.83535   0.00000  Uiso   1.00
C1295  C     0.90365   0.45700   0.79917   0.00000  Uiso   1.00
C1296  C     0.59417   0.54452   0.84901   0.00000  Uiso   1.00
C1297  C     0.95002   0.45559   0.79999   0.00000  Uiso   1.00
C1298  C     0.54760   0.54595   0.84695   0.00000  Uiso   1.00
C1299  C     0.97551   0.50125   0.82471   0.00000  Uiso   1.00
C1300  C     0.52240   0.49952   0.82656   0.00000  Uiso   1.00
C1301  C     0.95405   0.54790   0.85052   0.00000  Uiso   1.00
C1302  C     0.75291   0.59949   0.84808   0.00000  Uiso   1.00
C1303  C     0.54406   0.45147   0.80920   0.00000  Uiso   1.00
C1304  C     0.97105   0.40857   0.78021   0.00000  Uiso   1.00
C1305  C     0.52594   0.59280   0.86659   0.00000  Uiso   1.00
C1306  C     0.53676   0.33552   0.71324   0.00000  Uiso   1.00
C1307  C     0.53587   0.60972   0.70395   0.00000  Uiso   1.00
C1308  C     0.58107   0.58903   0.71951   0.00000  Uiso   1.00
C1309  C     0.95396   0.34428   0.90130   0.00000  Uiso   1.00
C1310  C     0.93034   0.37956   0.95143   0.00000  Uiso   1.00
C1311  C     0.90699   0.42344   0.93009   0.00000  Uiso   1.00
C1312  C     0.68920   0.42099   0.98501   0.00000  Uiso   1.00
C1313  C     0.51764   0.40591   0.78522   0.00000  Uiso   1.00
C1314  C     0.68349   0.36453   0.95371   0.00000  Uiso   1.00
C1315  C     0.64093   0.34309   0.97133   0.00000  Uiso   1.00
C1316  C     0.81378   0.57991   0.67601   0.00000  Uiso   1.00
C1317  C     0.85213   0.55320   0.70327   0.00000  Uiso   1.00
C1318  C     0.89671   0.56327   0.67902   0.00000  Uiso   1.00
C1319  C     0.98010   0.59358   0.87435   0.00000  Uiso   1.00
C1320  C     0.74354   0.34537   0.81191   0.00000  Uiso   1.00
C1321  C     0.76064   0.65438   0.85420   0.00000  Uiso   1.00
C1322  C     0.66459   0.49953   0.83431   0.00000  Uiso   1.00
C1323  C     0.83502   0.49872   0.83176   0.00000  Uiso   1.00
C1324  C     0.90715   0.54654   0.85250   0.00000  Uiso   1.00
Cl1325 Cl    0.87563   0.60118   0.87979   0.00000  Uiso   1.00
Cl1326 Cl    0.62202   0.39376   0.80609   0.00000  Uiso   1.00
Cl1327 Cl    0.93916   0.35063   0.75399   0.00000  Uiso   1.00
Cl1328 Cl    0.55618   0.65127   0.88530   0.00000  Uiso   1.00
Cl1329 Cl    0.70807   0.64757   0.74978   0.00000  Uiso   1.00
Cl1330 Cl    0.79672   0.35190   0.91646   0.00000  Uiso   1.00
Cu1331 Cu    0.75500   0.50579   0.89479   0.00000  Uiso   1.00
Cu1332 Cu    0.74499   0.49421   0.77187   0.00000  Uiso   1.00
H1333  H     0.88292   0.42314   0.77970   0.00000  Uiso   1.00
H1334  H     0.93150   0.33585   0.86029   0.00000  Uiso   1.00
H1335  H     0.98357   0.36575   0.89214   0.00000  Uiso   1.00
H1336  H     0.90514   0.35672   0.96922   0.00000  Uiso   1.00
H1337  H     0.95504   0.39686   0.98849   0.00000  Uiso   1.00
H1338  H     0.93194   0.45007   0.91794   0.00000  Uiso   1.00
H1339  H     0.88814   0.44525   0.96714   0.00000  Uiso   1.00
H1340  H     0.88314   0.40799   0.89112   0.00000  Uiso   1.00
H1341  H     0.66559   0.44437   0.96298   0.00000  Uiso   1.00
H1342  H     0.68141   0.42461   0.69923   0.00000  Uiso   1.00
H1343  H     0.68190   0.36095   0.90415   0.00000  Uiso   1.00
H1344  H     0.61446   0.57955   0.86109   0.00000  Uiso   1.00
H1345  H     0.71168   0.34200   0.96719   0.00000  Uiso   1.00
H1346  H     0.64232   0.34381   0.68665   0.00000  Uiso   1.00
H1347  H     0.63526   0.63599   0.94656   0.00000  Uiso   1.00
H1348  H     0.61378   0.36856   0.96222   0.00000  Uiso   1.00
H1349  H     0.81671   0.62192   0.69658   0.00000  Uiso   1.00
H1350  H     0.81706   0.57733   0.96125   0.00000  Uiso   1.00
H1351  H     0.85433   0.56835   0.75260   0.00000  Uiso   1.00
H1352  H     0.84583   0.51077   0.69319   0.00000  Uiso   1.00
H1353  H     0.92427   0.55505   0.71000   0.00000  Uiso   1.00
H1354  H     0.89961   0.53747   0.96775   0.00000  Uiso   1.00
H1355  H     0.56682   0.34928   0.69570   0.00000  Uiso   1.00
H1356  H     0.89994   0.60383   0.67412   0.00000  Uiso   1.00
H1357  H     0.50832   0.34645   0.68594   0.00000  Uiso   1.00
H1358  H     0.51068   0.59738   0.73221   0.00000  Uiso   1.00
H1359  H     0.52581   0.59204   0.98964   0.00000  Uiso   1.00
H1360  H     0.60461   0.59300   0.68510   0.00000  Uiso   1.00
H1361  H     0.57741   0.54730   0.71995   0.00000  Uiso   1.00
H1362  H     0.59497   0.61022   0.76433   0.00000  Uiso   1.00
N1363  N     0.73744   0.48547   0.67951   0.00000  Uiso   1.00
N1364  N     0.76255   0.51453   0.98716   0.00000  Uiso   1.00
O1365  O     0.75325   0.42871   0.87326   0.00000  Uiso   1.00
O1366  O     0.96467   0.63139   0.92035   0.00000  Uiso   1.00
O1367  O     0.73296   0.43697   0.98081   0.00000  Uiso   1.00
O1368  O     0.77185   0.56177   0.68884   0.00000  Uiso   1.00
O1369  O     0.74674   0.57129   0.79341   0.00000  Uiso   1.00
O1370  O     0.74480   0.41892   0.76945   0.00000  Uiso   1.00
O1371  O     0.75520   0.58108   0.89721   0.00000  Uiso   1.00
O1372  O     0.68935   0.50488   0.88524   0.00000  Uiso   1.00
O1373  O     0.81064   0.49512   0.78143   0.00000  Uiso   1.00
O1374  O     0.68090   0.49510   0.78143   0.00000  Uiso   1.00
O1375  O     0.81910   0.50490   0.88523   0.00000  Uiso   1.00
O1376  O     0.53626   0.35756   0.77547   0.00000  Uiso   1.00
C1377  C     0.24883   0.73380   0.81850   0.00000  Uiso   1.00
C1378  C     0.09138   0.78447   0.81680   0.00000  Uiso   1.00
C1379  C     0.38293   0.83416   0.82814   0.00000  Uiso   1.00
C1380  C     0.11588   0.83132   0.83535   0.00000  Uiso   1.00
C1381  C     0.40365   0.79034   0.79917   0.00000  Uiso   1.00
C1382  C     0.09417   0.87786   0.84901   0.00000  Uiso   1.00
C1383  C     0.45002   0.78892   0.79999   0.00000  Uiso   1.00
C1384  C     0.04760   0.87928   0.84695   0.00000  Uiso   1.00
C1385  C     0.47551   0.83459   0.82471   0.00000  Uiso   1.00
C1386  C     0.02240   0.83286   0.82656   0.00000  Uiso   1.00
C1387  C     0.45405   0.88123   0.85052   0.00000  Uiso   1.00
C1388  C     0.25291   0.93283   0.84808   0.00000  Uiso   1.00
C1389  C     0.04406   0.78481   0.80920   0.00000  Uiso   1.00
C1390  C     0.47105   0.74190   0.78021   0.00000  Uiso   1.00
C1391  C     0.02594   0.92613   0.86659   0.00000  Uiso   1.00
C1392  C     0.03676   0.66885   0.71324   0.00000  Uiso   1.00
C1393  C     0.03587   0.94306   0.70395   0.00000  Uiso   1.00
C1394  C     0.08107   0.92236   0.71951   0.00000  Uiso   1.00
C1395  C     0.45396   0.67761   0.90130   0.00000  Uiso   1.00
C1396  C     0.43034   0.71289   0.95143   0.00000  Uiso   1.00
C1397  C     0.40699   0.75678   0.93009   0.00000  Uiso   1.00
C1398  C     0.18920   0.75432   0.98501   0.00000  Uiso   1.00
C1399  C     0.01764   0.73925   0.78522   0.00000  Uiso   1.00
C1400  C     0.18349   0.69786   0.95371   0.00000  Uiso   1.00
C1401  C     0.14093   0.67643   0.97133   0.00000  Uiso   1.00
C1402  C     0.31378   0.91324   0.67601   0.00000  Uiso   1.00
C1403  C     0.35213   0.88653   0.70327   0.00000  Uiso   1.00
C1404  C     0.39671   0.89661   0.67902   0.00000  Uiso   1.00
C1405  C     0.48010   0.92692   0.87435   0.00000  Uiso   1.00
C1406  C     0.24354   0.67870   0.81191   0.00000  Uiso   1.00
C1407  C     0.26064   0.98771   0.85420   0.00000  Uiso   1.00
C1408  C     0.16459   0.83286   0.83431   0.00000  Uiso   1.00
C1409  C     0.33502   0.83206   0.83176   0.00000  Uiso   1.00
C1410  C     0.40715   0.87988   0.85250   0.00000  Uiso   1.00
Cl1411 Cl    0.37563   0.93451   0.87979   0.00000  Uiso   1.00
Cl1412 Cl    0.12202   0.72710   0.80609   0.00000  Uiso   1.00
Cl1413 Cl    0.43916   0.68396   0.75399   0.00000  Uiso   1.00
Cl1414 Cl    0.05618   0.98460   0.88530   0.00000  Uiso   1.00
Cl1415 Cl    0.20807   0.98090   0.74978   0.00000  Uiso   1.00
Cl1416 Cl    0.29672   0.68523   0.91646   0.00000  Uiso   1.00
Cu1417 Cu    0.25500   0.83913   0.89479   0.00000  Uiso   1.00
Cu1418 Cu    0.24499   0.82754   0.77187   0.00000  Uiso   1.00
H1419  H     0.38292   0.75648   0.77970   0.00000  Uiso   1.00
H1420  H     0.43150   0.66918   0.86029   0.00000  Uiso   1.00
H1421  H     0.48357   0.69908   0.89214   0.00000  Uiso   1.00
H1422  H     0.40514   0.69005   0.96922   0.00000  Uiso   1.00
H1423  H     0.45504   0.73020   0.98849   0.00000  Uiso   1.00
H1424  H     0.43194   0.78340   0.91794   0.00000  Uiso   1.00
H1425  H     0.38814   0.77859   0.96714   0.00000  Uiso   1.00
H1426  H     0.38314   0.74133   0.89112   0.00000  Uiso   1.00
H1427  H     0.16559   0.77770   0.96298   0.00000  Uiso   1.00
H1428  H     0.18141   0.75795   0.69923   0.00000  Uiso   1.00
H1429  H     0.18190   0.69428   0.90415   0.00000  Uiso   1.00
H1430  H     0.11446   0.91288   0.86109   0.00000  Uiso   1.00
H1431  H     0.21168   0.67534   0.96719   0.00000  Uiso   1.00
H1432  H     0.14232   0.67714   0.68665   0.00000  Uiso   1.00
H1433  H     0.13526   0.96933   0.94656   0.00000  Uiso   1.00
H1434  H     0.11378   0.70189   0.96222   0.00000  Uiso   1.00
H1435  H     0.31671   0.95526   0.69658   0.00000  Uiso   1.00
H1436  H     0.31706   0.91066   0.96125   0.00000  Uiso   1.00
H1437  H     0.35433   0.90168   0.75260   0.00000  Uiso   1.00
H1438  H     0.34583   0.84410   0.69319   0.00000  Uiso   1.00
H1439  H     0.42427   0.88838   0.71000   0.00000  Uiso   1.00
H1440  H     0.39961   0.87080   0.96775   0.00000  Uiso   1.00
H1441  H     0.06682   0.68262   0.69570   0.00000  Uiso   1.00
H1442  H     0.39994   0.93716   0.67412   0.00000  Uiso   1.00
H1443  H     0.00832   0.67979   0.68594   0.00000  Uiso   1.00
H1444  H     0.01068   0.93071   0.73221   0.00000  Uiso   1.00
H1445  H     0.02581   0.92537   0.98964   0.00000  Uiso   1.00
H1446  H     0.10461   0.92633   0.68510   0.00000  Uiso   1.00
H1447  H     0.07741   0.88063   0.71995   0.00000  Uiso   1.00
H1448  H     0.09497   0.94355   0.76433   0.00000  Uiso   1.00
N1449  N     0.23744   0.81881   0.67951   0.00000  Uiso   1.00
N1450  N     0.26255   0.84786   0.98716   0.00000  Uiso   1.00
O1451  O     0.25325   0.76204   0.87326   0.00000  Uiso   1.00
O1452  O     0.46467   0.96472   0.92035   0.00000  Uiso   1.00
O1453  O     0.23296   0.77030   0.98081   0.00000  Uiso   1.00
O1454  O     0.27185   0.89511   0.68884   0.00000  Uiso   1.00
O1455  O     0.24674   0.90462   0.79341   0.00000  Uiso   1.00
O1456  O     0.24480   0.75226   0.76945   0.00000  Uiso   1.00
O1457  O     0.25520   0.91441   0.89721   0.00000  Uiso   1.00
O1458  O     0.18935   0.83821   0.88524   0.00000  Uiso   1.00
O1459  O     0.31064   0.82845   0.78143   0.00000  Uiso   1.00
O1460  O     0.18090   0.82843   0.78143   0.00000  Uiso   1.00
O1461  O     0.31910   0.83824   0.88523   0.00000  Uiso   1.00
O1462  O     0.03626   0.69090   0.77547   0.00000  Uiso   1.00
C1463  C     0.74883   0.73380   0.81850   0.00000  Uiso   1.00
C1464  C     0.59138   0.78447   0.81680   0.00000  Uiso   1.00
C1465  C     0.88293   0.83416   0.82814   0.00000  Uiso   1.00
C1466  C     0.61588   0.83132   0.83535   0.00000  Uiso   1.00
C1467  C     0.90365   0.79034   0.79917   0.00000  Uiso   1.00
C1468  C     0.59417   0.87786   0.84901   0.00000  Uiso   1.00
C1469  C     0.95002   0.78892   0.79999   0.00000  Uiso   1.00
C1470  C     0.54760   0.87928   0.84695   0.00000  Uiso   1.00
C1471  C     0.97551   0.83459   0.82471   0.00000  Uiso   1.00
C1472  C     0.52240   0.83286   0.82656   0.00000  Uiso   1.00
C1473  C     0.95405   0.88123   0.85052   0.00000  Uiso   1.00
C1474  C     0.75291   0.93283   0.84808   0.00000  Uiso   1.00
C1475  C     0.54406   0.78481   0.80920   0.00000  Uiso   1.00
C1476  C     0.97105   0.74190   0.78021   0.00000  Uiso   1.00
C1477  C     0.52594   0.92613   0.86659   0.00000  Uiso   1.00
C1478  C     0.53676   0.66885   0.71324   0.00000  Uiso   1.00
C1479  C     0.53587   0.94306   0.70395   0.00000  Uiso   1.00
C1480  C     0.58107   0.92236   0.71951   0.00000  Uiso   1.00
C1481  C     0.95396   0.67761   0.90130   0.00000  Uiso   1.00
C1482  C     0.93034   0.71289   0.95143   0.00000  Uiso   1.00
C1483  C     0.90699   0.75678   0.93009   0.00000  Uiso   1.00
C1484  C     0.68920   0.75432   0.98501   0.00000  Uiso   1.00
C1485  C     0.51764   0.73925   0.78522   0.00000  Uiso   1.00
C1486  C     0.68349   0.69786   0.95371   0.00000  Uiso   1.00
C1487  C     0.64093   0.67643   0.97133   0.00000  Uiso   1.00
C1488  C     0.81378   0.91324   0.67601   0.00000  Uiso   1.00
C1489  C     0.85213   0.88653   0.70327   0.00000  Uiso   1.00
C1490  C     0.89671   0.89661   0.67902   0.00000  Uiso   1.00
C1491  C     0.98010   0.92692   0.87435   0.00000  Uiso   1.00
C1492  C     0.74354   0.67870   0.81191   0.00000  Uiso   1.00
C1493  C     0.76064   0.98771   0.85420   0.00000  Uiso   1.00
C1494  C     0.66459   0.83286   0.83431   0.00000  Uiso   1.00
C1495  C     0.83502   0.83206   0.83176   0.00000  Uiso   1.00
C1496  C     0.90715   0.87988   0.85250   0.00000  Uiso   1.00
Cl1497 Cl    0.87563   0.93451   0.87979   0.00000  Uiso   1.00
Cl1498 Cl    0.62202   0.72710   0.80609   0.00000  Uiso   1.00
Cl1499 Cl    0.93916   0.68396   0.75399   0.00000  Uiso   1.00
Cl1500 Cl    0.55618   0.98460   0.88530   0.00000  Uiso   1.00
Cl1501 Cl    0.70807   0.98090   0.74978   0.00000  Uiso   1.00
Cl1502 Cl    0.79672   0.68523   0.91646   0.00000  Uiso   1.00
Cu1503 Cu    0.75500   0.83913   0.89479   0.00000  Uiso   1.00
Cu1504 Cu    0.74499   0.82754   0.77187   0.00000  Uiso   1.00
H1505  H     0.88292   0.75648   0.77970   0.00000  Uiso   1.00
H1506  H     0.93150   0.66918   0.86029   0.00000  Uiso   1.00
H1507  H     0.98357   0.69908   0.89214   0.00000  Uiso   1.00
H1508  H     0.90514   0.69005   0.96922   0.00000  Uiso   1.00
H1509  H     0.95504   0.73020   0.98849   0.00000  Uiso   1.00
H1510  H     0.93194   0.78340   0.91794   0.00000  Uiso   1.00
H1511  H     0.88814   0.77859   0.96714   0.00000  Uiso   1.00
H1512  H     0.88314   0.74133   0.89112   0.00000  Uiso   1.00
H1513  H     0.66559   0.77770   0.96298   0.00000  Uiso   1.00
H1514  H     0.68141   0.75795   0.69923   0.00000  Uiso   1.00
H1515  H     0.68190   0.69428   0.90415   0.00000  Uiso   1.00
H1516  H     0.61446   0.91288   0.86109   0.00000  Uiso   1.00
H1517  H     0.71168   0.67534   0.96719   0.00000  Uiso   1.00
H1518  H     0.64232   0.67714   0.68665   0.00000  Uiso   1.00
H1519  H     0.63526   0.96933   0.94656   0.00000  Uiso   1.00
H1520  H     0.61378   0.70189   0.96222   0.00000  Uiso   1.00
H1521  H     0.81671   0.95526   0.69658   0.00000  Uiso   1.00
H1522  H     0.81706   0.91066   0.96125   0.00000  Uiso   1.00
H1523  H     0.85433   0.90168   0.75260   0.00000  Uiso   1.00
H1524  H     0.84583   0.84410   0.69319   0.00000  Uiso   1.00
H1525  H     0.92427   0.88838   0.71000   0.00000  Uiso   1.00
H1526  H     0.89961   0.87080   0.96775   0.00000  Uiso   1.00
H1527  H     0.56682   0.68262   0.69570   0.00000  Uiso   1.00
H1528  H     0.89994   0.93716   0.67412   0.00000  Uiso   1.00
H1529  H     0.50832   0.67979   0.68594   0.00000  Uiso   1.00
H1530  H     0.51068   0.93071   0.73221   0.00000  Uiso   1.00
H1531  H     0.52581   0.92537   0.98964   0.00000  Uiso   1.00
H1532  H     0.60461   0.92633   0.68510   0.00000  Uiso   1.00
H1533  H     0.57741   0.88063   0.71995   0.00000  Uiso   1.00
H1534  H     0.59497   0.94355   0.76433   0.00000  Uiso   1.00
N1535  N     0.73744   0.81881   0.67951   0.00000  Uiso   1.00
N1536  N     0.76255   0.84786   0.98716   0.00000  Uiso   1.00
O1537  O     0.75325   0.76204   0.87326   0.00000  Uiso   1.00
O1538  O     0.96467   0.96472   0.92035   0.00000  Uiso   1.00
O1539  O     0.73296   0.77030   0.98081   0.00000  Uiso   1.00
O1540  O     0.77185   0.89511   0.68884   0.00000  Uiso   1.00
O1541  O     0.74674   0.90462   0.79341   0.00000  Uiso   1.00
O1542  O     0.74480   0.75226   0.76945   0.00000  Uiso   1.00
O1543  O     0.75520   0.91441   0.89721   0.00000  Uiso   1.00
O1544  O     0.68935   0.83821   0.88524   0.00000  Uiso   1.00
O1545  O     0.81064   0.82845   0.78143   0.00000  Uiso   1.00
O1546  O     0.68090   0.82843   0.78143   0.00000  Uiso   1.00
O1547  O     0.81910   0.83824   0.88523   0.00000  Uiso   1.00
O1548  O     0.53626   0.69090   0.77547   0.00000  Uiso   1.00
loop_
_geom_bond_atom_site_label_1
_geom_bond_atom_site_label_2
_geom_bond_distance
_geom_bond_site_symmetry_2
_ccdc_geom_bond_type
C1     O75     1.308   .     A
C1     C30     1.439   .     S
C1     O80     1.309   .     A
C2     C4      1.405   .     A
C2     C13     1.427   .     A
C2     Cl36    1.769   .     S
C3     C33     1.452   .     S
C3     C34     1.395   .     A
C3     C5      1.384   .     A
C4     C6      1.388   .     A
C4     C32     1.470   .     S
C5     H43     1.082   .     S
C5     C7      1.398   .     A
C6     H54     1.079   .     S
C6     C8      1.403   .     A
C7     C14     1.405   .     A
C7     C9      1.414   .     A
C8     C15     1.410   .     A
C8     C10     1.411   .     A
C9     C11     1.432   .     A
C9     C96     1.413   .     S
C10    C13     1.429   .     A
C10    C95     1.413   1_455 S
C11    C34     1.417   .     A
C11    C29     1.419   .     A
C12    O79     1.309   .     A
C12    O81     1.309   .     A
C12    C31     1.443   .     S
C13    C23     1.423   .     A
C14    Cl37    1.769   .     S
C14    C109    1.406   .     S
C15    Cl38    1.743   .     S
C15    C115    1.403   1_455 S
C16    O86     1.413   .     S
C16    H67     1.106   .     S
C16    H65     1.099   .     S
C16    C361    1.534   1_545 S
C17    H68     1.112   .     S
C17    C18     1.525   .     S
C17    C188    1.534   .     S
C17    H1101   1.108   1_554 S
C18    H70     1.107   .     S
C18    H72     1.109   .     S
C18    H71     1.110   .     S
C19    C20     1.531   .     S
C19    H44     1.100   .     S
C19    H45     1.104   .     S
C19    O420    1.417   1_545 S
C20    H47     1.107   .     S
C20    C21     1.517   .     S
C20    H46     1.110   .     S
C21    H49     1.108   .     S
C21    H48     1.109   .     S
C21    H50     1.110   .     S
C22    C24     1.515   .     S
C22    O77     1.394   .     S
C22    H51     1.114   .     S
C22    H568    1.105   .     S
C23    O86     1.385   .     S
C23    C100    1.406   1_455 S
C24    H55     1.110   .     S
C24    C25     1.505   .     S
C24    H53     1.109   .     S
C25    H58     1.105   .     S
C25    H572    1.101   .     S
C25    H401    1.104   1_545 S
C26    C27     1.531   .     S
C26    O78     1.413   .     S
C26    H59     1.111   .     S
C26    H1092   1.092   1_554 S
C27    H61     1.106   .     S
C27    H62     1.108   .     S
C27    C28     1.523   .     S
C28    H66     1.106   .     S
C28    H63     1.111   .     S
C28    H1096   1.106   1_554 S
C29    O76     1.393   .     S
C29    C101    1.403   .     S
C30    C375    1.349   1_545 S
C30    Cl383   1.766   1_545 S
C31    C202    1.349   .     S
C31    Cl212   1.776   .     S
C32    O84     1.310   .     A
C32    O82     1.320   .     A
C33    O85     1.313   .     A
C33    O83     1.308   .     A
C34    Cl35    1.764   .     S
Cl39   C202    1.766   .     S
Cl40   C375    1.776   1_545 S
Cu41   Cu42    2.746   .     S
Cu41   N74     2.063   .     S
Cu41   O75     1.994   .     S
Cu41   O81     1.981   .     S
Cu41   O85     1.957   .     S
Cu41   O82     1.977   .     S
Cu42   O80     1.981   .     S
Cu42   O79     1.994   .     S
Cu42   O84     1.957   .     S
Cu42   N73     2.063   .     S
Cu42   O83     1.977   .     S
H52    C1054   1.105   1_554 S
H56    C1057   1.101   1_554 S
H57    C197    1.104   .     S
H60    C542    1.092   .     S
H64    C544    1.106   .     S
H69    C533    1.108   .     S
N73    N1106   1.316   1_554 S
N73    O1109   1.336   1_554 S
N74    N589    1.316   .     S
N74    O594    1.348   .     S
O76    C191    1.417   .     S
O77    N589    1.336   .     S
O78    N1106   1.348   1_554 S
C87    O161    1.308   .     A
C87    C116    1.439   .     S
C87    O166    1.309   .     A
C88    C90     1.405   .     A
C88    C99     1.427   .     A
C88    Cl122   1.769   .     S
C89    C119    1.452   .     S
C89    C120    1.395   .     A
C89    C91     1.384   .     A
C90    C92     1.388   .     A
C90    C118    1.470   .     S
C91    H129    1.082   .     S
C91    C93     1.398   .     A
C92    H140    1.079   .     S
C92    C94     1.403   .     A
C93    C100    1.405   .     A
C93    C95     1.414   .     A
C94    C101    1.410   .     A
C94    C96     1.411   .     A
C95    C97     1.432   .     A
C95    C10     1.413   1_655 S
C96    C99     1.429   .     A
C97    C120    1.417   .     A
C97    C115    1.419   .     A
C98    O165    1.309   .     A
C98    O167    1.309   .     A
C98    C117    1.443   .     S
C99    C109    1.423   .     A
C100   Cl123   1.769   .     S
C100   C23     1.406   1_655 S
C101   Cl124   1.743   .     S
C102   O172    1.413   .     S
C102   H153    1.106   .     S
C102   H151    1.099   .     S
C102   C447    1.534   1_545 S
C103   H154    1.112   .     S
C103   C104    1.525   .     S
C103   C274    1.534   .     S
C103   H1187   1.108   1_554 S
C104   H156    1.107   .     S
C104   H158    1.109   .     S
C104   H157    1.110   .     S
C105   C106    1.531   .     S
C105   H130    1.100   .     S
C105   H131    1.104   .     S
C105   O506    1.417   1_545 S
C106   H133    1.107   .     S
C106   C107    1.517   .     S
C106   H132    1.110   .     S
C107   H135    1.108   .     S
C107   H134    1.109   .     S
C107   H136    1.110   .     S
C108   C110    1.515   .     S
C108   O163    1.394   .     S
C108   H137    1.114   .     S
C108   H654    1.105   .     S
C109   O172    1.385   .     S
C110   H141    1.110   .     S
C110   C111    1.505   .     S
C110   H139    1.109   .     S
C111   H144    1.105   .     S
C111   H658    1.101   .     S
C111   H487    1.104   1_545 S
C112   C113    1.531   .     S
C112   O164    1.413   .     S
C112   H145    1.111   .     S
C112   H1178   1.092   1_554 S
C113   H147    1.106   .     S
C113   H148    1.108   .     S
C113   C114    1.523   .     S
C114   H152    1.106   .     S
C114   H149    1.111   .     S
C114   H1182   1.106   1_554 S
C115   O162    1.393   .     S
C115   C15     1.403   1_655 S
C116   C461    1.349   1_545 S
C116   Cl469   1.766   1_545 S
C117   C288    1.349   .     S
C117   Cl298   1.776   .     S
C118   O170    1.310   .     A
C118   O168    1.320   .     A
C119   O171    1.313   .     A
C119   O169    1.308   .     A
C120   Cl121   1.764   .     S
Cl125  C288    1.766   .     S
Cl126  C461    1.776   1_545 S
Cu127  Cu128   2.746   .     S
Cu127  N160    2.063   .     S
Cu127  O161    1.994   .     S
Cu127  O167    1.981   .     S
Cu127  O171    1.957   .     S
Cu127  O168    1.977   .     S
Cu128  O166    1.981   .     S
Cu128  O165    1.994   .     S
Cu128  O170    1.957   .     S
Cu128  N159    2.063   .     S
Cu128  O169    1.977   .     S
H138   C1140   1.105   1_554 S
H142   C1143   1.101   1_554 S
H143   C283    1.104   .     S
H146   C628    1.092   .     S
H150   C630    1.106   .     S
H155   C619    1.108   .     S
N159   N1192   1.316   1_554 S
N159   O1195   1.336   1_554 S
N160   N675    1.316   .     S
N160   O680    1.348   .     S
O162   C277    1.417   .     S
O163   N675    1.336   .     S
O164   N1192   1.348   1_554 S
C173   O247    1.308   .     A
C173   C202    1.439   .     S
C173   O252    1.309   .     A
C174   C176    1.405   .     A
C174   C185    1.427   .     A
C174   Cl208   1.769   .     S
C175   C205    1.452   .     S
C175   C206    1.395   .     A
C175   C177    1.384   .     A
C176   C178    1.388   .     A
C176   C204    1.470   .     S
C177   H215    1.082   .     S
C177   C179    1.398   .     A
C178   H226    1.079   .     S
C178   C180    1.403   .     A
C179   C186    1.405   .     A
C179   C181    1.414   .     A
C180   C187    1.410   .     A
C180   C182    1.411   .     A
C181   C183    1.432   .     A
C181   C268    1.413   .     S
C182   C185    1.429   .     A
C182   C267    1.413   1_455 S
C183   C206    1.417   .     A
C183   C201    1.419   .     A
C184   O251    1.309   .     A
C184   O253    1.309   .     A
C184   C203    1.443   .     S
C185   C195    1.423   .     A
C186   Cl209   1.769   .     S
C186   C281    1.406   .     S
C187   Cl210   1.743   .     S
C187   C287    1.403   1_455 S
C188   O258    1.413   .     S
C188   H239    1.106   .     S
C188   H237    1.099   .     S
C189   H240    1.112   .     S
C189   C190    1.525   .     S
C189   C360    1.534   .     S
C189   H1273   1.108   1_554 S
C190   H242    1.107   .     S
C190   H244    1.109   .     S
C190   H243    1.110   .     S
C191   C192    1.531   .     S
C191   H216    1.100   .     S
C191   H217    1.104   .     S
C192   H219    1.107   .     S
C192   C193    1.517   .     S
C192   H218    1.110   .     S
C193   H221    1.108   .     S
C193   H220    1.109   .     S
C193   H222    1.110   .     S
C194   C196    1.515   .     S
C194   O249    1.394   .     S
C194   H223    1.114   .     S
C194   H740    1.105   .     S
C195   O258    1.385   .     S
C195   C272    1.406   1_455 S
C196   H227    1.110   .     S
C196   C197    1.505   .     S
C196   H225    1.109   .     S
C197   H230    1.105   .     S
C197   H744    1.101   .     S
C198   C199    1.531   .     S
C198   O250    1.413   .     S
C198   H231    1.111   .     S
C198   H1264   1.092   1_554 S
C199   H233    1.106   .     S
C199   H234    1.108   .     S
C199   C200    1.523   .     S
C200   H238    1.106   .     S
C200   H235    1.111   .     S
C200   H1268   1.106   1_554 S
C201   O248    1.393   .     S
C201   C273    1.403   .     S
C203   C374    1.349   .     S
C203   Cl384   1.776   .     S
C204   O256    1.310   .     A
C204   O254    1.320   .     A
C205   O257    1.313   .     A
C205   O255    1.308   .     A
C206   Cl207   1.764   .     S
Cl211  C374    1.766   .     S
Cu213  Cu214   2.746   .     S
Cu213  N246    2.063   .     S
Cu213  O247    1.994   .     S
Cu213  O253    1.981   .     S
Cu213  O257    1.957   .     S
Cu213  O254    1.977   .     S
Cu214  O252    1.981   .     S
Cu214  O251    1.994   .     S
Cu214  O256    1.957   .     S
Cu214  N245    2.063   .     S
Cu214  O255    1.977   .     S
H224   C1226   1.105   1_554 S
H228   C1229   1.101   1_554 S
H229   C369    1.104   .     S
H232   C714    1.092   .     S
H236   C716    1.106   .     S
H241   C705    1.108   .     S
N245   N1278   1.316   1_554 S
N245   O1281   1.336   1_554 S
N246   N761    1.316   .     S
N246   O766    1.348   .     S
O248   C363    1.417   .     S
O249   N761    1.336   .     S
O250   N1278   1.348   1_554 S
C259   O333    1.308   .     A
C259   C288    1.439   .     S
C259   O338    1.309   .     A
C260   C262    1.405   .     A
C260   C271    1.427   .     A
C260   Cl294   1.769   .     S
C261   C291    1.452   .     S
C261   C292    1.395   .     A
C261   C263    1.384   .     A
C262   C264    1.388   .     A
C262   C290    1.470   .     S
C263   H301    1.082   .     S
C263   C265    1.398   .     A
C264   H312    1.079   .     S
C264   C266    1.403   .     A
C265   C272    1.405   .     A
C265   C267    1.414   .     A
C266   C273    1.410   .     A
C266   C268    1.411   .     A
C267   C269    1.432   .     A
C267   C182    1.413   1_655 S
C268   C271    1.429   .     A
C269   C292    1.417   .     A
C269   C287    1.419   .     A
C270   O337    1.309   .     A
C270   O339    1.309   .     A
C270   C289    1.443   .     S
C271   C281    1.423   .     A
C272   Cl295   1.769   .     S
C272   C195    1.406   1_655 S
C273   Cl296   1.743   .     S
C274   O344    1.413   .     S
C274   H325    1.106   .     S
C274   H323    1.099   .     S
C275   H326    1.112   .     S
C275   C276    1.525   .     S
C275   C446    1.534   .     S
C275   H1359   1.108   1_554 S
C276   H328    1.107   .     S
C276   H330    1.109   .     S
C276   H329    1.110   .     S
C277   C278    1.531   .     S
C277   H302    1.100   .     S
C277   H303    1.104   .     S
C278   H305    1.107   .     S
C278   C279    1.517   .     S
C278   H304    1.110   .     S
C279   H307    1.108   .     S
C279   H306    1.109   .     S
C279   H308    1.110   .     S
C280   C282    1.515   .     S
C280   O335    1.394   .     S
C280   H309    1.114   .     S
C280   H826    1.105   .     S
C281   O344    1.385   .     S
C282   H313    1.110   .     S
C282   C283    1.505   .     S
C282   H311    1.109   .     S
C283   H316    1.105   .     S
C283   H830    1.101   .     S
C284   C285    1.531   .     S
C284   O336    1.413   .     S
C284   H317    1.111   .     S
C284   H1350   1.092   1_554 S
C285   H319    1.106   .     S
C285   H320    1.108   .     S
C285   C286    1.523   .     S
C286   H324    1.106   .     S
C286   H321    1.111   .     S
C286   H1354   1.106   1_554 S
C287   O334    1.393   .     S
C287   C187    1.403   1_655 S
C289   C460    1.349   .     S
C289   Cl470   1.776   .     S
C290   O342    1.310   .     A
C290   O340    1.320   .     A
C291   O343    1.313   .     A
C291   O341    1.308   .     A
C292   Cl293   1.764   .     S
Cl297  C460    1.766   .     S
Cu299  Cu300   2.746   .     S
Cu299  N332    2.063   .     S
Cu299  O333    1.994   .     S
Cu299  O339    1.981   .     S
Cu299  O343    1.957   .     S
Cu299  O340    1.977   .     S
Cu300  O338    1.981   .     S
Cu300  O337    1.994   .     S
Cu300  O342    1.957   .     S
Cu300  N331    2.063   .     S
Cu300  O341    1.977   .     S
H310   C1312   1.105   1_554 S
H314   C1315   1.101   1_554 S
H315   C455    1.104   .     S
H318   C800    1.092   .     S
H322   C802    1.106   .     S
H327   C791    1.108   .     S
N331   N1364   1.316   1_554 S
N331   O1367   1.336   1_554 S
N332   N847    1.316   .     S
N332   O852    1.348   .     S
O334   C449    1.417   .     S
O335   N847    1.336   .     S
O336   N1364   1.348   1_554 S
C345   O419    1.308   .     A
C345   C374    1.439   .     S
C345   O424    1.309   .     A
C346   C348    1.405   .     A
C346   C357    1.427   .     A
C346   Cl380   1.769   .     S
C347   C377    1.452   .     S
C347   C378    1.395   .     A
C347   C349    1.384   .     A
C348   C350    1.388   .     A
C348   C376    1.470   .     S
C349   H387    1.082   .     S
C349   C351    1.398   .     A
C350   H398    1.079   .     S
C350   C352    1.403   .     A
C351   C358    1.405   .     A
C351   C353    1.414   .     A
C352   C359    1.410   .     A
C352   C354    1.411   .     A
C353   C355    1.432   .     A
C353   C440    1.413   .     S
C354   C357    1.429   .     A
C354   C439    1.413   1_455 S
C355   C378    1.417   .     A
C355   C373    1.419   .     A
C356   O423    1.309   .     A
C356   O425    1.309   .     A
C356   C375    1.443   .     S
C357   C367    1.423   .     A
C358   Cl381   1.769   .     S
C358   C453    1.406   .     S
C359   Cl382   1.743   .     S
C359   C459    1.403   1_455 S
C360   O430    1.413   .     S
C360   H411    1.106   .     S
C360   H409    1.099   .     S
C361   H412    1.112   .     S
C361   C362    1.525   .     S
C361   C16     1.534   1_565 S
C361   H1445   1.108   1_554 S
C362   H414    1.107   .     S
C362   H416    1.109   .     S
C362   H415    1.110   .     S
C363   C364    1.531   .     S
C363   H388    1.100   .     S
C363   H389    1.104   .     S
C364   H391    1.107   .     S
C364   C365    1.517   .     S
C364   H390    1.110   .     S
C365   H393    1.108   .     S
C365   H392    1.109   .     S
C365   H394    1.110   .     S
C366   C368    1.515   .     S
C366   O421    1.394   .     S
C366   H395    1.114   .     S
C366   H912    1.105   .     S
C367   O430    1.385   .     S
C367   C444    1.406   1_455 S
C368   H399    1.110   .     S
C368   C369    1.505   .     S
C368   H397    1.109   .     S
C369   H402    1.105   .     S
C369   H916    1.101   .     S
C370   C371    1.531   .     S
C370   O422    1.413   .     S
C370   H403    1.111   .     S
C370   H1436   1.092   1_554 S
C371   H405    1.106   .     S
C371   H406    1.108   .     S
C371   C372    1.523   .     S
C372   H410    1.106   .     S
C372   H407    1.111   .     S
C372   H1440   1.106   1_554 S
C373   O420    1.393   .     S
C373   C445    1.403   .     S
C375   C30     1.349   1_565 S
C375   Cl40    1.776   1_565 S
C376   O428    1.310   .     A
C376   O426    1.320   .     A
C377   O429    1.313   .     A
C377   O427    1.308   .     A
C378   Cl379   1.764   .     S
Cl383  C30     1.766   1_565 S
Cu385  Cu386   2.746   .     S
Cu385  N418    2.063   .     S
Cu385  O419    1.994   .     S
Cu385  O425    1.981   .     S
Cu385  O429    1.957   .     S
Cu385  O426    1.977   .     S
Cu386  O424    1.981   .     S
Cu386  O423    1.994   .     S
Cu386  O428    1.957   .     S
Cu386  N417    2.063   .     S
Cu386  O427    1.977   .     S
H396   C1398   1.105   1_554 S
H400   C1401   1.101   1_554 S
H401   C25     1.104   1_565 S
H404   C886    1.092   .     S
H408   C888    1.106   .     S
H413   C877    1.108   .     S
N417   N1450   1.316   1_554 S
N417   O1453   1.336   1_554 S
N418   N933    1.316   .     S
N418   O938    1.348   .     S
O420   C19     1.417   1_565 S
O421   N933    1.336   .     S
O422   N1450   1.348   1_554 S
C431   O505    1.308   .     A
C431   C460    1.439   .     S
C431   O510    1.309   .     A
C432   C434    1.405   .     A
C432   C443    1.427   .     A
C432   Cl466   1.769   .     S
C433   C463    1.452   .     S
C433   C464    1.395   .     A
C433   C435    1.384   .     A
C434   C436    1.388   .     A
C434   C462    1.470   .     S
C435   H473    1.082   .     S
C435   C437    1.398   .     A
C436   H484    1.079   .     S
C436   C438    1.403   .     A
C437   C444    1.405   .     A
C437   C439    1.414   .     A
C438   C445    1.410   .     A
C438   C440    1.411   .     A
C439   C441    1.432   .     A
C439   C354    1.413   1_655 S
C440   C443    1.429   .     A
C441   C464    1.417   .     A
C441   C459    1.419   .     A
C442   O509    1.309   .     A
C442   O511    1.309   .     A
C442   C461    1.443   .     S
C443   C453    1.423   .     A
C444   Cl467   1.769   .     S
C444   C367    1.406   1_655 S
C445   Cl468   1.743   .     S
C446   O516    1.413   .     S
C446   H497    1.106   .     S
C446   H495    1.099   .     S
C447   H498    1.112   .     S
C447   C448    1.525   .     S
C447   C102    1.534   1_565 S
C447   H1531   1.108   1_554 S
C448   H500    1.107   .     S
C448   H502    1.109   .     S
C448   H501    1.110   .     S
C449   C450    1.531   .     S
C449   H474    1.100   .     S
C449   H475    1.104   .     S
C450   H477    1.107   .     S
C450   C451    1.517   .     S
C450   H476    1.110   .     S
C451   H479    1.108   .     S
C451   H478    1.109   .     S
C451   H480    1.110   .     S
C452   C454    1.515   .     S
C452   O507    1.394   .     S
C452   H481    1.114   .     S
C452   H998    1.105   .     S
C453   O516    1.385   .     S
C454   H485    1.110   .     S
C454   C455    1.505   .     S
C454   H483    1.109   .     S
C455   H488    1.105   .     S
C455   H1002   1.101   .     S
C456   C457    1.531   .     S
C456   O508    1.413   .     S
C456   H489    1.111   .     S
C456   H1522   1.092   1_554 S
C457   H491    1.106   .     S
C457   H492    1.108   .     S
C457   C458    1.523   .     S
C458   H496    1.106   .     S
C458   H493    1.111   .     S
C458   H1526   1.106   1_554 S
C459   O506    1.393   .     S
C459   C359    1.403   1_655 S
C461   C116    1.349   1_565 S
C461   Cl126   1.776   1_565 S
C462   O514    1.310   .     A
C462   O512    1.320   .     A
C463   O515    1.313   .     A
C463   O513    1.308   .     A
C464   Cl465   1.764   .     S
Cl469  C116    1.766   1_565 S
Cu471  Cu472   2.746   .     S
Cu471  N504    2.063   .     S
Cu471  O505    1.994   .     S
Cu471  O511    1.981   .     S
Cu471  O515    1.957   .     S
Cu471  O512    1.977   .     S
Cu472  O510    1.981   .     S
Cu472  O509    1.994   .     S
Cu472  O514    1.957   .     S
Cu472  N503    2.063   .     S
Cu472  O513    1.977   .     S
H482   C1484   1.105   1_554 S
H486   C1487   1.101   1_554 S
H487   C111    1.104   1_565 S
H490   C972    1.092   .     S
H494   C974    1.106   .     S
H499   C963    1.108   .     S
N503   N1536   1.316   1_554 S
N503   O1539   1.336   1_554 S
N504   N1019   1.316   .     S
N504   O1024   1.348   .     S
O506   C105    1.417   1_565 S
O507   N1019   1.336   .     S
O508   N1536   1.348   1_554 S
C517   O591    1.308   .     A
C517   C546    1.439   .     S
C517   O596    1.309   .     A
C518   C520    1.405   .     A
C518   C529    1.427   .     A
C518   Cl552   1.769   .     S
C519   C549    1.452   .     S
C519   C550    1.395   .     A
C519   C521    1.384   .     A
C520   C522    1.388   .     A
C520   C548    1.470   .     S
C521   H559    1.082   .     S
C521   C523    1.398   .     A
C522   H570    1.079   .     S
C522   C524    1.403   .     A
C523   C530    1.405   .     A
C523   C525    1.414   .     A
C524   C531    1.410   .     A
C524   C526    1.411   .     A
C525   C527    1.432   .     A
C525   C612    1.413   .     S
C526   C529    1.429   .     A
C526   C611    1.413   1_455 S
C527   C550    1.417   .     A
C527   C545    1.419   .     A
C528   O595    1.309   .     A
C528   O597    1.309   .     A
C528   C547    1.443   .     S
C529   C539    1.423   .     A
C530   Cl553   1.769   .     S
C530   C625    1.406   .     S
C531   Cl554   1.743   .     S
C531   C631    1.403   1_455 S
C532   O602    1.413   .     S
C532   H583    1.106   .     S
C532   H581    1.099   .     S
C532   C877    1.534   1_545 S
C533   H584    1.112   .     S
C533   C534    1.525   .     S
C533   C704    1.534   .     S
C534   H586    1.107   .     S
C534   H588    1.109   .     S
C534   H587    1.110   .     S
C535   C536    1.531   .     S
C535   H560    1.100   .     S
C535   H561    1.104   .     S
C535   O936    1.417   1_545 S
C536   H563    1.107   .     S
C536   C537    1.517   .     S
C536   H562    1.110   .     S
C537   H565    1.108   .     S
C537   H564    1.109   .     S
C537   H566    1.110   .     S
C538   C540    1.515   .     S
C538   O593    1.394   .     S
C538   H567    1.114   .     S
C538   H1084   1.105   .     S
C539   O602    1.385   .     S
C539   C616    1.406   1_455 S
C540   H571    1.110   .     S
C540   C541    1.505   .     S
C540   H569    1.109   .     S
C541   H574    1.105   .     S
C541   H1088   1.101   .     S
C541   H917    1.104   1_545 S
C542   C543    1.531   .     S
C542   O594    1.413   .     S
C542   H575    1.111   .     S
C543   H577    1.106   .     S
C543   H578    1.108   .     S
C543   C544    1.523   .     S
C544   H582    1.106   .     S
C544   H579    1.111   .     S
C545   O592    1.393   .     S
C545   C617    1.403   .     S
C546   C891    1.349   1_545 S
C546   Cl899   1.766   1_545 S
C547   C718    1.349   .     S
C547   Cl728   1.776   .     S
C548   O600    1.310   .     A
C548   O598    1.320   .     A
C549   O601    1.313   .     A
C549   O599    1.308   .     A
C550   Cl551   1.764   .     S
Cl555  C718    1.766   .     S
Cl556  C891    1.776   1_545 S
Cu557  Cu558   2.746   .     S
Cu557  N590    2.063   .     S
Cu557  O591    1.994   .     S
Cu557  O597    1.981   .     S
Cu557  O601    1.957   .     S
Cu557  O598    1.977   .     S
Cu558  O596    1.981   .     S
Cu558  O595    1.994   .     S
Cu558  O600    1.957   .     S
Cu558  N589    2.063   .     S
Cu558  O599    1.977   .     S
H573   C713    1.104   .     S
H576   C1058   1.092   .     S
H580   C1060   1.106   .     S
H585   C1049   1.108   .     S
N590   N1105   1.316   .     S
N590   O1110   1.348   .     S
O592   C707    1.417   .     S
O593   N1105   1.336   .     S
C603   O677    1.308   .     A
C603   C632    1.439   .     S
C603   O682    1.309   .     A
C604   C606    1.405   .     A
C604   C615    1.427   .     A
C604   Cl638   1.769   .     S
C605   C635    1.452   .     S
C605   C636    1.395   .     A
C605   C607    1.384   .     A
C606   C608    1.388   .     A
C606   C634    1.470   .     S
C607   H645    1.082   .     S
C607   C609    1.398   .     A
C608   H656    1.079   .     S
C608   C610    1.403   .     A
C609   C616    1.405   .     A
C609   C611    1.414   .     A
C610   C617    1.410   .     A
C610   C612    1.411   .     A
C611   C613    1.432   .     A
C611   C526    1.413   1_655 S
C612   C615    1.429   .     A
C613   C636    1.417   .     A
C613   C631    1.419   .     A
C614   O681    1.309   .     A
C614   O683    1.309   .     A
C614   C633    1.443   .     S
C615   C625    1.423   .     A
C616   Cl639   1.769   .     S
C616   C539    1.406   1_655 S
C617   Cl640   1.743   .     S
C618   O688    1.413   .     S
C618   H669    1.106   .     S
C618   H667    1.099   .     S
C618   C963    1.534   1_545 S
C619   H670    1.112   .     S
C619   C620    1.525   .     S
C619   C790    1.534   .     S
C620   H672    1.107   .     S
C620   H674    1.109   .     S
C620   H673    1.110   .     S
C621   C622    1.531   .     S
C621   H646    1.100   .     S
C621   H647    1.104   .     S
C621   O1022   1.417   1_545 S
C622   H649    1.107   .     S
C622   C623    1.517   .     S
C622   H648    1.110   .     S
C623   H651    1.108   .     S
C623   H650    1.109   .     S
C623   H652    1.110   .     S
C624   C626    1.515   .     S
C624   O679    1.394   .     S
C624   H653    1.114   .     S
C624   H1170   1.105   .     S
C625   O688    1.385   .     S
C626   H657    1.110   .     S
C626   C627    1.505   .     S
C626   H655    1.109   .     S
C627   H660    1.105   .     S
C627   H1174   1.101   .     S
C627   H1003   1.104   1_545 S
C628   C629    1.531   .     S
C628   O680    1.413   .     S
C628   H661    1.111   .     S
C629   H663    1.106   .     S
C629   H664    1.108   .     S
C629   C630    1.523   .     S
C630   H668    1.106   .     S
C630   H665    1.111   .     S
C631   O678    1.393   .     S
C631   C531    1.403   1_655 S
C632   C977    1.349   1_545 S
C632   Cl985   1.766   1_545 S
C633   C804    1.349   .     S
C633   Cl814   1.776   .     S
C634   O686    1.310   .     A
C634   O684    1.320   .     A
C635   O687    1.313   .     A
C635   O685    1.308   .     A
C636   Cl637   1.764   .     S
Cl641  C804    1.766   .     S
Cl642  C977    1.776   1_545 S
Cu643  Cu644   2.746   .     S
Cu643  N676    2.063   .     S
Cu643  O677    1.994   .     S
Cu643  O683    1.981   .     S
Cu643  O687    1.957   .     S
Cu643  O684    1.977   .     S
Cu644  O682    1.981   .     S
Cu644  O681    1.994   .     S
Cu644  O686    1.957   .     S
Cu644  N675    2.063   .     S
Cu644  O685    1.977   .     S
H659   C799    1.104   .     S
H662   C1144   1.092   .     S
H666   C1146   1.106   .     S
H671   C1135   1.108   .     S
N676   N1191   1.316   .     S
N676   O1196   1.348   .     S
O678   C793    1.417   .     S
O679   N1191   1.336   .     S
C689   O763    1.308   .     A
C689   C718    1.439   .     S
C689   O768    1.309   .     A
C690   C692    1.405   .     A
C690   C701    1.427   .     A
C690   Cl724   1.769   .     S
C691   C721    1.452   .     S
C691   C722    1.395   .     A
C691   C693    1.384   .     A
C692   C694    1.388   .     A
C692   C720    1.470   .     S
C693   H731    1.082   .     S
C693   C695    1.398   .     A
C694   H742    1.079   .     S
C694   C696    1.403   .     A
C695   C702    1.405   .     A
C695   C697    1.414   .     A
C696   C703    1.410   .     A
C696   C698    1.411   .     A
C697   C699    1.432   .     A
C697   C784    1.413   .     S
C698   C701    1.429   .     A
C698   C783    1.413   1_455 S
C699   C722    1.417   .     A
C699   C717    1.419   .     A
C700   O767    1.309   .     A
C700   O769    1.309   .     A
C700   C719    1.443   .     S
C701   C711    1.423   .     A
C702   Cl725   1.769   .     S
C702   C797    1.406   .     S
C703   Cl726   1.743   .     S
C703   C803    1.403   1_455 S
C704   O774    1.413   .     S
C704   H755    1.106   .     S
C704   H753    1.099   .     S
C705   H756    1.112   .     S
C705   C706    1.525   .     S
C705   C876    1.534   .     S
C706   H758    1.107   .     S
C706   H760    1.109   .     S
C706   H759    1.110   .     S
C707   C708    1.531   .     S
C707   H732    1.100   .     S
C707   H733    1.104   .     S
C708   H735    1.107   .     S
C708   C709    1.517   .     S
C708   H734    1.110   .     S
C709   H737    1.108   .     S
C709   H736    1.109   .     S
C709   H738    1.110   .     S
C710   C712    1.515   .     S
C710   O765    1.394   .     S
C710   H739    1.114   .     S
C710   H1256   1.105   .     S
C711   O774    1.385   .     S
C711   C788    1.406   1_455 S
C712   H743    1.110   .     S
C712   C713    1.505   .     S
C712   H741    1.109   .     S
C713   H746    1.105   .     S
C713   H1260   1.101   .     S
C714   C715    1.531   .     S
C714   O766    1.413   .     S
C714   H747    1.111   .     S
C715   H749    1.106   .     S
C715   H750    1.108   .     S
C715   C716    1.523   .     S
C716   H754    1.106   .     S
C716   H751    1.111   .     S
C717   O764    1.393   .     S
C717   C789    1.403   .     S
C719   C890    1.349   .     S
C719   Cl900   1.776   .     S
C720   O772    1.310   .     A
C720   O770    1.320   .     A
C721   O773    1.313   .     A
C721   O771    1.308   .     A
C722   Cl723   1.764   .     S
Cl727  C890    1.766   .     S
Cu729  Cu730   2.746   .     S
Cu729  N762    2.063   .     S
Cu729  O763    1.994   .     S
Cu729  O769    1.981   .     S
Cu729  O773    1.957   .     S
Cu729  O770    1.977   .     S
Cu730  O768    1.981   .     S
Cu730  O767    1.994   .     S
Cu730  O772    1.957   .     S
Cu730  N761    2.063   .     S
Cu730  O771    1.977   .     S
H745   C885    1.104   .     S
H748   C1230   1.092   .     S
H752   C1232   1.106   .     S
H757   C1221   1.108   .     S
N762   N1277   1.316   .     S
N762   O1282   1.348   .     S
O764   C879    1.417   .     S
O765   N1277   1.336   .     S
C775   O849    1.308   .     A
C775   C804    1.439   .     S
C775   O854    1.309   .     A
C776   C778    1.405   .     A
C776   C787    1.427   .     A
C776   Cl810   1.769   .     S
C777   C807    1.452   .     S
C777   C808    1.395   .     A
C777   C779    1.384   .     A
C778   C780    1.388   .     A
C778   C806    1.470   .     S
C779   H817    1.082   .     S
C779   C781    1.398   .     A
C780   H828    1.079   .     S
C780   C782    1.403   .     A
C781   C788    1.405   .     A
C781   C783    1.414   .     A
C782   C789    1.410   .     A
C782   C784    1.411   .     A
C783   C785    1.432   .     A
C783   C698    1.413   1_655 S
C784   C787    1.429   .     A
C785   C808    1.417   .     A
C785   C803    1.419   .     A
C786   O853    1.309   .     A
C786   O855    1.309   .     A
C786   C805    1.443   .     S
C787   C797    1.423   .     A
C788   Cl811   1.769   .     S
C788   C711    1.406   1_655 S
C789   Cl812   1.743   .     S
C790   O860    1.413   .     S
C790   H841    1.106   .     S
C790   H839    1.099   .     S
C791   H842    1.112   .     S
C791   C792    1.525   .     S
C791   C962    1.534   .     S
C792   H844    1.107   .     S
C792   H846    1.109   .     S
C792   H845    1.110   .     S
C793   C794    1.531   .     S
C793   H818    1.100   .     S
C793   H819    1.104   .     S
C794   H821    1.107   .     S
C794   C795    1.517   .     S
C794   H820    1.110   .     S
C795   H823    1.108   .     S
C795   H822    1.109   .     S
C795   H824    1.110   .     S
C796   C798    1.515   .     S
C796   O851    1.394   .     S
C796   H825    1.114   .     S
C796   H1342   1.105   .     S
C797   O860    1.385   .     S
C798   H829    1.110   .     S
C798   C799    1.505   .     S
C798   H827    1.109   .     S
C799   H832    1.105   .     S
C799   H1346   1.101   .     S
C800   C801    1.531   .     S
C800   O852    1.413   .     S
C800   H833    1.111   .     S
C801   H835    1.106   .     S
C801   H836    1.108   .     S
C801   C802    1.523   .     S
C802   H840    1.106   .     S
C802   H837    1.111   .     S
C803   O850    1.393   .     S
C803   C703    1.403   1_655 S
C805   C976    1.349   .     S
C805   Cl986   1.776   .     S
C806   O858    1.310   .     A
C806   O856    1.320   .     A
C807   O859    1.313   .     A
C807   O857    1.308   .     A
C808   Cl809   1.764   .     S
Cl813  C976    1.766   .     S
Cu815  Cu816   2.746   .     S
Cu815  N848    2.063   .     S
Cu815  O849    1.994   .     S
Cu815  O855    1.981   .     S
Cu815  O859    1.957   .     S
Cu815  O856    1.977   .     S
Cu816  O854    1.981   .     S
Cu816  O853    1.994   .     S
Cu816  O858    1.957   .     S
Cu816  N847    2.063   .     S
Cu816  O857    1.977   .     S
H831   C971    1.104   .     S
H834   C1316   1.092   .     S
H838   C1318   1.106   .     S
H843   C1307   1.108   .     S
N848   N1363   1.316   .     S
N848   O1368   1.348   .     S
O850   C965    1.417   .     S
O851   N1363   1.336   .     S
C861   O935    1.308   .     A
C861   C890    1.439   .     S
C861   O940    1.309   .     A
C862   C864    1.405   .     A
C862   C873    1.427   .     A
C862   Cl896   1.769   .     S
C863   C893    1.452   .     S
C863   C894    1.395   .     A
C863   C865    1.384   .     A
C864   C866    1.388   .     A
C864   C892    1.470   .     S
C865   H903    1.082   .     S
C865   C867    1.398   .     A
C866   H914    1.079   .     S
C866   C868    1.403   .     A
C867   C874    1.405   .     A
C867   C869    1.414   .     A
C868   C875    1.410   .     A
C868   C870    1.411   .     A
C869   C871    1.432   .     A
C869   C956    1.413   .     S
C870   C873    1.429   .     A
C870   C955    1.413   1_455 S
C871   C894    1.417   .     A
C871   C889    1.419   .     A
C872   O939    1.309   .     A
C872   O941    1.309   .     A
C872   C891    1.443   .     S
C873   C883    1.423   .     A
C874   Cl897   1.769   .     S
C874   C969    1.406   .     S
C875   Cl898   1.743   .     S
C875   C975    1.403   1_455 S
C876   O946    1.413   .     S
C876   H927    1.106   .     S
C876   H925    1.099   .     S
C877   H928    1.112   .     S
C877   C878    1.525   .     S
C877   C532    1.534   1_565 S
C878   H930    1.107   .     S
C878   H932    1.109   .     S
C878   H931    1.110   .     S
C879   C880    1.531   .     S
C879   H904    1.100   .     S
C879   H905    1.104   .     S
C880   H907    1.107   .     S
C880   C881    1.517   .     S
C880   H906    1.110   .     S
C881   H909    1.108   .     S
C881   H908    1.109   .     S
C881   H910    1.110   .     S
C882   C884    1.515   .     S
C882   O937    1.394   .     S
C882   H911    1.114   .     S
C882   H1428   1.105   .     S
C883   O946    1.385   .     S
C883   C960    1.406   1_455 S
C884   H915    1.110   .     S
C884   C885    1.505   .     S
C884   H913    1.109   .     S
C885   H918    1.105   .     S
C885   H1432   1.101   .     S
C886   C887    1.531   .     S
C886   O938    1.413   .     S
C886   H919    1.111   .     S
C887   H921    1.106   .     S
C887   H922    1.108   .     S
C887   C888    1.523   .     S
C888   H926    1.106   .     S
C888   H923    1.111   .     S
C889   O936    1.393   .     S
C889   C961    1.403   .     S
C891   C546    1.349   1_565 S
C891   Cl556   1.776   1_565 S
C892   O944    1.310   .     A
C892   O942    1.320   .     A
C893   O945    1.313   .     A
C893   O943    1.308   .     A
C894   Cl895   1.764   .     S
Cl899  C546    1.766   1_565 S
Cu901  Cu902   2.746   .     S
Cu901  N934    2.063   .     S
Cu901  O935    1.994   .     S
Cu901  O941    1.981   .     S
Cu901  O945    1.957   .     S
Cu901  O942    1.977   .     S
Cu902  O940    1.981   .     S
Cu902  O939    1.994   .     S
Cu902  O944    1.957   .     S
Cu902  N933    2.063   .     S
Cu902  O943    1.977   .     S
H917   C541    1.104   1_565 S
H920   C1402   1.092   .     S
H924   C1404   1.106   .     S
H929   C1393   1.108   .     S
N934   N1449   1.316   .     S
N934   O1454   1.348   .     S
O936   C535    1.417   1_565 S
O937   N1449   1.336   .     S
C947   O1021   1.308   .     A
C947   C976    1.439   .     S
C947   O1026   1.309   .     A
C948   C950    1.405   .     A
C948   C959    1.427   .     A
C948   Cl982   1.769   .     S
C949   C979    1.452   .     S
C949   C980    1.395   .     A
C949   C951    1.384   .     A
C950   C952    1.388   .     A
C950   C978    1.470   .     S
C951   H989    1.082   .     S
C951   C953    1.398   .     A
C952   H1000   1.079   .     S
C952   C954    1.403   .     A
C953   C960    1.405   .     A
C953   C955    1.414   .     A
C954   C961    1.410   .     A
C954   C956    1.411   .     A
C955   C957    1.432   .     A
C955   C870    1.413   1_655 S
C956   C959    1.429   .     A
C957   C980    1.417   .     A
C957   C975    1.419   .     A
C958   O1025   1.309   .     A
C958   O1027   1.309   .     A
C958   C977    1.443   .     S
C959   C969    1.423   .     A
C960   Cl983   1.769   .     S
C960   C883    1.406   1_655 S
C961   Cl984   1.743   .     S
C962   O1032   1.413   .     S
C962   H1013   1.106   .     S
C962   H1011   1.099   .     S
C963   H1014   1.112   .     S
C963   C964    1.525   .     S
C963   C618    1.534   1_565 S
C964   H1016   1.107   .     S
C964   H1018   1.109   .     S
C964   H1017   1.110   .     S
C965   C966    1.531   .     S
C965   H990    1.100   .     S
C965   H991    1.104   .     S
C966   H993    1.107   .     S
C966   C967    1.517   .     S
C966   H992    1.110   .     S
C967   H995    1.108   .     S
C967   H994    1.109   .     S
C967   H996    1.110   .     S
C968   C970    1.515   .     S
C968   O1023   1.394   .     S
C968   H997    1.114   .     S
C968   H1514   1.105   .     S
C969   O1032   1.385   .     S
C970   H1001   1.110   .     S
C970   C971    1.505   .     S
C970   H999    1.109   .     S
C971   H1004   1.105   .     S
C971   H1518   1.101   .     S
C972   C973    1.531   .     S
C972   O1024   1.413   .     S
C972   H1005   1.111   .     S
C973   H1007   1.106   .     S
C973   H1008   1.108   .     S
C973   C974    1.523   .     S
C974   H1012   1.106   .     S
C974   H1009   1.111   .     S
C975   O1022   1.393   .     S
C975   C875    1.403   1_655 S
C977   C632    1.349   1_565 S
C977   Cl642   1.776   1_565 S
C978   O1030   1.310   .     A
C978   O1028   1.320   .     A
C979   O1031   1.313   .     A
C979   O1029   1.308   .     A
C980   Cl981   1.764   .     S
Cl985  C632    1.766   1_565 S
Cu987  Cu988   2.746   .     S
Cu987  N1020   2.063   .     S
Cu987  O1021   1.994   .     S
Cu987  O1027   1.981   .     S
Cu987  O1031   1.957   .     S
Cu987  O1028   1.977   .     S
Cu988  O1026   1.981   .     S
Cu988  O1025   1.994   .     S
Cu988  O1030   1.957   .     S
Cu988  N1019   2.063   .     S
Cu988  O1029   1.977   .     S
H1003  C627    1.104   1_565 S
H1006  C1488   1.092   .     S
H1010  C1490   1.106   .     S
H1015  C1479   1.108   .     S
N1020  N1535   1.316   .     S
N1020  O1540   1.348   .     S
O1022  C621    1.417   1_565 S
O1023  N1535   1.336   .     S
C1033  O1107   1.308   .     A
C1033  C1062   1.439   .     S
C1033  O1112   1.309   .     A
C1034  C1036   1.405   .     A
C1034  C1045   1.427   .     A
C1034  Cl1068  1.769   .     S
C1035  C1065   1.452   .     S
C1035  C1066   1.395   .     A
C1035  C1037   1.384   .     A
C1036  C1038   1.388   .     A
C1036  C1064   1.470   .     S
C1037  H1075   1.082   .     S
C1037  C1039   1.398   .     A
C1038  H1086   1.079   .     S
C1038  C1040   1.403   .     A
C1039  C1046   1.405   .     A
C1039  C1041   1.414   .     A
C1040  C1047   1.410   .     A
C1040  C1042   1.411   .     A
C1041  C1043   1.432   .     A
C1041  C1128   1.413   .     S
C1042  C1045   1.429   .     A
C1042  C1127   1.413   1_455 S
C1043  C1066   1.417   .     A
C1043  C1061   1.419   .     A
C1044  O1111   1.309   .     A
C1044  O1113   1.309   .     A
C1044  C1063   1.443   .     S
C1045  C1055   1.423   .     A
C1046  Cl1069  1.769   .     S
C1046  C1141   1.406   .     S
C1047  Cl1070  1.743   .     S
C1047  C1147   1.403   1_455 S
C1048  O1118   1.413   .     S
C1048  H1099   1.106   .     S
C1048  H1097   1.099   .     S
C1048  C1393   1.534   1_545 S
C1049  H1100   1.112   .     S
C1049  C1050   1.525   .     S
C1049  C1220   1.534   .     S
C1050  H1102   1.107   .     S
C1050  H1104   1.109   .     S
C1050  H1103   1.110   .     S
C1051  C1052   1.531   .     S
C1051  H1076   1.100   .     S
C1051  H1077   1.104   .     S
C1051  O1452   1.417   1_545 S
C1052  H1079   1.107   .     S
C1052  C1053   1.517   .     S
C1052  H1078   1.110   .     S
C1053  H1081   1.108   .     S
C1053  H1080   1.109   .     S
C1053  H1082   1.110   .     S
C1054  C1056   1.515   .     S
C1054  O1109   1.394   .     S
C1054  H1083   1.114   .     S
C1054  H52     1.105   1_556 S
C1055  O1118   1.385   .     S
C1055  C1132   1.406   1_455 S
C1056  H1087   1.110   .     S
C1056  C1057   1.505   .     S
C1056  H1085   1.109   .     S
C1057  H1090   1.105   .     S
C1057  H56     1.101   1_556 S
C1057  H1433   1.104   1_545 S
C1058  C1059   1.531   .     S
C1058  O1110   1.413   .     S
C1058  H1091   1.111   .     S
C1059  H1093   1.106   .     S
C1059  H1094   1.108   .     S
C1059  C1060   1.523   .     S
C1060  H1098   1.106   .     S
C1060  H1095   1.111   .     S
C1061  O1108   1.393   .     S
C1061  C1133   1.403   .     S
C1062  C1407   1.349   1_545 S
C1062  Cl1415  1.766   1_545 S
C1063  C1234   1.349   .     S
C1063  Cl1244  1.776   .     S
C1064  O1116   1.310   .     A
C1064  O1114   1.320   .     A
C1065  O1117   1.313   .     A
C1065  O1115   1.308   .     A
C1066  Cl1067  1.764   .     S
Cl1071 C1234   1.766   .     S
Cl1072 C1407   1.776   1_545 S
Cu1073 Cu1074  2.746   .     S
Cu1073 N1106   2.063   .     S
Cu1073 O1107   1.994   .     S
Cu1073 O1113   1.981   .     S
Cu1073 O1117   1.957   .     S
Cu1073 O1114   1.977   .     S
Cu1074 O1112   1.981   .     S
Cu1074 O1111   1.994   .     S
Cu1074 O1116   1.957   .     S
Cu1074 N1105   2.063   .     S
Cu1074 O1115   1.977   .     S
H1089  C1229   1.104   .     S
H1092  C26     1.092   1_556 S
H1096  C28     1.106   1_556 S
H1101  C17     1.108   1_556 S
N1106  N73     1.316   1_556 S
N1106  O78     1.348   1_556 S
O1108  C1223   1.417   .     S
O1109  N73     1.336   1_556 S
C1119  O1193   1.308   .     A
C1119  C1148   1.439   .     S
C1119  O1198   1.309   .     A
C1120  C1122   1.405   .     A
C1120  C1131   1.427   .     A
C1120  Cl1154  1.769   .     S
C1121  C1151   1.452   .     S
C1121  C1152   1.395   .     A
C1121  C1123   1.384   .     A
C1122  C1124   1.388   .     A
C1122  C1150   1.470   .     S
C1123  H1161   1.082   .     S
C1123  C1125   1.398   .     A
C1124  H1172   1.079   .     S
C1124  C1126   1.403   .     A
C1125  C1132   1.405   .     A
C1125  C1127   1.414   .     A
C1126  C1133   1.410   .     A
C1126  C1128   1.411   .     A
C1127  C1129   1.432   .     A
C1127  C1042   1.413   1_655 S
C1128  C1131   1.429   .     A
C1129  C1152   1.417   .     A
C1129  C1147   1.419   .     A
C1130  O1197   1.309   .     A
C1130  O1199   1.309   .     A
C1130  C1149   1.443   .     S
C1131  C1141   1.423   .     A
C1132  Cl1155  1.769   .     S
C1132  C1055   1.406   1_655 S
C1133  Cl1156  1.743   .     S
C1134  O1204   1.413   .     S
C1134  H1185   1.106   .     S
C1134  H1183   1.099   .     S
C1134  C1479   1.534   1_545 S
C1135  H1186   1.112   .     S
C1135  C1136   1.525   .     S
C1135  C1306   1.534   .     S
C1136  H1188   1.107   .     S
C1136  H1190   1.109   .     S
C1136  H1189   1.110   .     S
C1137  C1138   1.531   .     S
C1137  H1162   1.100   .     S
C1137  H1163   1.104   .     S
C1137  O1538   1.417   1_545 S
C1138  H1165   1.107   .     S
C1138  C1139   1.517   .     S
C1138  H1164   1.110   .     S
C1139  H1167   1.108   .     S
C1139  H1166   1.109   .     S
C1139  H1168   1.110   .     S
C1140  C1142   1.515   .     S
C1140  O1195   1.394   .     S
C1140  H1169   1.114   .     S
C1140  H138    1.105   1_556 S
C1141  O1204   1.385   .     S
C1142  H1173   1.110   .     S
C1142  C1143   1.505   .     S
C1142  H1171   1.109   .     S
C1143  H1176   1.105   .     S
C1143  H142    1.101   1_556 S
C1143  H1519   1.104   1_545 S
C1144  C1145   1.531   .     S
C1144  O1196   1.413   .     S
C1144  H1177   1.111   .     S
C1145  H1179   1.106   .     S
C1145  H1180   1.108   .     S
C1145  C1146   1.523   .     S
C1146  H1184   1.106   .     S
C1146  H1181   1.111   .     S
C1147  O1194   1.393   .     S
C1147  C1047   1.403   1_655 S
C1148  C1493   1.349   1_545 S
C1148  Cl1501  1.766   1_545 S
C1149  C1320   1.349   .     S
C1149  Cl1330  1.776   .     S
C1150  O1202   1.310   .     A
C1150  O1200   1.320   .     A
C1151  O1203   1.313   .     A
C1151  O1201   1.308   .     A
C1152  Cl1153  1.764   .     S
Cl1157 C1320   1.766   .     S
Cl1158 C1493   1.776   1_545 S
Cu1159 Cu1160  2.746   .     S
Cu1159 N1192   2.063   .     S
Cu1159 O1193   1.994   .     S
Cu1159 O1199   1.981   .     S
Cu1159 O1203   1.957   .     S
Cu1159 O1200   1.977   .     S
Cu1160 O1198   1.981   .     S
Cu1160 O1197   1.994   .     S
Cu1160 O1202   1.957   .     S
Cu1160 N1191   2.063   .     S
Cu1160 O1201   1.977   .     S
H1175  C1315   1.104   .     S
H1178  C112    1.092   1_556 S
H1182  C114    1.106   1_556 S
H1187  C103    1.108   1_556 S
N1192  N159    1.316   1_556 S
N1192  O164    1.348   1_556 S
O1194  C1309   1.417   .     S
O1195  N159    1.336   1_556 S
C1205  O1279   1.308   .     A
C1205  C1234   1.439   .     S
C1205  O1284   1.309   .     A
C1206  C1208   1.405   .     A
C1206  C1217   1.427   .     A
C1206  Cl1240  1.769   .     S
C1207  C1237   1.452   .     S
C1207  C1238   1.395   .     A
C1207  C1209   1.384   .     A
C1208  C1210   1.388   .     A
C1208  C1236   1.470   .     S
C1209  H1247   1.082   .     S
C1209  C1211   1.398   .     A
C1210  H1258   1.079   .     S
C1210  C1212   1.403   .     A
C1211  C1218   1.405   .     A
C1211  C1213   1.414   .     A
C1212  C1219   1.410   .     A
C1212  C1214   1.411   .     A
C1213  C1215   1.432   .     A
C1213  C1300   1.413   .     S
C1214  C1217   1.429   .     A
C1214  C1299   1.413   1_455 S
C1215  C1238   1.417   .     A
C1215  C1233   1.419   .     A
C1216  O1283   1.309   .     A
C1216  O1285   1.309   .     A
C1216  C1235   1.443   .     S
C1217  C1227   1.423   .     A
C1218  Cl1241  1.769   .     S
C1218  C1313   1.406   .     S
C1219  Cl1242  1.743   .     S
C1219  C1319   1.403   1_455 S
C1220  O1290   1.413   .     S
C1220  H1271   1.106   .     S
C1220  H1269   1.099   .     S
C1221  H1272   1.112   .     S
C1221  C1222   1.525   .     S
C1221  C1392   1.534   .     S
C1222  H1274   1.107   .     S
C1222  H1276   1.109   .     S
C1222  H1275   1.110   .     S
C1223  C1224   1.531   .     S
C1223  H1248   1.100   .     S
C1223  H1249   1.104   .     S
C1224  H1251   1.107   .     S
C1224  C1225   1.517   .     S
C1224  H1250   1.110   .     S
C1225  H1253   1.108   .     S
C1225  H1252   1.109   .     S
C1225  H1254   1.110   .     S
C1226  C1228   1.515   .     S
C1226  O1281   1.394   .     S
C1226  H1255   1.114   .     S
C1226  H224    1.105   1_556 S
C1227  O1290   1.385   .     S
C1227  C1304   1.406   1_455 S
C1228  H1259   1.110   .     S
C1228  C1229   1.505   .     S
C1228  H1257   1.109   .     S
C1229  H1262   1.105   .     S
C1229  H228    1.101   1_556 S
C1230  C1231   1.531   .     S
C1230  O1282   1.413   .     S
C1230  H1263   1.111   .     S
C1231  H1265   1.106   .     S
C1231  H1266   1.108   .     S
C1231  C1232   1.523   .     S
C1232  H1270   1.106   .     S
C1232  H1267   1.111   .     S
C1233  O1280   1.393   .     S
C1233  C1305   1.403   .     S
C1235  C1406   1.349   .     S
C1235  Cl1416  1.776   .     S
C1236  O1288   1.310   .     A
C1236  O1286   1.320   .     A
C1237  O1289   1.313   .     A
C1237  O1287   1.308   .     A
C1238  Cl1239  1.764   .     S
Cl1243 C1406   1.766   .     S
Cu1245 Cu1246  2.746   .     S
Cu1245 N1278   2.063   .     S
Cu1245 O1279   1.994   .     S
Cu1245 O1285   1.981   .     S
Cu1245 O1289   1.957   .     S
Cu1245 O1286   1.977   .     S
Cu1246 O1284   1.981   .     S
Cu1246 O1283   1.994   .     S
Cu1246 O1288   1.957   .     S
Cu1246 N1277   2.063   .     S
Cu1246 O1287   1.977   .     S
H1261  C1401   1.104   .     S
H1264  C198    1.092   1_556 S
H1268  C200    1.106   1_556 S
H1273  C189    1.108   1_556 S
N1278  N245    1.316   1_556 S
N1278  O250    1.348   1_556 S
O1280  C1395   1.417   .     S
O1281  N245    1.336   1_556 S
C1291  O1365   1.308   .     A
C1291  C1320   1.439   .     S
C1291  O1370   1.309   .     A
C1292  C1294   1.405   .     A
C1292  C1303   1.427   .     A
C1292  Cl1326  1.769   .     S
C1293  C1323   1.452   .     S
C1293  C1324   1.395   .     A
C1293  C1295   1.384   .     A
C1294  C1296   1.388   .     A
C1294  C1322   1.470   .     S
C1295  H1333   1.082   .     S
C1295  C1297   1.398   .     A
C1296  H1344   1.079   .     S
C1296  C1298   1.403   .     A
C1297  C1304   1.405   .     A
C1297  C1299   1.414   .     A
C1298  C1305   1.410   .     A
C1298  C1300   1.411   .     A
C1299  C1301   1.432   .     A
C1299  C1214   1.413   1_655 S
C1300  C1303   1.429   .     A
C1301  C1324   1.417   .     A
C1301  C1319   1.419   .     A
C1302  O1369   1.309   .     A
C1302  O1371   1.309   .     A
C1302  C1321   1.443   .     S
C1303  C1313   1.423   .     A
C1304  Cl1327  1.769   .     S
C1304  C1227   1.406   1_655 S
C1305  Cl1328  1.743   .     S
C1306  O1376   1.413   .     S
C1306  H1357   1.106   .     S
C1306  H1355   1.099   .     S
C1307  H1358   1.112   .     S
C1307  C1308   1.525   .     S
C1307  C1478   1.534   .     S
C1308  H1360   1.107   .     S
C1308  H1362   1.109   .     S
C1308  H1361   1.110   .     S
C1309  C1310   1.531   .     S
C1309  H1334   1.100   .     S
C1309  H1335   1.104   .     S
C1310  H1337   1.107   .     S
C1310  C1311   1.517   .     S
C1310  H1336   1.110   .     S
C1311  H1339   1.108   .     S
C1311  H1338   1.109   .     S
C1311  H1340   1.110   .     S
C1312  C1314   1.515   .     S
C1312  O1367   1.394   .     S
C1312  H1341   1.114   .     S
C1312  H310    1.105   1_556 S
C1313  O1376   1.385   .     S
C1314  H1345   1.110   .     S
C1314  C1315   1.505   .     S
C1314  H1343   1.109   .     S
C1315  H1348   1.105   .     S
C1315  H314    1.101   1_556 S
C1316  C1317   1.531   .     S
C1316  O1368   1.413   .     S
C1316  H1349   1.111   .     S
C1317  H1351   1.106   .     S
C1317  H1352   1.108   .     S
C1317  C1318   1.523   .     S
C1318  H1356   1.106   .     S
C1318  H1353   1.111   .     S
C1319  O1366   1.393   .     S
C1319  C1219   1.403   1_655 S
C1321  C1492   1.349   .     S
C1321  Cl1502  1.776   .     S
C1322  O1374   1.310   .     A
C1322  O1372   1.320   .     A
C1323  O1375   1.313   .     A
C1323  O1373   1.308   .     A
C1324  Cl1325  1.764   .     S
Cl1329 C1492   1.766   .     S
Cu1331 Cu1332  2.746   .     S
Cu1331 N1364   2.063   .     S
Cu1331 O1365   1.994   .     S
Cu1331 O1371   1.981   .     S
Cu1331 O1375   1.957   .     S
Cu1331 O1372   1.977   .     S
Cu1332 O1370   1.981   .     S
Cu1332 O1369   1.994   .     S
Cu1332 O1374   1.957   .     S
Cu1332 N1363   2.063   .     S
Cu1332 O1373   1.977   .     S
H1347  C1487   1.104   .     S
H1350  C284    1.092   1_556 S
H1354  C286    1.106   1_556 S
H1359  C275    1.108   1_556 S
N1364  N331    1.316   1_556 S
N1364  O336    1.348   1_556 S
O1366  C1481   1.417   .     S
O1367  N331    1.336   1_556 S
C1377  O1451   1.308   .     A
C1377  C1406   1.439   .     S
C1377  O1456   1.309   .     A
C1378  C1380   1.405   .     A
C1378  C1389   1.427   .     A
C1378  Cl1412  1.769   .     S
C1379  C1409   1.452   .     S
C1379  C1410   1.395   .     A
C1379  C1381   1.384   .     A
C1380  C1382   1.388   .     A
C1380  C1408   1.470   .     S
C1381  H1419   1.082   .     S
C1381  C1383   1.398   .     A
C1382  H1430   1.079   .     S
C1382  C1384   1.403   .     A
C1383  C1390   1.405   .     A
C1383  C1385   1.414   .     A
C1384  C1391   1.410   .     A
C1384  C1386   1.411   .     A
C1385  C1387   1.432   .     A
C1385  C1472   1.413   .     S
C1386  C1389   1.429   .     A
C1386  C1471   1.413   1_455 S
C1387  C1410   1.417   .     A
C1387  C1405   1.419   .     A
C1388  O1455   1.309   .     A
C1388  O1457   1.309   .     A
C1388  C1407   1.443   .     S
C1389  C1399   1.423   .     A
C1390  Cl1413  1.769   .     S
C1390  C1485   1.406   .     S
C1391  Cl1414  1.743   .     S
C1391  C1491   1.403   1_455 S
C1392  O1462   1.413   .     S
C1392  H1443   1.106   .     S
C1392  H1441   1.099   .     S
C1393  H1444   1.112   .     S
C1393  C1394   1.525   .     S
C1393  C1048   1.534   1_565 S
C1394  H1446   1.107   .     S
C1394  H1448   1.109   .     S
C1394  H1447   1.110   .     S
C1395  C1396   1.531   .     S
C1395  H1420   1.100   .     S
C1395  H1421   1.104   .     S
C1396  H1423   1.107   .     S
C1396  C1397   1.517   .     S
C1396  H1422   1.110   .     S
C1397  H1425   1.108   .     S
C1397  H1424   1.109   .     S
C1397  H1426   1.110   .     S
C1398  C1400   1.515   .     S
C1398  O1453   1.394   .     S
C1398  H1427   1.114   .     S
C1398  H396    1.105   1_556 S
C1399  O1462   1.385   .     S
C1399  C1476   1.406   1_455 S
C1400  H1431   1.110   .     S
C1400  C1401   1.505   .     S
C1400  H1429   1.109   .     S
C1401  H1434   1.105   .     S
C1401  H400    1.101   1_556 S
C1402  C1403   1.531   .     S
C1402  O1454   1.413   .     S
C1402  H1435   1.111   .     S
C1403  H1437   1.106   .     S
C1403  H1438   1.108   .     S
C1403  C1404   1.523   .     S
C1404  H1442   1.106   .     S
C1404  H1439   1.111   .     S
C1405  O1452   1.393   .     S
C1405  C1477   1.403   .     S
C1407  C1062   1.349   1_565 S
C1407  Cl1072  1.776   1_565 S
C1408  O1460   1.310   .     A
C1408  O1458   1.320   .     A
C1409  O1461   1.313   .     A
C1409  O1459   1.308   .     A
C1410  Cl1411  1.764   .     S
Cl1415 C1062   1.766   1_565 S
Cu1417 Cu1418  2.746   .     S
Cu1417 N1450   2.063   .     S
Cu1417 O1451   1.994   .     S
Cu1417 O1457   1.981   .     S
Cu1417 O1461   1.957   .     S
Cu1417 O1458   1.977   .     S
Cu1418 O1456   1.981   .     S
Cu1418 O1455   1.994   .     S
Cu1418 O1460   1.957   .     S
Cu1418 N1449   2.063   .     S
Cu1418 O1459   1.977   .     S
H1433  C1057   1.104   1_565 S
H1436  C370    1.092   1_556 S
H1440  C372    1.106   1_556 S
H1445  C361    1.108   1_556 S
N1450  N417    1.316   1_556 S
N1450  O422    1.348   1_556 S
O1452  C1051   1.417   1_565 S
O1453  N417    1.336   1_556 S
C1463  O1537   1.308   .     A
C1463  C1492   1.439   .     S
C1463  O1542   1.309   .     A
C1464  C1466   1.405   .     A
C1464  C1475   1.427   .     A
C1464  Cl1498  1.769   .     S
C1465  C1495   1.452   .     S
C1465  C1496   1.395   .     A
C1465  C1467   1.384   .     A
C1466  C1468   1.388   .     A
C1466  C1494   1.470   .     S
C1467  H1505   1.082   .     S
C1467  C1469   1.398   .     A
C1468  H1516   1.079   .     S
C1468  C1470   1.403   .     A
C1469  C1476   1.405   .     A
C1469  C1471   1.414   .     A
C1470  C1477   1.410   .     A
C1470  C1472   1.411   .     A
C1471  C1473   1.432   .     A
C1471  C1386   1.413   1_655 S
C1472  C1475   1.429   .     A
C1473  C1496   1.417   .     A
C1473  C1491   1.419   .     A
C1474  O1541   1.309   .     A
C1474  O1543   1.309   .     A
C1474  C1493   1.443   .     S
C1475  C1485   1.423   .     A
C1476  Cl1499  1.769   .     S
C1476  C1399   1.406   1_655 S
C1477  Cl1500  1.743   .     S
C1478  O1548   1.413   .     S
C1478  H1529   1.106   .     S
C1478  H1527   1.099   .     S
C1479  H1530   1.112   .     S
C1479  C1480   1.525   .     S
C1479  C1134   1.534   1_565 S
C1480  H1532   1.107   .     S
C1480  H1534   1.109   .     S
C1480  H1533   1.110   .     S
C1481  C1482   1.531   .     S
C1481  H1506   1.100   .     S
C1481  H1507   1.104   .     S
C1482  H1509   1.107   .     S
C1482  C1483   1.517   .     S
C1482  H1508   1.110   .     S
C1483  H1511   1.108   .     S
C1483  H1510   1.109   .     S
C1483  H1512   1.110   .     S
C1484  C1486   1.515   .     S
C1484  O1539   1.394   .     S
C1484  H1513   1.114   .     S
C1484  H482    1.105   1_556 S
C1485  O1548   1.385   .     S
C1486  H1517   1.110   .     S
C1486  C1487   1.505   .     S
C1486  H1515   1.109   .     S
C1487  H1520   1.105   .     S
C1487  H486    1.101   1_556 S
C1488  C1489   1.531   .     S
C1488  O1540   1.413   .     S
C1488  H1521   1.111   .     S
C1489  H1523   1.106   .     S
C1489  H1524   1.108   .     S
C1489  C1490   1.523   .     S
C1490  H1528   1.106   .     S
C1490  H1525   1.111   .     S
C1491  O1538   1.393   .     S
C1491  C1391   1.403   1_655 S
C1493  C1148   1.349   1_565 S
C1493  Cl1158  1.776   1_565 S
C1494  O1546   1.310   .     A
C1494  O1544   1.320   .     A
C1495  O1547   1.313   .     A
C1495  O1545   1.308   .     A
C1496  Cl1497  1.764   .     S
Cl1501 C1148   1.766   1_565 S
Cu1503 Cu1504  2.746   .     S
Cu1503 N1536   2.063   .     S
Cu1503 O1537   1.994   .     S
Cu1503 O1543   1.981   .     S
Cu1503 O1547   1.957   .     S
Cu1503 O1544   1.977   .     S
Cu1504 O1542   1.981   .     S
Cu1504 O1541   1.994   .     S
Cu1504 O1546   1.957   .     S
Cu1504 N1535   2.063   .     S
Cu1504 O1545   1.977   .     S
H1519  C1143   1.104   1_565 S
H1522  C456    1.092   1_556 S
H1526  C458    1.106   1_556 S
H1531  C447    1.108   1_556 S
N1536  N503    1.316   1_556 S
N1536  O508    1.348   1_556 S
O1538  C1137   1.417   1_565 S
O1539  N503    1.336   1_556 S
