data_str_m2_o1_o10_pcu_sym.81
_audit_creation_date              2020-01-03
_audit_creation_method            'Materials Studio'
_symmetry_space_group_name_H-M    'P1'
_symmetry_Int_Tables_number       1
_symmetry_cell_setting            triclinic
loop_
_symmetry_equiv_pos_as_xyz
  x,y,z
_cell_length_a                    26.6449
_cell_length_b                    32.4527
_cell_length_c                    28.6591
_cell_angle_alpha                 90.8500
_cell_angle_beta                  98.1736
_cell_angle_gamma                 91.6945
loop_
_atom_site_label
_atom_site_type_symbol
_atom_site_fract_x
_atom_site_fract_y
_atom_site_fract_z
_atom_site_U_iso_or_equiv
_atom_site_adp_type
_atom_site_occupancy
C1     C     0.16652   0.08740   0.16644   0.00000  Uiso   1.00
C2     C     0.15664   0.02164   0.20662   0.00000  Uiso   1.00
C3     C     0.16689   0.29057   0.16698   0.00000  Uiso   1.00
C4     C     0.16644   0.04276   0.16636   0.00000  Uiso   1.00
C5     C     0.13815   0.13794   0.01966   0.00000  Uiso   1.00
C6     C     0.19518   0.19539   0.31368   0.00000  Uiso   1.00
C7     C     0.13887   0.13794   0.30384   0.00000  Uiso   1.00
C8     C     0.19446   0.19539   0.02949   0.00000  Uiso   1.00
C9     C     0.16681   0.24594   0.16690   0.00000  Uiso   1.00
C10    C     0.06812   0.16662   0.15473   0.00000  Uiso   1.00
C11    C     0.26521   0.16671   0.17861   0.00000  Uiso   1.00
C12    C     0.01329   0.16584   0.14794   0.00000  Uiso   1.00
C13    C     0.32005   0.16750   0.18539   0.00000  Uiso   1.00
C14    C     0.17650   0.02097   0.12643   0.00000  Uiso   1.00
C15    C     0.15683   0.31237   0.20691   0.00000  Uiso   1.00
C16    C     0.17670   0.31169   0.12672   0.00000  Uiso   1.00
Cu17   Cu    0.16667   0.16667   0.21355   0.00000  Uiso   1.00
Cu18   Cu    0.16667   0.16666   0.11978   0.00000  Uiso   1.00
H19    H     0.18462   0.03678   0.09519   0.00000  Uiso   1.00
H20    H     0.14871   0.29655   0.23814   0.00000  Uiso   1.00
H21    H     0.18479   0.29536   0.09552   0.00000  Uiso   1.00
H22    H     0.14854   0.03798   0.23781   0.00000  Uiso   1.00
H23    H     0.11650   0.11511   0.28137   0.00000  Uiso   1.00
H24    H     0.21683   0.21823   0.05196   0.00000  Uiso   1.00
I25    I     0.31571   0.16083   0.07394   0.00000  Uiso   1.00
I26    I     0.01762   0.17250   0.25939   0.00000  Uiso   1.00
I27    I     0.08906   0.09186   0.04169   0.00000  Uiso   1.00
I28    I     0.24427   0.24147   0.29165   0.00000  Uiso   1.00
N29    N     0.16668   0.16668   0.28403   0.00000  Uiso   1.00
N30    N     0.16665   0.16666   0.04931   0.00000  Uiso   1.00
O31    O     0.16666   0.10655   0.20625   0.00000  Uiso   1.00
O32    O     0.16667   0.22678   0.12709   0.00000  Uiso   1.00
O33    O     0.16666   0.10654   0.12706   0.00000  Uiso   1.00
O34    O     0.16667   0.22679   0.20628   0.00000  Uiso   1.00
O35    O     0.09161   0.16667   0.19712   0.00000  Uiso   1.00
O36    O     0.24172   0.16666   0.13621   0.00000  Uiso   1.00
O37    O     0.09161   0.16666   0.11793   0.00000  Uiso   1.00
O38    O     0.24172   0.16667   0.21540   0.00000  Uiso   1.00
C39    C     0.49986   0.08740   0.16644   0.00000  Uiso   1.00
C40    C     0.48997   0.02164   0.20662   0.00000  Uiso   1.00
C41    C     0.50022   0.29057   0.16698   0.00000  Uiso   1.00
C42    C     0.49978   0.04276   0.16636   0.00000  Uiso   1.00
C43    C     0.47149   0.13794   0.01966   0.00000  Uiso   1.00
C44    C     0.52851   0.19539   0.31368   0.00000  Uiso   1.00
C45    C     0.47220   0.13794   0.30384   0.00000  Uiso   1.00
C46    C     0.52780   0.19539   0.02949   0.00000  Uiso   1.00
C47    C     0.50014   0.24594   0.16690   0.00000  Uiso   1.00
C48    C     0.40145   0.16662   0.15473   0.00000  Uiso   1.00
C49    C     0.59855   0.16671   0.17861   0.00000  Uiso   1.00
C50    C     0.34662   0.16584   0.14794   0.00000  Uiso   1.00
C51    C     0.65338   0.16750   0.18539   0.00000  Uiso   1.00
C52    C     0.50984   0.02097   0.12643   0.00000  Uiso   1.00
C53    C     0.49016   0.31237   0.20691   0.00000  Uiso   1.00
C54    C     0.51003   0.31169   0.12672   0.00000  Uiso   1.00
Cu55   Cu    0.50000   0.16667   0.21355   0.00000  Uiso   1.00
Cu56   Cu    0.50000   0.16666   0.11978   0.00000  Uiso   1.00
H57    H     0.51795   0.03678   0.09519   0.00000  Uiso   1.00
H58    H     0.48205   0.29655   0.23814   0.00000  Uiso   1.00
H59    H     0.51812   0.29536   0.09552   0.00000  Uiso   1.00
H60    H     0.48188   0.03798   0.23781   0.00000  Uiso   1.00
H61    H     0.44983   0.11511   0.28137   0.00000  Uiso   1.00
H62    H     0.55017   0.21823   0.05196   0.00000  Uiso   1.00
I63    I     0.64905   0.16083   0.07394   0.00000  Uiso   1.00
I64    I     0.35095   0.17250   0.25939   0.00000  Uiso   1.00
I65    I     0.42240   0.09186   0.04169   0.00000  Uiso   1.00
I66    I     0.57760   0.24147   0.29165   0.00000  Uiso   1.00
N67    N     0.50001   0.16668   0.28403   0.00000  Uiso   1.00
N68    N     0.49999   0.16666   0.04931   0.00000  Uiso   1.00
O69    O     0.50000   0.10655   0.20625   0.00000  Uiso   1.00
O70    O     0.50000   0.22678   0.12709   0.00000  Uiso   1.00
O71    O     0.50000   0.10654   0.12706   0.00000  Uiso   1.00
O72    O     0.50000   0.22679   0.20628   0.00000  Uiso   1.00
O73    O     0.42495   0.16667   0.19712   0.00000  Uiso   1.00
O74    O     0.57505   0.16666   0.13621   0.00000  Uiso   1.00
O75    O     0.42494   0.16666   0.11793   0.00000  Uiso   1.00
O76    O     0.57506   0.16667   0.21540   0.00000  Uiso   1.00
C77    C     0.83319   0.08740   0.16644   0.00000  Uiso   1.00
C78    C     0.82330   0.02164   0.20662   0.00000  Uiso   1.00
C79    C     0.83356   0.29057   0.16698   0.00000  Uiso   1.00
C80    C     0.83311   0.04276   0.16636   0.00000  Uiso   1.00
C81    C     0.80482   0.13794   0.01966   0.00000  Uiso   1.00
C82    C     0.86185   0.19539   0.31368   0.00000  Uiso   1.00
C83    C     0.80554   0.13794   0.30384   0.00000  Uiso   1.00
C84    C     0.86113   0.19539   0.02949   0.00000  Uiso   1.00
C85    C     0.83348   0.24594   0.16690   0.00000  Uiso   1.00
C86    C     0.73479   0.16662   0.15473   0.00000  Uiso   1.00
C87    C     0.93188   0.16671   0.17861   0.00000  Uiso   1.00
C88    C     0.67995   0.16584   0.14794   0.00000  Uiso   1.00
C89    C     0.98671   0.16750   0.18539   0.00000  Uiso   1.00
C90    C     0.84317   0.02097   0.12643   0.00000  Uiso   1.00
C91    C     0.82350   0.31237   0.20691   0.00000  Uiso   1.00
C92    C     0.84336   0.31169   0.12672   0.00000  Uiso   1.00
Cu93   Cu    0.83333   0.16667   0.21355   0.00000  Uiso   1.00
Cu94   Cu    0.83333   0.16666   0.11978   0.00000  Uiso   1.00
H95    H     0.85129   0.03678   0.09519   0.00000  Uiso   1.00
H96    H     0.81538   0.29655   0.23814   0.00000  Uiso   1.00
H97    H     0.85146   0.29536   0.09552   0.00000  Uiso   1.00
H98    H     0.81521   0.03798   0.23781   0.00000  Uiso   1.00
H99    H     0.78316   0.11511   0.28137   0.00000  Uiso   1.00
H100   H     0.88350   0.21823   0.05196   0.00000  Uiso   1.00
I101   I     0.98238   0.16083   0.07394   0.00000  Uiso   1.00
I102   I     0.68429   0.17250   0.25939   0.00000  Uiso   1.00
I103   I     0.75573   0.09186   0.04169   0.00000  Uiso   1.00
I104   I     0.91094   0.24147   0.29165   0.00000  Uiso   1.00
N105   N     0.83335   0.16668   0.28403   0.00000  Uiso   1.00
N106   N     0.83332   0.16666   0.04931   0.00000  Uiso   1.00
O107   O     0.83333   0.10655   0.20625   0.00000  Uiso   1.00
O108   O     0.83334   0.22678   0.12709   0.00000  Uiso   1.00
O109   O     0.83333   0.10654   0.12706   0.00000  Uiso   1.00
O110   O     0.83334   0.22679   0.20628   0.00000  Uiso   1.00
O111   O     0.75828   0.16667   0.19712   0.00000  Uiso   1.00
O112   O     0.90839   0.16666   0.13621   0.00000  Uiso   1.00
O113   O     0.75828   0.16666   0.11793   0.00000  Uiso   1.00
O114   O     0.90839   0.16667   0.21540   0.00000  Uiso   1.00
C115   C     0.16652   0.42073   0.16644   0.00000  Uiso   1.00
C116   C     0.15664   0.35498   0.20662   0.00000  Uiso   1.00
C117   C     0.16689   0.62391   0.16698   0.00000  Uiso   1.00
C118   C     0.16644   0.37609   0.16636   0.00000  Uiso   1.00
C119   C     0.13815   0.47128   0.01966   0.00000  Uiso   1.00
C120   C     0.19518   0.52872   0.31368   0.00000  Uiso   1.00
C121   C     0.13887   0.47128   0.30384   0.00000  Uiso   1.00
C122   C     0.19446   0.52872   0.02949   0.00000  Uiso   1.00
C123   C     0.16681   0.57927   0.16690   0.00000  Uiso   1.00
C124   C     0.06812   0.49996   0.15473   0.00000  Uiso   1.00
C125   C     0.26521   0.50004   0.17861   0.00000  Uiso   1.00
C126   C     0.01329   0.49917   0.14794   0.00000  Uiso   1.00
C127   C     0.32005   0.50083   0.18539   0.00000  Uiso   1.00
C128   C     0.17650   0.35430   0.12643   0.00000  Uiso   1.00
C129   C     0.15683   0.64570   0.20691   0.00000  Uiso   1.00
C130   C     0.17670   0.64502   0.12672   0.00000  Uiso   1.00
Cu131  Cu    0.16667   0.50001   0.21355   0.00000  Uiso   1.00
Cu132  Cu    0.16667   0.49999   0.11978   0.00000  Uiso   1.00
H133   H     0.18462   0.37011   0.09519   0.00000  Uiso   1.00
H134   H     0.14871   0.62989   0.23814   0.00000  Uiso   1.00
H135   H     0.18479   0.62869   0.09552   0.00000  Uiso   1.00
H136   H     0.14854   0.37131   0.23781   0.00000  Uiso   1.00
H137   H     0.11650   0.44844   0.28137   0.00000  Uiso   1.00
H138   H     0.21683   0.55156   0.05196   0.00000  Uiso   1.00
I139   I     0.31571   0.49417   0.07394   0.00000  Uiso   1.00
I140   I     0.01762   0.50583   0.25939   0.00000  Uiso   1.00
I141   I     0.08906   0.42520   0.04169   0.00000  Uiso   1.00
I142   I     0.24427   0.57480   0.29165   0.00000  Uiso   1.00
N143   N     0.16668   0.50001   0.28403   0.00000  Uiso   1.00
N144   N     0.16665   0.49999   0.04931   0.00000  Uiso   1.00
O145   O     0.16666   0.43989   0.20625   0.00000  Uiso   1.00
O146   O     0.16667   0.56011   0.12709   0.00000  Uiso   1.00
O147   O     0.16666   0.43988   0.12706   0.00000  Uiso   1.00
O148   O     0.16667   0.56012   0.20628   0.00000  Uiso   1.00
O149   O     0.09161   0.50000   0.19712   0.00000  Uiso   1.00
O150   O     0.24172   0.50000   0.13621   0.00000  Uiso   1.00
O151   O     0.09161   0.49999   0.11793   0.00000  Uiso   1.00
O152   O     0.24172   0.50001   0.21540   0.00000  Uiso   1.00
C153   C     0.49986   0.42073   0.16644   0.00000  Uiso   1.00
C154   C     0.48997   0.35498   0.20662   0.00000  Uiso   1.00
C155   C     0.50022   0.62391   0.16698   0.00000  Uiso   1.00
C156   C     0.49978   0.37609   0.16636   0.00000  Uiso   1.00
C157   C     0.47149   0.47128   0.01966   0.00000  Uiso   1.00
C158   C     0.52851   0.52872   0.31368   0.00000  Uiso   1.00
C159   C     0.47220   0.47128   0.30384   0.00000  Uiso   1.00
C160   C     0.52780   0.52872   0.02949   0.00000  Uiso   1.00
C161   C     0.50014   0.57927   0.16690   0.00000  Uiso   1.00
C162   C     0.40145   0.49996   0.15473   0.00000  Uiso   1.00
C163   C     0.59855   0.50004   0.17861   0.00000  Uiso   1.00
C164   C     0.34662   0.49917   0.14794   0.00000  Uiso   1.00
C165   C     0.65338   0.50083   0.18539   0.00000  Uiso   1.00
C166   C     0.50984   0.35430   0.12643   0.00000  Uiso   1.00
C167   C     0.49016   0.64570   0.20691   0.00000  Uiso   1.00
C168   C     0.51003   0.64502   0.12672   0.00000  Uiso   1.00
Cu169  Cu    0.50000   0.50001   0.21355   0.00000  Uiso   1.00
Cu170  Cu    0.50000   0.49999   0.11978   0.00000  Uiso   1.00
H171   H     0.51795   0.37011   0.09519   0.00000  Uiso   1.00
H172   H     0.48205   0.62989   0.23814   0.00000  Uiso   1.00
H173   H     0.51812   0.62869   0.09552   0.00000  Uiso   1.00
H174   H     0.48188   0.37131   0.23781   0.00000  Uiso   1.00
H175   H     0.44983   0.44844   0.28137   0.00000  Uiso   1.00
H176   H     0.55017   0.55156   0.05196   0.00000  Uiso   1.00
I177   I     0.64905   0.49417   0.07394   0.00000  Uiso   1.00
I178   I     0.35095   0.50583   0.25939   0.00000  Uiso   1.00
I179   I     0.42240   0.42520   0.04169   0.00000  Uiso   1.00
I180   I     0.57760   0.57480   0.29165   0.00000  Uiso   1.00
N181   N     0.50001   0.50001   0.28403   0.00000  Uiso   1.00
N182   N     0.49999   0.49999   0.04931   0.00000  Uiso   1.00
O183   O     0.50000   0.43989   0.20625   0.00000  Uiso   1.00
O184   O     0.50000   0.56011   0.12709   0.00000  Uiso   1.00
O185   O     0.50000   0.43988   0.12706   0.00000  Uiso   1.00
O186   O     0.50000   0.56012   0.20628   0.00000  Uiso   1.00
O187   O     0.42495   0.50000   0.19712   0.00000  Uiso   1.00
O188   O     0.57505   0.50000   0.13621   0.00000  Uiso   1.00
O189   O     0.42494   0.49999   0.11793   0.00000  Uiso   1.00
O190   O     0.57506   0.50001   0.21540   0.00000  Uiso   1.00
C191   C     0.83319   0.42073   0.16644   0.00000  Uiso   1.00
C192   C     0.82330   0.35498   0.20662   0.00000  Uiso   1.00
C193   C     0.83356   0.62391   0.16698   0.00000  Uiso   1.00
C194   C     0.83311   0.37609   0.16636   0.00000  Uiso   1.00
C195   C     0.80482   0.47128   0.01966   0.00000  Uiso   1.00
C196   C     0.86185   0.52872   0.31368   0.00000  Uiso   1.00
C197   C     0.80554   0.47128   0.30384   0.00000  Uiso   1.00
C198   C     0.86113   0.52872   0.02949   0.00000  Uiso   1.00
C199   C     0.83348   0.57927   0.16690   0.00000  Uiso   1.00
C200   C     0.73479   0.49996   0.15473   0.00000  Uiso   1.00
C201   C     0.93188   0.50004   0.17861   0.00000  Uiso   1.00
C202   C     0.67995   0.49917   0.14794   0.00000  Uiso   1.00
C203   C     0.98671   0.50083   0.18539   0.00000  Uiso   1.00
C204   C     0.84317   0.35430   0.12643   0.00000  Uiso   1.00
C205   C     0.82350   0.64570   0.20691   0.00000  Uiso   1.00
C206   C     0.84336   0.64502   0.12672   0.00000  Uiso   1.00
Cu207  Cu    0.83333   0.50001   0.21355   0.00000  Uiso   1.00
Cu208  Cu    0.83333   0.49999   0.11978   0.00000  Uiso   1.00
H209   H     0.85129   0.37011   0.09519   0.00000  Uiso   1.00
H210   H     0.81538   0.62989   0.23814   0.00000  Uiso   1.00
H211   H     0.85146   0.62869   0.09552   0.00000  Uiso   1.00
H212   H     0.81521   0.37131   0.23781   0.00000  Uiso   1.00
H213   H     0.78316   0.44844   0.28137   0.00000  Uiso   1.00
H214   H     0.88350   0.55156   0.05196   0.00000  Uiso   1.00
I215   I     0.98238   0.49417   0.07394   0.00000  Uiso   1.00
I216   I     0.68429   0.50583   0.25939   0.00000  Uiso   1.00
I217   I     0.75573   0.42520   0.04169   0.00000  Uiso   1.00
I218   I     0.91094   0.57480   0.29165   0.00000  Uiso   1.00
N219   N     0.83335   0.50001   0.28403   0.00000  Uiso   1.00
N220   N     0.83332   0.49999   0.04931   0.00000  Uiso   1.00
O221   O     0.83333   0.43989   0.20625   0.00000  Uiso   1.00
O222   O     0.83334   0.56011   0.12709   0.00000  Uiso   1.00
O223   O     0.83333   0.43988   0.12706   0.00000  Uiso   1.00
O224   O     0.83334   0.56012   0.20628   0.00000  Uiso   1.00
O225   O     0.75828   0.50000   0.19712   0.00000  Uiso   1.00
O226   O     0.90839   0.50000   0.13621   0.00000  Uiso   1.00
O227   O     0.75828   0.49999   0.11793   0.00000  Uiso   1.00
O228   O     0.90839   0.50001   0.21540   0.00000  Uiso   1.00
C229   C     0.16652   0.75406   0.16644   0.00000  Uiso   1.00
C230   C     0.15664   0.68831   0.20662   0.00000  Uiso   1.00
C231   C     0.16689   0.95724   0.16698   0.00000  Uiso   1.00
C232   C     0.16644   0.70943   0.16636   0.00000  Uiso   1.00
C233   C     0.13815   0.80461   0.01966   0.00000  Uiso   1.00
C234   C     0.19518   0.86206   0.31368   0.00000  Uiso   1.00
C235   C     0.13887   0.80461   0.30384   0.00000  Uiso   1.00
C236   C     0.19446   0.86206   0.02949   0.00000  Uiso   1.00
C237   C     0.16681   0.91260   0.16690   0.00000  Uiso   1.00
C238   C     0.06812   0.83329   0.15473   0.00000  Uiso   1.00
C239   C     0.26521   0.83338   0.17861   0.00000  Uiso   1.00
C240   C     0.01329   0.83250   0.14794   0.00000  Uiso   1.00
C241   C     0.32005   0.83416   0.18539   0.00000  Uiso   1.00
C242   C     0.17650   0.68763   0.12643   0.00000  Uiso   1.00
C243   C     0.15683   0.97903   0.20691   0.00000  Uiso   1.00
C244   C     0.17670   0.97836   0.12672   0.00000  Uiso   1.00
Cu245  Cu    0.16667   0.83334   0.21355   0.00000  Uiso   1.00
Cu246  Cu    0.16667   0.83333   0.11978   0.00000  Uiso   1.00
H247   H     0.18462   0.70345   0.09519   0.00000  Uiso   1.00
H248   H     0.14871   0.96322   0.23814   0.00000  Uiso   1.00
H249   H     0.18479   0.96202   0.09552   0.00000  Uiso   1.00
H250   H     0.14854   0.70464   0.23781   0.00000  Uiso   1.00
H251   H     0.11650   0.78177   0.28137   0.00000  Uiso   1.00
H252   H     0.21683   0.88489   0.05196   0.00000  Uiso   1.00
I253   I     0.31571   0.82750   0.07394   0.00000  Uiso   1.00
I254   I     0.01762   0.83917   0.25939   0.00000  Uiso   1.00
I255   I     0.08906   0.75853   0.04169   0.00000  Uiso   1.00
I256   I     0.24427   0.90814   0.29165   0.00000  Uiso   1.00
N257   N     0.16668   0.83334   0.28403   0.00000  Uiso   1.00
N258   N     0.16665   0.83332   0.04931   0.00000  Uiso   1.00
O259   O     0.16666   0.77322   0.20625   0.00000  Uiso   1.00
O260   O     0.16667   0.89345   0.12709   0.00000  Uiso   1.00
O261   O     0.16666   0.77321   0.12706   0.00000  Uiso   1.00
O262   O     0.16667   0.89346   0.20628   0.00000  Uiso   1.00
O263   O     0.09161   0.83334   0.19712   0.00000  Uiso   1.00
O264   O     0.24172   0.83333   0.13621   0.00000  Uiso   1.00
O265   O     0.09161   0.83333   0.11793   0.00000  Uiso   1.00
O266   O     0.24172   0.83334   0.21540   0.00000  Uiso   1.00
C267   C     0.49986   0.75406   0.16644   0.00000  Uiso   1.00
C268   C     0.48997   0.68831   0.20662   0.00000  Uiso   1.00
C269   C     0.50022   0.95724   0.16698   0.00000  Uiso   1.00
C270   C     0.49978   0.70943   0.16636   0.00000  Uiso   1.00
C271   C     0.47149   0.80461   0.01966   0.00000  Uiso   1.00
C272   C     0.52851   0.86206   0.31368   0.00000  Uiso   1.00
C273   C     0.47220   0.80461   0.30384   0.00000  Uiso   1.00
C274   C     0.52780   0.86206   0.02949   0.00000  Uiso   1.00
C275   C     0.50014   0.91260   0.16690   0.00000  Uiso   1.00
C276   C     0.40145   0.83329   0.15473   0.00000  Uiso   1.00
C277   C     0.59855   0.83338   0.17861   0.00000  Uiso   1.00
C278   C     0.34662   0.83250   0.14794   0.00000  Uiso   1.00
C279   C     0.65338   0.83416   0.18539   0.00000  Uiso   1.00
C280   C     0.50984   0.68763   0.12643   0.00000  Uiso   1.00
C281   C     0.49016   0.97903   0.20691   0.00000  Uiso   1.00
C282   C     0.51003   0.97836   0.12672   0.00000  Uiso   1.00
Cu283  Cu    0.50000   0.83334   0.21355   0.00000  Uiso   1.00
Cu284  Cu    0.50000   0.83333   0.11978   0.00000  Uiso   1.00
H285   H     0.51795   0.70345   0.09519   0.00000  Uiso   1.00
H286   H     0.48205   0.96322   0.23814   0.00000  Uiso   1.00
H287   H     0.51812   0.96202   0.09552   0.00000  Uiso   1.00
H288   H     0.48188   0.70464   0.23781   0.00000  Uiso   1.00
H289   H     0.44983   0.78177   0.28137   0.00000  Uiso   1.00
H290   H     0.55017   0.88489   0.05196   0.00000  Uiso   1.00
I291   I     0.64905   0.82750   0.07394   0.00000  Uiso   1.00
I292   I     0.35095   0.83917   0.25939   0.00000  Uiso   1.00
I293   I     0.42240   0.75853   0.04169   0.00000  Uiso   1.00
I294   I     0.57760   0.90814   0.29165   0.00000  Uiso   1.00
N295   N     0.50001   0.83334   0.28403   0.00000  Uiso   1.00
N296   N     0.49999   0.83332   0.04931   0.00000  Uiso   1.00
O297   O     0.50000   0.77322   0.20625   0.00000  Uiso   1.00
O298   O     0.50000   0.89345   0.12709   0.00000  Uiso   1.00
O299   O     0.50000   0.77321   0.12706   0.00000  Uiso   1.00
O300   O     0.50000   0.89346   0.20628   0.00000  Uiso   1.00
O301   O     0.42495   0.83334   0.19712   0.00000  Uiso   1.00
O302   O     0.57505   0.83333   0.13621   0.00000  Uiso   1.00
O303   O     0.42494   0.83333   0.11793   0.00000  Uiso   1.00
O304   O     0.57506   0.83334   0.21540   0.00000  Uiso   1.00
C305   C     0.83319   0.75406   0.16644   0.00000  Uiso   1.00
C306   C     0.82330   0.68831   0.20662   0.00000  Uiso   1.00
C307   C     0.83356   0.95724   0.16698   0.00000  Uiso   1.00
C308   C     0.83311   0.70943   0.16636   0.00000  Uiso   1.00
C309   C     0.80482   0.80461   0.01966   0.00000  Uiso   1.00
C310   C     0.86185   0.86206   0.31368   0.00000  Uiso   1.00
C311   C     0.80554   0.80461   0.30384   0.00000  Uiso   1.00
C312   C     0.86113   0.86206   0.02949   0.00000  Uiso   1.00
C313   C     0.83348   0.91260   0.16690   0.00000  Uiso   1.00
C314   C     0.73479   0.83329   0.15473   0.00000  Uiso   1.00
C315   C     0.93188   0.83338   0.17861   0.00000  Uiso   1.00
C316   C     0.67995   0.83250   0.14794   0.00000  Uiso   1.00
C317   C     0.98671   0.83416   0.18539   0.00000  Uiso   1.00
C318   C     0.84317   0.68763   0.12643   0.00000  Uiso   1.00
C319   C     0.82350   0.97903   0.20691   0.00000  Uiso   1.00
C320   C     0.84336   0.97836   0.12672   0.00000  Uiso   1.00
Cu321  Cu    0.83333   0.83334   0.21355   0.00000  Uiso   1.00
Cu322  Cu    0.83333   0.83333   0.11978   0.00000  Uiso   1.00
H323   H     0.85129   0.70345   0.09519   0.00000  Uiso   1.00
H324   H     0.81538   0.96322   0.23814   0.00000  Uiso   1.00
H325   H     0.85146   0.96202   0.09552   0.00000  Uiso   1.00
H326   H     0.81521   0.70464   0.23781   0.00000  Uiso   1.00
H327   H     0.78316   0.78177   0.28137   0.00000  Uiso   1.00
H328   H     0.88350   0.88489   0.05196   0.00000  Uiso   1.00
I329   I     0.98238   0.82750   0.07394   0.00000  Uiso   1.00
I330   I     0.68429   0.83917   0.25939   0.00000  Uiso   1.00
I331   I     0.75573   0.75853   0.04169   0.00000  Uiso   1.00
I332   I     0.91094   0.90814   0.29165   0.00000  Uiso   1.00
N333   N     0.83335   0.83334   0.28403   0.00000  Uiso   1.00
N334   N     0.83332   0.83332   0.04931   0.00000  Uiso   1.00
O335   O     0.83333   0.77322   0.20625   0.00000  Uiso   1.00
O336   O     0.83334   0.89345   0.12709   0.00000  Uiso   1.00
O337   O     0.83333   0.77321   0.12706   0.00000  Uiso   1.00
O338   O     0.83334   0.89346   0.20628   0.00000  Uiso   1.00
O339   O     0.75828   0.83334   0.19712   0.00000  Uiso   1.00
O340   O     0.90839   0.83333   0.13621   0.00000  Uiso   1.00
O341   O     0.75828   0.83333   0.11793   0.00000  Uiso   1.00
O342   O     0.90839   0.83334   0.21540   0.00000  Uiso   1.00
C343   C     0.16652   0.08740   0.49977   0.00000  Uiso   1.00
C344   C     0.15664   0.02164   0.53995   0.00000  Uiso   1.00
C345   C     0.16689   0.29057   0.50031   0.00000  Uiso   1.00
C346   C     0.16644   0.04276   0.49969   0.00000  Uiso   1.00
C347   C     0.13815   0.13794   0.35299   0.00000  Uiso   1.00
C348   C     0.19518   0.19539   0.64701   0.00000  Uiso   1.00
C349   C     0.13887   0.13794   0.63717   0.00000  Uiso   1.00
C350   C     0.19446   0.19539   0.36283   0.00000  Uiso   1.00
C351   C     0.16681   0.24594   0.50023   0.00000  Uiso   1.00
C352   C     0.06812   0.16662   0.48806   0.00000  Uiso   1.00
C353   C     0.26521   0.16671   0.51194   0.00000  Uiso   1.00
C354   C     0.01329   0.16584   0.48127   0.00000  Uiso   1.00
C355   C     0.32005   0.16750   0.51873   0.00000  Uiso   1.00
C356   C     0.17650   0.02097   0.45976   0.00000  Uiso   1.00
C357   C     0.15683   0.31237   0.54024   0.00000  Uiso   1.00
C358   C     0.17670   0.31169   0.46005   0.00000  Uiso   1.00
Cu359  Cu    0.16667   0.16667   0.54689   0.00000  Uiso   1.00
Cu360  Cu    0.16667   0.16666   0.45311   0.00000  Uiso   1.00
H361   H     0.18462   0.03678   0.42852   0.00000  Uiso   1.00
H362   H     0.14871   0.29655   0.57148   0.00000  Uiso   1.00
H363   H     0.18479   0.29536   0.42885   0.00000  Uiso   1.00
H364   H     0.14854   0.03798   0.57115   0.00000  Uiso   1.00
H365   H     0.11650   0.11511   0.61470   0.00000  Uiso   1.00
H366   H     0.21683   0.21823   0.38530   0.00000  Uiso   1.00
I367   I     0.31571   0.16083   0.40728   0.00000  Uiso   1.00
I368   I     0.01762   0.17250   0.59272   0.00000  Uiso   1.00
I369   I     0.08906   0.09186   0.37502   0.00000  Uiso   1.00
I370   I     0.24427   0.24147   0.62498   0.00000  Uiso   1.00
N371   N     0.16668   0.16668   0.61736   0.00000  Uiso   1.00
N372   N     0.16665   0.16666   0.38264   0.00000  Uiso   1.00
O373   O     0.16666   0.10655   0.53958   0.00000  Uiso   1.00
O374   O     0.16667   0.22678   0.46042   0.00000  Uiso   1.00
O375   O     0.16666   0.10654   0.46039   0.00000  Uiso   1.00
O376   O     0.16667   0.22679   0.53961   0.00000  Uiso   1.00
O377   O     0.09161   0.16667   0.53046   0.00000  Uiso   1.00
O378   O     0.24172   0.16666   0.46954   0.00000  Uiso   1.00
O379   O     0.09161   0.16666   0.45127   0.00000  Uiso   1.00
O380   O     0.24172   0.16667   0.54873   0.00000  Uiso   1.00
C381   C     0.49986   0.08740   0.49977   0.00000  Uiso   1.00
C382   C     0.48997   0.02164   0.53995   0.00000  Uiso   1.00
C383   C     0.50022   0.29057   0.50031   0.00000  Uiso   1.00
C384   C     0.49978   0.04276   0.49969   0.00000  Uiso   1.00
C385   C     0.47149   0.13794   0.35299   0.00000  Uiso   1.00
C386   C     0.52851   0.19539   0.64701   0.00000  Uiso   1.00
C387   C     0.47220   0.13794   0.63717   0.00000  Uiso   1.00
C388   C     0.52780   0.19539   0.36283   0.00000  Uiso   1.00
C389   C     0.50014   0.24594   0.50023   0.00000  Uiso   1.00
C390   C     0.40145   0.16662   0.48806   0.00000  Uiso   1.00
C391   C     0.59855   0.16671   0.51194   0.00000  Uiso   1.00
C392   C     0.34662   0.16584   0.48127   0.00000  Uiso   1.00
C393   C     0.65338   0.16750   0.51873   0.00000  Uiso   1.00
C394   C     0.50984   0.02097   0.45976   0.00000  Uiso   1.00
C395   C     0.49016   0.31237   0.54024   0.00000  Uiso   1.00
C396   C     0.51003   0.31169   0.46005   0.00000  Uiso   1.00
Cu397  Cu    0.50000   0.16667   0.54689   0.00000  Uiso   1.00
Cu398  Cu    0.50000   0.16666   0.45311   0.00000  Uiso   1.00
H399   H     0.51795   0.03678   0.42852   0.00000  Uiso   1.00
H400   H     0.48205   0.29655   0.57148   0.00000  Uiso   1.00
H401   H     0.51812   0.29536   0.42885   0.00000  Uiso   1.00
H402   H     0.48188   0.03798   0.57115   0.00000  Uiso   1.00
H403   H     0.44983   0.11511   0.61470   0.00000  Uiso   1.00
H404   H     0.55017   0.21823   0.38530   0.00000  Uiso   1.00
I405   I     0.64905   0.16083   0.40728   0.00000  Uiso   1.00
I406   I     0.35095   0.17250   0.59272   0.00000  Uiso   1.00
I407   I     0.42240   0.09186   0.37502   0.00000  Uiso   1.00
I408   I     0.57760   0.24147   0.62498   0.00000  Uiso   1.00
N409   N     0.50001   0.16668   0.61736   0.00000  Uiso   1.00
N410   N     0.49999   0.16666   0.38264   0.00000  Uiso   1.00
O411   O     0.50000   0.10655   0.53958   0.00000  Uiso   1.00
O412   O     0.50000   0.22678   0.46042   0.00000  Uiso   1.00
O413   O     0.50000   0.10654   0.46039   0.00000  Uiso   1.00
O414   O     0.50000   0.22679   0.53961   0.00000  Uiso   1.00
O415   O     0.42495   0.16667   0.53046   0.00000  Uiso   1.00
O416   O     0.57505   0.16666   0.46954   0.00000  Uiso   1.00
O417   O     0.42494   0.16666   0.45127   0.00000  Uiso   1.00
O418   O     0.57506   0.16667   0.54873   0.00000  Uiso   1.00
C419   C     0.83319   0.08740   0.49977   0.00000  Uiso   1.00
C420   C     0.82330   0.02164   0.53995   0.00000  Uiso   1.00
C421   C     0.83356   0.29057   0.50031   0.00000  Uiso   1.00
C422   C     0.83311   0.04276   0.49969   0.00000  Uiso   1.00
C423   C     0.80482   0.13794   0.35299   0.00000  Uiso   1.00
C424   C     0.86185   0.19539   0.64701   0.00000  Uiso   1.00
C425   C     0.80554   0.13794   0.63717   0.00000  Uiso   1.00
C426   C     0.86113   0.19539   0.36283   0.00000  Uiso   1.00
C427   C     0.83348   0.24594   0.50023   0.00000  Uiso   1.00
C428   C     0.73479   0.16662   0.48806   0.00000  Uiso   1.00
C429   C     0.93188   0.16671   0.51194   0.00000  Uiso   1.00
C430   C     0.67995   0.16584   0.48127   0.00000  Uiso   1.00
C431   C     0.98671   0.16750   0.51873   0.00000  Uiso   1.00
C432   C     0.84317   0.02097   0.45976   0.00000  Uiso   1.00
C433   C     0.82350   0.31237   0.54024   0.00000  Uiso   1.00
C434   C     0.84336   0.31169   0.46005   0.00000  Uiso   1.00
Cu435  Cu    0.83333   0.16667   0.54689   0.00000  Uiso   1.00
Cu436  Cu    0.83333   0.16666   0.45311   0.00000  Uiso   1.00
H437   H     0.85129   0.03678   0.42852   0.00000  Uiso   1.00
H438   H     0.81538   0.29655   0.57148   0.00000  Uiso   1.00
H439   H     0.85146   0.29536   0.42885   0.00000  Uiso   1.00
H440   H     0.81521   0.03798   0.57115   0.00000  Uiso   1.00
H441   H     0.78316   0.11511   0.61470   0.00000  Uiso   1.00
H442   H     0.88350   0.21823   0.38530   0.00000  Uiso   1.00
I443   I     0.98238   0.16083   0.40728   0.00000  Uiso   1.00
I444   I     0.68429   0.17250   0.59272   0.00000  Uiso   1.00
I445   I     0.75573   0.09186   0.37502   0.00000  Uiso   1.00
I446   I     0.91094   0.24147   0.62498   0.00000  Uiso   1.00
N447   N     0.83335   0.16668   0.61736   0.00000  Uiso   1.00
N448   N     0.83332   0.16666   0.38264   0.00000  Uiso   1.00
O449   O     0.83333   0.10655   0.53958   0.00000  Uiso   1.00
O450   O     0.83334   0.22678   0.46042   0.00000  Uiso   1.00
O451   O     0.83333   0.10654   0.46039   0.00000  Uiso   1.00
O452   O     0.83334   0.22679   0.53961   0.00000  Uiso   1.00
O453   O     0.75828   0.16667   0.53046   0.00000  Uiso   1.00
O454   O     0.90839   0.16666   0.46954   0.00000  Uiso   1.00
O455   O     0.75828   0.16666   0.45127   0.00000  Uiso   1.00
O456   O     0.90839   0.16667   0.54873   0.00000  Uiso   1.00
C457   C     0.16652   0.42073   0.49977   0.00000  Uiso   1.00
C458   C     0.15664   0.35498   0.53995   0.00000  Uiso   1.00
C459   C     0.16689   0.62391   0.50031   0.00000  Uiso   1.00
C460   C     0.16644   0.37609   0.49969   0.00000  Uiso   1.00
C461   C     0.13815   0.47128   0.35299   0.00000  Uiso   1.00
C462   C     0.19518   0.52872   0.64701   0.00000  Uiso   1.00
C463   C     0.13887   0.47128   0.63717   0.00000  Uiso   1.00
C464   C     0.19446   0.52872   0.36283   0.00000  Uiso   1.00
C465   C     0.16681   0.57927   0.50023   0.00000  Uiso   1.00
C466   C     0.06812   0.49996   0.48806   0.00000  Uiso   1.00
C467   C     0.26521   0.50004   0.51194   0.00000  Uiso   1.00
C468   C     0.01329   0.49917   0.48127   0.00000  Uiso   1.00
C469   C     0.32005   0.50083   0.51873   0.00000  Uiso   1.00
C470   C     0.17650   0.35430   0.45976   0.00000  Uiso   1.00
C471   C     0.15683   0.64570   0.54024   0.00000  Uiso   1.00
C472   C     0.17670   0.64502   0.46005   0.00000  Uiso   1.00
Cu473  Cu    0.16667   0.50001   0.54689   0.00000  Uiso   1.00
Cu474  Cu    0.16667   0.49999   0.45311   0.00000  Uiso   1.00
H475   H     0.18462   0.37011   0.42852   0.00000  Uiso   1.00
H476   H     0.14871   0.62989   0.57148   0.00000  Uiso   1.00
H477   H     0.18479   0.62869   0.42885   0.00000  Uiso   1.00
H478   H     0.14854   0.37131   0.57115   0.00000  Uiso   1.00
H479   H     0.11650   0.44844   0.61470   0.00000  Uiso   1.00
H480   H     0.21683   0.55156   0.38530   0.00000  Uiso   1.00
I481   I     0.31571   0.49417   0.40728   0.00000  Uiso   1.00
I482   I     0.01762   0.50583   0.59272   0.00000  Uiso   1.00
I483   I     0.08906   0.42520   0.37502   0.00000  Uiso   1.00
I484   I     0.24427   0.57480   0.62498   0.00000  Uiso   1.00
N485   N     0.16668   0.50001   0.61736   0.00000  Uiso   1.00
N486   N     0.16665   0.49999   0.38264   0.00000  Uiso   1.00
O487   O     0.16666   0.43989   0.53958   0.00000  Uiso   1.00
O488   O     0.16667   0.56011   0.46042   0.00000  Uiso   1.00
O489   O     0.16666   0.43988   0.46039   0.00000  Uiso   1.00
O490   O     0.16667   0.56012   0.53961   0.00000  Uiso   1.00
O491   O     0.09161   0.50000   0.53046   0.00000  Uiso   1.00
O492   O     0.24172   0.50000   0.46954   0.00000  Uiso   1.00
O493   O     0.09161   0.49999   0.45127   0.00000  Uiso   1.00
O494   O     0.24172   0.50001   0.54873   0.00000  Uiso   1.00
C495   C     0.49986   0.42073   0.49977   0.00000  Uiso   1.00
C496   C     0.48997   0.35498   0.53995   0.00000  Uiso   1.00
C497   C     0.50022   0.62391   0.50031   0.00000  Uiso   1.00
C498   C     0.49978   0.37609   0.49969   0.00000  Uiso   1.00
C499   C     0.47149   0.47128   0.35299   0.00000  Uiso   1.00
C500   C     0.52851   0.52872   0.64701   0.00000  Uiso   1.00
C501   C     0.47220   0.47128   0.63717   0.00000  Uiso   1.00
C502   C     0.52780   0.52872   0.36283   0.00000  Uiso   1.00
C503   C     0.50014   0.57927   0.50023   0.00000  Uiso   1.00
C504   C     0.40145   0.49996   0.48806   0.00000  Uiso   1.00
C505   C     0.59855   0.50004   0.51194   0.00000  Uiso   1.00
C506   C     0.34662   0.49917   0.48127   0.00000  Uiso   1.00
C507   C     0.65338   0.50083   0.51873   0.00000  Uiso   1.00
C508   C     0.50984   0.35430   0.45976   0.00000  Uiso   1.00
C509   C     0.49016   0.64570   0.54024   0.00000  Uiso   1.00
C510   C     0.51003   0.64502   0.46005   0.00000  Uiso   1.00
Cu511  Cu    0.50000   0.50001   0.54689   0.00000  Uiso   1.00
Cu512  Cu    0.50000   0.49999   0.45311   0.00000  Uiso   1.00
H513   H     0.51795   0.37011   0.42852   0.00000  Uiso   1.00
H514   H     0.48205   0.62989   0.57148   0.00000  Uiso   1.00
H515   H     0.51812   0.62869   0.42885   0.00000  Uiso   1.00
H516   H     0.48188   0.37131   0.57115   0.00000  Uiso   1.00
H517   H     0.44983   0.44844   0.61470   0.00000  Uiso   1.00
H518   H     0.55017   0.55156   0.38530   0.00000  Uiso   1.00
I519   I     0.64905   0.49417   0.40728   0.00000  Uiso   1.00
I520   I     0.35095   0.50583   0.59272   0.00000  Uiso   1.00
I521   I     0.42240   0.42520   0.37502   0.00000  Uiso   1.00
I522   I     0.57760   0.57480   0.62498   0.00000  Uiso   1.00
N523   N     0.50001   0.50001   0.61736   0.00000  Uiso   1.00
N524   N     0.49999   0.49999   0.38264   0.00000  Uiso   1.00
O525   O     0.50000   0.43989   0.53958   0.00000  Uiso   1.00
O526   O     0.50000   0.56011   0.46042   0.00000  Uiso   1.00
O527   O     0.50000   0.43988   0.46039   0.00000  Uiso   1.00
O528   O     0.50000   0.56012   0.53961   0.00000  Uiso   1.00
O529   O     0.42495   0.50000   0.53046   0.00000  Uiso   1.00
O530   O     0.57505   0.50000   0.46954   0.00000  Uiso   1.00
O531   O     0.42494   0.49999   0.45127   0.00000  Uiso   1.00
O532   O     0.57506   0.50001   0.54873   0.00000  Uiso   1.00
C533   C     0.83319   0.42073   0.49977   0.00000  Uiso   1.00
C534   C     0.82330   0.35498   0.53995   0.00000  Uiso   1.00
C535   C     0.83356   0.62391   0.50031   0.00000  Uiso   1.00
C536   C     0.83311   0.37609   0.49969   0.00000  Uiso   1.00
C537   C     0.80482   0.47128   0.35299   0.00000  Uiso   1.00
C538   C     0.86185   0.52872   0.64701   0.00000  Uiso   1.00
C539   C     0.80554   0.47128   0.63717   0.00000  Uiso   1.00
C540   C     0.86113   0.52872   0.36283   0.00000  Uiso   1.00
C541   C     0.83348   0.57927   0.50023   0.00000  Uiso   1.00
C542   C     0.73479   0.49996   0.48806   0.00000  Uiso   1.00
C543   C     0.93188   0.50004   0.51194   0.00000  Uiso   1.00
C544   C     0.67995   0.49917   0.48127   0.00000  Uiso   1.00
C545   C     0.98671   0.50083   0.51873   0.00000  Uiso   1.00
C546   C     0.84317   0.35430   0.45976   0.00000  Uiso   1.00
C547   C     0.82350   0.64570   0.54024   0.00000  Uiso   1.00
C548   C     0.84336   0.64502   0.46005   0.00000  Uiso   1.00
Cu549  Cu    0.83333   0.50001   0.54689   0.00000  Uiso   1.00
Cu550  Cu    0.83333   0.49999   0.45311   0.00000  Uiso   1.00
H551   H     0.85129   0.37011   0.42852   0.00000  Uiso   1.00
H552   H     0.81538   0.62989   0.57148   0.00000  Uiso   1.00
H553   H     0.85146   0.62869   0.42885   0.00000  Uiso   1.00
H554   H     0.81521   0.37131   0.57115   0.00000  Uiso   1.00
H555   H     0.78316   0.44844   0.61470   0.00000  Uiso   1.00
H556   H     0.88350   0.55156   0.38530   0.00000  Uiso   1.00
I557   I     0.98238   0.49417   0.40728   0.00000  Uiso   1.00
I558   I     0.68429   0.50583   0.59272   0.00000  Uiso   1.00
I559   I     0.75573   0.42520   0.37502   0.00000  Uiso   1.00
I560   I     0.91094   0.57480   0.62498   0.00000  Uiso   1.00
N561   N     0.83335   0.50001   0.61736   0.00000  Uiso   1.00
N562   N     0.83332   0.49999   0.38264   0.00000  Uiso   1.00
O563   O     0.83333   0.43989   0.53958   0.00000  Uiso   1.00
O564   O     0.83334   0.56011   0.46042   0.00000  Uiso   1.00
O565   O     0.83333   0.43988   0.46039   0.00000  Uiso   1.00
O566   O     0.83334   0.56012   0.53961   0.00000  Uiso   1.00
O567   O     0.75828   0.50000   0.53046   0.00000  Uiso   1.00
O568   O     0.90839   0.50000   0.46954   0.00000  Uiso   1.00
O569   O     0.75828   0.49999   0.45127   0.00000  Uiso   1.00
O570   O     0.90839   0.50001   0.54873   0.00000  Uiso   1.00
C571   C     0.16652   0.75406   0.49977   0.00000  Uiso   1.00
C572   C     0.15664   0.68831   0.53995   0.00000  Uiso   1.00
C573   C     0.16689   0.95724   0.50031   0.00000  Uiso   1.00
C574   C     0.16644   0.70943   0.49969   0.00000  Uiso   1.00
C575   C     0.13815   0.80461   0.35299   0.00000  Uiso   1.00
C576   C     0.19518   0.86206   0.64701   0.00000  Uiso   1.00
C577   C     0.13887   0.80461   0.63717   0.00000  Uiso   1.00
C578   C     0.19446   0.86206   0.36283   0.00000  Uiso   1.00
C579   C     0.16681   0.91260   0.50023   0.00000  Uiso   1.00
C580   C     0.06812   0.83329   0.48806   0.00000  Uiso   1.00
C581   C     0.26521   0.83338   0.51194   0.00000  Uiso   1.00
C582   C     0.01329   0.83250   0.48127   0.00000  Uiso   1.00
C583   C     0.32005   0.83416   0.51873   0.00000  Uiso   1.00
C584   C     0.17650   0.68763   0.45976   0.00000  Uiso   1.00
C585   C     0.15683   0.97903   0.54024   0.00000  Uiso   1.00
C586   C     0.17670   0.97836   0.46005   0.00000  Uiso   1.00
Cu587  Cu    0.16667   0.83334   0.54689   0.00000  Uiso   1.00
Cu588  Cu    0.16667   0.83333   0.45311   0.00000  Uiso   1.00
H589   H     0.18462   0.70345   0.42852   0.00000  Uiso   1.00
H590   H     0.14871   0.96322   0.57148   0.00000  Uiso   1.00
H591   H     0.18479   0.96202   0.42885   0.00000  Uiso   1.00
H592   H     0.14854   0.70464   0.57115   0.00000  Uiso   1.00
H593   H     0.11650   0.78177   0.61470   0.00000  Uiso   1.00
H594   H     0.21683   0.88489   0.38530   0.00000  Uiso   1.00
I595   I     0.31571   0.82750   0.40728   0.00000  Uiso   1.00
I596   I     0.01762   0.83917   0.59272   0.00000  Uiso   1.00
I597   I     0.08906   0.75853   0.37502   0.00000  Uiso   1.00
I598   I     0.24427   0.90814   0.62498   0.00000  Uiso   1.00
N599   N     0.16668   0.83334   0.61736   0.00000  Uiso   1.00
N600   N     0.16665   0.83332   0.38264   0.00000  Uiso   1.00
O601   O     0.16666   0.77322   0.53958   0.00000  Uiso   1.00
O602   O     0.16667   0.89345   0.46042   0.00000  Uiso   1.00
O603   O     0.16666   0.77321   0.46039   0.00000  Uiso   1.00
O604   O     0.16667   0.89346   0.53961   0.00000  Uiso   1.00
O605   O     0.09161   0.83334   0.53046   0.00000  Uiso   1.00
O606   O     0.24172   0.83333   0.46954   0.00000  Uiso   1.00
O607   O     0.09161   0.83333   0.45127   0.00000  Uiso   1.00
O608   O     0.24172   0.83334   0.54873   0.00000  Uiso   1.00
C609   C     0.49986   0.75406   0.49977   0.00000  Uiso   1.00
C610   C     0.48997   0.68831   0.53995   0.00000  Uiso   1.00
C611   C     0.50022   0.95724   0.50031   0.00000  Uiso   1.00
C612   C     0.49978   0.70943   0.49969   0.00000  Uiso   1.00
C613   C     0.47149   0.80461   0.35299   0.00000  Uiso   1.00
C614   C     0.52851   0.86206   0.64701   0.00000  Uiso   1.00
C615   C     0.47220   0.80461   0.63717   0.00000  Uiso   1.00
C616   C     0.52780   0.86206   0.36283   0.00000  Uiso   1.00
C617   C     0.50014   0.91260   0.50023   0.00000  Uiso   1.00
C618   C     0.40145   0.83329   0.48806   0.00000  Uiso   1.00
C619   C     0.59855   0.83338   0.51194   0.00000  Uiso   1.00
C620   C     0.34662   0.83250   0.48127   0.00000  Uiso   1.00
C621   C     0.65338   0.83416   0.51873   0.00000  Uiso   1.00
C622   C     0.50984   0.68763   0.45976   0.00000  Uiso   1.00
C623   C     0.49016   0.97903   0.54024   0.00000  Uiso   1.00
C624   C     0.51003   0.97836   0.46005   0.00000  Uiso   1.00
Cu625  Cu    0.50000   0.83334   0.54689   0.00000  Uiso   1.00
Cu626  Cu    0.50000   0.83333   0.45311   0.00000  Uiso   1.00
H627   H     0.51795   0.70345   0.42852   0.00000  Uiso   1.00
H628   H     0.48205   0.96322   0.57148   0.00000  Uiso   1.00
H629   H     0.51812   0.96202   0.42885   0.00000  Uiso   1.00
H630   H     0.48188   0.70464   0.57115   0.00000  Uiso   1.00
H631   H     0.44983   0.78177   0.61470   0.00000  Uiso   1.00
H632   H     0.55017   0.88489   0.38530   0.00000  Uiso   1.00
I633   I     0.64905   0.82750   0.40728   0.00000  Uiso   1.00
I634   I     0.35095   0.83917   0.59272   0.00000  Uiso   1.00
I635   I     0.42240   0.75853   0.37502   0.00000  Uiso   1.00
I636   I     0.57760   0.90814   0.62498   0.00000  Uiso   1.00
N637   N     0.50001   0.83334   0.61736   0.00000  Uiso   1.00
N638   N     0.49999   0.83332   0.38264   0.00000  Uiso   1.00
O639   O     0.50000   0.77322   0.53958   0.00000  Uiso   1.00
O640   O     0.50000   0.89345   0.46042   0.00000  Uiso   1.00
O641   O     0.50000   0.77321   0.46039   0.00000  Uiso   1.00
O642   O     0.50000   0.89346   0.53961   0.00000  Uiso   1.00
O643   O     0.42495   0.83334   0.53046   0.00000  Uiso   1.00
O644   O     0.57505   0.83333   0.46954   0.00000  Uiso   1.00
O645   O     0.42494   0.83333   0.45127   0.00000  Uiso   1.00
O646   O     0.57506   0.83334   0.54873   0.00000  Uiso   1.00
C647   C     0.83319   0.75406   0.49977   0.00000  Uiso   1.00
C648   C     0.82330   0.68831   0.53995   0.00000  Uiso   1.00
C649   C     0.83356   0.95724   0.50031   0.00000  Uiso   1.00
C650   C     0.83311   0.70943   0.49969   0.00000  Uiso   1.00
C651   C     0.80482   0.80461   0.35299   0.00000  Uiso   1.00
C652   C     0.86185   0.86206   0.64701   0.00000  Uiso   1.00
C653   C     0.80554   0.80461   0.63717   0.00000  Uiso   1.00
C654   C     0.86113   0.86206   0.36283   0.00000  Uiso   1.00
C655   C     0.83348   0.91260   0.50023   0.00000  Uiso   1.00
C656   C     0.73479   0.83329   0.48806   0.00000  Uiso   1.00
C657   C     0.93188   0.83338   0.51194   0.00000  Uiso   1.00
C658   C     0.67995   0.83250   0.48127   0.00000  Uiso   1.00
C659   C     0.98671   0.83416   0.51873   0.00000  Uiso   1.00
C660   C     0.84317   0.68763   0.45976   0.00000  Uiso   1.00
C661   C     0.82350   0.97903   0.54024   0.00000  Uiso   1.00
C662   C     0.84336   0.97836   0.46005   0.00000  Uiso   1.00
Cu663  Cu    0.83333   0.83334   0.54689   0.00000  Uiso   1.00
Cu664  Cu    0.83333   0.83333   0.45311   0.00000  Uiso   1.00
H665   H     0.85129   0.70345   0.42852   0.00000  Uiso   1.00
H666   H     0.81538   0.96322   0.57148   0.00000  Uiso   1.00
H667   H     0.85146   0.96202   0.42885   0.00000  Uiso   1.00
H668   H     0.81521   0.70464   0.57115   0.00000  Uiso   1.00
H669   H     0.78316   0.78177   0.61470   0.00000  Uiso   1.00
H670   H     0.88350   0.88489   0.38530   0.00000  Uiso   1.00
I671   I     0.98238   0.82750   0.40728   0.00000  Uiso   1.00
I672   I     0.68429   0.83917   0.59272   0.00000  Uiso   1.00
I673   I     0.75573   0.75853   0.37502   0.00000  Uiso   1.00
I674   I     0.91094   0.90814   0.62498   0.00000  Uiso   1.00
N675   N     0.83335   0.83334   0.61736   0.00000  Uiso   1.00
N676   N     0.83332   0.83332   0.38264   0.00000  Uiso   1.00
O677   O     0.83333   0.77322   0.53958   0.00000  Uiso   1.00
O678   O     0.83334   0.89345   0.46042   0.00000  Uiso   1.00
O679   O     0.83333   0.77321   0.46039   0.00000  Uiso   1.00
O680   O     0.83334   0.89346   0.53961   0.00000  Uiso   1.00
O681   O     0.75828   0.83334   0.53046   0.00000  Uiso   1.00
O682   O     0.90839   0.83333   0.46954   0.00000  Uiso   1.00
O683   O     0.75828   0.83333   0.45127   0.00000  Uiso   1.00
O684   O     0.90839   0.83334   0.54873   0.00000  Uiso   1.00
C685   C     0.16652   0.08740   0.83310   0.00000  Uiso   1.00
C686   C     0.15664   0.02164   0.87328   0.00000  Uiso   1.00
C687   C     0.16689   0.29057   0.83364   0.00000  Uiso   1.00
C688   C     0.16644   0.04276   0.83302   0.00000  Uiso   1.00
C689   C     0.13815   0.13794   0.68632   0.00000  Uiso   1.00
C690   C     0.19518   0.19539   0.98034   0.00000  Uiso   1.00
C691   C     0.13887   0.13794   0.97051   0.00000  Uiso   1.00
C692   C     0.19446   0.19539   0.69616   0.00000  Uiso   1.00
C693   C     0.16681   0.24594   0.83357   0.00000  Uiso   1.00
C694   C     0.06812   0.16662   0.82139   0.00000  Uiso   1.00
C695   C     0.26521   0.16671   0.84527   0.00000  Uiso   1.00
C696   C     0.01329   0.16584   0.81461   0.00000  Uiso   1.00
C697   C     0.32005   0.16750   0.85206   0.00000  Uiso   1.00
C698   C     0.17650   0.02097   0.79309   0.00000  Uiso   1.00
C699   C     0.15683   0.31237   0.87357   0.00000  Uiso   1.00
C700   C     0.17670   0.31169   0.79338   0.00000  Uiso   1.00
Cu701  Cu    0.16667   0.16667   0.88022   0.00000  Uiso   1.00
Cu702  Cu    0.16667   0.16666   0.78645   0.00000  Uiso   1.00
H703   H     0.18462   0.03678   0.76186   0.00000  Uiso   1.00
H704   H     0.14871   0.29655   0.90481   0.00000  Uiso   1.00
H705   H     0.18479   0.29536   0.76219   0.00000  Uiso   1.00
H706   H     0.14854   0.03798   0.90448   0.00000  Uiso   1.00
H707   H     0.11650   0.11511   0.94804   0.00000  Uiso   1.00
H708   H     0.21683   0.21823   0.71863   0.00000  Uiso   1.00
I709   I     0.31571   0.16083   0.74061   0.00000  Uiso   1.00
I710   I     0.01762   0.17250   0.92606   0.00000  Uiso   1.00
I711   I     0.08906   0.09186   0.70835   0.00000  Uiso   1.00
I712   I     0.24427   0.24147   0.95831   0.00000  Uiso   1.00
N713   N     0.16668   0.16668   0.95069   0.00000  Uiso   1.00
N714   N     0.16665   0.16666   0.71597   0.00000  Uiso   1.00
O715   O     0.16666   0.10655   0.87291   0.00000  Uiso   1.00
O716   O     0.16667   0.22678   0.79375   0.00000  Uiso   1.00
O717   O     0.16666   0.10654   0.79372   0.00000  Uiso   1.00
O718   O     0.16667   0.22679   0.87294   0.00000  Uiso   1.00
O719   O     0.09161   0.16667   0.86379   0.00000  Uiso   1.00
O720   O     0.24172   0.16666   0.80288   0.00000  Uiso   1.00
O721   O     0.09161   0.16666   0.78460   0.00000  Uiso   1.00
O722   O     0.24172   0.16667   0.88207   0.00000  Uiso   1.00
C723   C     0.49986   0.08740   0.83310   0.00000  Uiso   1.00
C724   C     0.48997   0.02164   0.87328   0.00000  Uiso   1.00
C725   C     0.50022   0.29057   0.83364   0.00000  Uiso   1.00
C726   C     0.49978   0.04276   0.83302   0.00000  Uiso   1.00
C727   C     0.47149   0.13794   0.68632   0.00000  Uiso   1.00
C728   C     0.52851   0.19539   0.98034   0.00000  Uiso   1.00
C729   C     0.47220   0.13794   0.97051   0.00000  Uiso   1.00
C730   C     0.52780   0.19539   0.69616   0.00000  Uiso   1.00
C731   C     0.50014   0.24594   0.83357   0.00000  Uiso   1.00
C732   C     0.40145   0.16662   0.82139   0.00000  Uiso   1.00
C733   C     0.59855   0.16671   0.84527   0.00000  Uiso   1.00
C734   C     0.34662   0.16584   0.81461   0.00000  Uiso   1.00
C735   C     0.65338   0.16750   0.85206   0.00000  Uiso   1.00
C736   C     0.50984   0.02097   0.79309   0.00000  Uiso   1.00
C737   C     0.49016   0.31237   0.87357   0.00000  Uiso   1.00
C738   C     0.51003   0.31169   0.79338   0.00000  Uiso   1.00
Cu739  Cu    0.50000   0.16667   0.88022   0.00000  Uiso   1.00
Cu740  Cu    0.50000   0.16666   0.78645   0.00000  Uiso   1.00
H741   H     0.51795   0.03678   0.76186   0.00000  Uiso   1.00
H742   H     0.48205   0.29655   0.90481   0.00000  Uiso   1.00
H743   H     0.51812   0.29536   0.76219   0.00000  Uiso   1.00
H744   H     0.48188   0.03798   0.90448   0.00000  Uiso   1.00
H745   H     0.44983   0.11511   0.94804   0.00000  Uiso   1.00
H746   H     0.55017   0.21823   0.71863   0.00000  Uiso   1.00
I747   I     0.64905   0.16083   0.74061   0.00000  Uiso   1.00
I748   I     0.35095   0.17250   0.92606   0.00000  Uiso   1.00
I749   I     0.42240   0.09186   0.70835   0.00000  Uiso   1.00
I750   I     0.57760   0.24147   0.95831   0.00000  Uiso   1.00
N751   N     0.50001   0.16668   0.95069   0.00000  Uiso   1.00
N752   N     0.49999   0.16666   0.71597   0.00000  Uiso   1.00
O753   O     0.50000   0.10655   0.87291   0.00000  Uiso   1.00
O754   O     0.50000   0.22678   0.79375   0.00000  Uiso   1.00
O755   O     0.50000   0.10654   0.79372   0.00000  Uiso   1.00
O756   O     0.50000   0.22679   0.87294   0.00000  Uiso   1.00
O757   O     0.42495   0.16667   0.86379   0.00000  Uiso   1.00
O758   O     0.57505   0.16666   0.80288   0.00000  Uiso   1.00
O759   O     0.42494   0.16666   0.78460   0.00000  Uiso   1.00
O760   O     0.57506   0.16667   0.88207   0.00000  Uiso   1.00
C761   C     0.83319   0.08740   0.83310   0.00000  Uiso   1.00
C762   C     0.82330   0.02164   0.87328   0.00000  Uiso   1.00
C763   C     0.83356   0.29057   0.83364   0.00000  Uiso   1.00
C764   C     0.83311   0.04276   0.83302   0.00000  Uiso   1.00
C765   C     0.80482   0.13794   0.68632   0.00000  Uiso   1.00
C766   C     0.86185   0.19539   0.98034   0.00000  Uiso   1.00
C767   C     0.80554   0.13794   0.97051   0.00000  Uiso   1.00
C768   C     0.86113   0.19539   0.69616   0.00000  Uiso   1.00
C769   C     0.83348   0.24594   0.83357   0.00000  Uiso   1.00
C770   C     0.73479   0.16662   0.82139   0.00000  Uiso   1.00
C771   C     0.93188   0.16671   0.84527   0.00000  Uiso   1.00
C772   C     0.67995   0.16584   0.81461   0.00000  Uiso   1.00
C773   C     0.98671   0.16750   0.85206   0.00000  Uiso   1.00
C774   C     0.84317   0.02097   0.79309   0.00000  Uiso   1.00
C775   C     0.82350   0.31237   0.87357   0.00000  Uiso   1.00
C776   C     0.84336   0.31169   0.79338   0.00000  Uiso   1.00
Cu777  Cu    0.83333   0.16667   0.88022   0.00000  Uiso   1.00
Cu778  Cu    0.83333   0.16666   0.78645   0.00000  Uiso   1.00
H779   H     0.85129   0.03678   0.76186   0.00000  Uiso   1.00
H780   H     0.81538   0.29655   0.90481   0.00000  Uiso   1.00
H781   H     0.85146   0.29536   0.76219   0.00000  Uiso   1.00
H782   H     0.81521   0.03798   0.90448   0.00000  Uiso   1.00
H783   H     0.78316   0.11511   0.94804   0.00000  Uiso   1.00
H784   H     0.88350   0.21823   0.71863   0.00000  Uiso   1.00
I785   I     0.98238   0.16083   0.74061   0.00000  Uiso   1.00
I786   I     0.68429   0.17250   0.92606   0.00000  Uiso   1.00
I787   I     0.75573   0.09186   0.70835   0.00000  Uiso   1.00
I788   I     0.91094   0.24147   0.95831   0.00000  Uiso   1.00
N789   N     0.83335   0.16668   0.95069   0.00000  Uiso   1.00
N790   N     0.83332   0.16666   0.71597   0.00000  Uiso   1.00
O791   O     0.83333   0.10655   0.87291   0.00000  Uiso   1.00
O792   O     0.83334   0.22678   0.79375   0.00000  Uiso   1.00
O793   O     0.83333   0.10654   0.79372   0.00000  Uiso   1.00
O794   O     0.83334   0.22679   0.87294   0.00000  Uiso   1.00
O795   O     0.75828   0.16667   0.86379   0.00000  Uiso   1.00
O796   O     0.90839   0.16666   0.80288   0.00000  Uiso   1.00
O797   O     0.75828   0.16666   0.78460   0.00000  Uiso   1.00
O798   O     0.90839   0.16667   0.88207   0.00000  Uiso   1.00
C799   C     0.16652   0.42073   0.83310   0.00000  Uiso   1.00
C800   C     0.15664   0.35498   0.87328   0.00000  Uiso   1.00
C801   C     0.16689   0.62391   0.83364   0.00000  Uiso   1.00
C802   C     0.16644   0.37609   0.83302   0.00000  Uiso   1.00
C803   C     0.13815   0.47128   0.68632   0.00000  Uiso   1.00
C804   C     0.19518   0.52872   0.98034   0.00000  Uiso   1.00
C805   C     0.13887   0.47128   0.97051   0.00000  Uiso   1.00
C806   C     0.19446   0.52872   0.69616   0.00000  Uiso   1.00
C807   C     0.16681   0.57927   0.83357   0.00000  Uiso   1.00
C808   C     0.06812   0.49996   0.82139   0.00000  Uiso   1.00
C809   C     0.26521   0.50004   0.84527   0.00000  Uiso   1.00
C810   C     0.01329   0.49917   0.81461   0.00000  Uiso   1.00
C811   C     0.32005   0.50083   0.85206   0.00000  Uiso   1.00
C812   C     0.17650   0.35430   0.79309   0.00000  Uiso   1.00
C813   C     0.15683   0.64570   0.87357   0.00000  Uiso   1.00
C814   C     0.17670   0.64502   0.79338   0.00000  Uiso   1.00
Cu815  Cu    0.16667   0.50001   0.88022   0.00000  Uiso   1.00
Cu816  Cu    0.16667   0.49999   0.78645   0.00000  Uiso   1.00
H817   H     0.18462   0.37011   0.76186   0.00000  Uiso   1.00
H818   H     0.14871   0.62989   0.90481   0.00000  Uiso   1.00
H819   H     0.18479   0.62869   0.76219   0.00000  Uiso   1.00
H820   H     0.14854   0.37131   0.90448   0.00000  Uiso   1.00
H821   H     0.11650   0.44844   0.94804   0.00000  Uiso   1.00
H822   H     0.21683   0.55156   0.71863   0.00000  Uiso   1.00
I823   I     0.31571   0.49417   0.74061   0.00000  Uiso   1.00
I824   I     0.01762   0.50583   0.92606   0.00000  Uiso   1.00
I825   I     0.08906   0.42520   0.70835   0.00000  Uiso   1.00
I826   I     0.24427   0.57480   0.95831   0.00000  Uiso   1.00
N827   N     0.16668   0.50001   0.95069   0.00000  Uiso   1.00
N828   N     0.16665   0.49999   0.71597   0.00000  Uiso   1.00
O829   O     0.16666   0.43989   0.87291   0.00000  Uiso   1.00
O830   O     0.16667   0.56011   0.79375   0.00000  Uiso   1.00
O831   O     0.16666   0.43988   0.79372   0.00000  Uiso   1.00
O832   O     0.16667   0.56012   0.87294   0.00000  Uiso   1.00
O833   O     0.09161   0.50000   0.86379   0.00000  Uiso   1.00
O834   O     0.24172   0.50000   0.80288   0.00000  Uiso   1.00
O835   O     0.09161   0.49999   0.78460   0.00000  Uiso   1.00
O836   O     0.24172   0.50001   0.88207   0.00000  Uiso   1.00
C837   C     0.49986   0.42073   0.83310   0.00000  Uiso   1.00
C838   C     0.48997   0.35498   0.87328   0.00000  Uiso   1.00
C839   C     0.50022   0.62391   0.83364   0.00000  Uiso   1.00
C840   C     0.49978   0.37609   0.83302   0.00000  Uiso   1.00
C841   C     0.47149   0.47128   0.68632   0.00000  Uiso   1.00
C842   C     0.52851   0.52872   0.98034   0.00000  Uiso   1.00
C843   C     0.47220   0.47128   0.97051   0.00000  Uiso   1.00
C844   C     0.52780   0.52872   0.69616   0.00000  Uiso   1.00
C845   C     0.50014   0.57927   0.83357   0.00000  Uiso   1.00
C846   C     0.40145   0.49996   0.82139   0.00000  Uiso   1.00
C847   C     0.59855   0.50004   0.84527   0.00000  Uiso   1.00
C848   C     0.34662   0.49917   0.81461   0.00000  Uiso   1.00
C849   C     0.65338   0.50083   0.85206   0.00000  Uiso   1.00
C850   C     0.50984   0.35430   0.79309   0.00000  Uiso   1.00
C851   C     0.49016   0.64570   0.87357   0.00000  Uiso   1.00
C852   C     0.51003   0.64502   0.79338   0.00000  Uiso   1.00
Cu853  Cu    0.50000   0.50001   0.88022   0.00000  Uiso   1.00
Cu854  Cu    0.50000   0.49999   0.78645   0.00000  Uiso   1.00
H855   H     0.51795   0.37011   0.76186   0.00000  Uiso   1.00
H856   H     0.48205   0.62989   0.90481   0.00000  Uiso   1.00
H857   H     0.51812   0.62869   0.76219   0.00000  Uiso   1.00
H858   H     0.48188   0.37131   0.90448   0.00000  Uiso   1.00
H859   H     0.44983   0.44844   0.94804   0.00000  Uiso   1.00
H860   H     0.55017   0.55156   0.71863   0.00000  Uiso   1.00
I861   I     0.64905   0.49417   0.74061   0.00000  Uiso   1.00
I862   I     0.35095   0.50583   0.92606   0.00000  Uiso   1.00
I863   I     0.42240   0.42520   0.70835   0.00000  Uiso   1.00
I864   I     0.57760   0.57480   0.95831   0.00000  Uiso   1.00
N865   N     0.50001   0.50001   0.95069   0.00000  Uiso   1.00
N866   N     0.49999   0.49999   0.71597   0.00000  Uiso   1.00
O867   O     0.50000   0.43989   0.87291   0.00000  Uiso   1.00
O868   O     0.50000   0.56011   0.79375   0.00000  Uiso   1.00
O869   O     0.50000   0.43988   0.79372   0.00000  Uiso   1.00
O870   O     0.50000   0.56012   0.87294   0.00000  Uiso   1.00
O871   O     0.42495   0.50000   0.86379   0.00000  Uiso   1.00
O872   O     0.57505   0.50000   0.80288   0.00000  Uiso   1.00
O873   O     0.42494   0.49999   0.78460   0.00000  Uiso   1.00
O874   O     0.57506   0.50001   0.88207   0.00000  Uiso   1.00
C875   C     0.83319   0.42073   0.83310   0.00000  Uiso   1.00
C876   C     0.82330   0.35498   0.87328   0.00000  Uiso   1.00
C877   C     0.83356   0.62391   0.83364   0.00000  Uiso   1.00
C878   C     0.83311   0.37609   0.83302   0.00000  Uiso   1.00
C879   C     0.80482   0.47128   0.68632   0.00000  Uiso   1.00
C880   C     0.86185   0.52872   0.98034   0.00000  Uiso   1.00
C881   C     0.80554   0.47128   0.97051   0.00000  Uiso   1.00
C882   C     0.86113   0.52872   0.69616   0.00000  Uiso   1.00
C883   C     0.83348   0.57927   0.83357   0.00000  Uiso   1.00
C884   C     0.73479   0.49996   0.82139   0.00000  Uiso   1.00
C885   C     0.93188   0.50004   0.84527   0.00000  Uiso   1.00
C886   C     0.67995   0.49917   0.81461   0.00000  Uiso   1.00
C887   C     0.98671   0.50083   0.85206   0.00000  Uiso   1.00
C888   C     0.84317   0.35430   0.79309   0.00000  Uiso   1.00
C889   C     0.82350   0.64570   0.87357   0.00000  Uiso   1.00
C890   C     0.84336   0.64502   0.79338   0.00000  Uiso   1.00
Cu891  Cu    0.83333   0.50001   0.88022   0.00000  Uiso   1.00
Cu892  Cu    0.83333   0.49999   0.78645   0.00000  Uiso   1.00
H893   H     0.85129   0.37011   0.76186   0.00000  Uiso   1.00
H894   H     0.81538   0.62989   0.90481   0.00000  Uiso   1.00
H895   H     0.85146   0.62869   0.76219   0.00000  Uiso   1.00
H896   H     0.81521   0.37131   0.90448   0.00000  Uiso   1.00
H897   H     0.78316   0.44844   0.94804   0.00000  Uiso   1.00
H898   H     0.88350   0.55156   0.71863   0.00000  Uiso   1.00
I899   I     0.98238   0.49417   0.74061   0.00000  Uiso   1.00
I900   I     0.68429   0.50583   0.92606   0.00000  Uiso   1.00
I901   I     0.75573   0.42520   0.70835   0.00000  Uiso   1.00
I902   I     0.91094   0.57480   0.95831   0.00000  Uiso   1.00
N903   N     0.83335   0.50001   0.95069   0.00000  Uiso   1.00
N904   N     0.83332   0.49999   0.71597   0.00000  Uiso   1.00
O905   O     0.83333   0.43989   0.87291   0.00000  Uiso   1.00
O906   O     0.83334   0.56011   0.79375   0.00000  Uiso   1.00
O907   O     0.83333   0.43988   0.79372   0.00000  Uiso   1.00
O908   O     0.83334   0.56012   0.87294   0.00000  Uiso   1.00
O909   O     0.75828   0.50000   0.86379   0.00000  Uiso   1.00
O910   O     0.90839   0.50000   0.80288   0.00000  Uiso   1.00
O911   O     0.75828   0.49999   0.78460   0.00000  Uiso   1.00
O912   O     0.90839   0.50001   0.88207   0.00000  Uiso   1.00
C913   C     0.16652   0.75406   0.83310   0.00000  Uiso   1.00
C914   C     0.15664   0.68831   0.87328   0.00000  Uiso   1.00
C915   C     0.16689   0.95724   0.83364   0.00000  Uiso   1.00
C916   C     0.16644   0.70943   0.83302   0.00000  Uiso   1.00
C917   C     0.13815   0.80461   0.68632   0.00000  Uiso   1.00
C918   C     0.19518   0.86206   0.98034   0.00000  Uiso   1.00
C919   C     0.13887   0.80461   0.97051   0.00000  Uiso   1.00
C920   C     0.19446   0.86206   0.69616   0.00000  Uiso   1.00
C921   C     0.16681   0.91260   0.83357   0.00000  Uiso   1.00
C922   C     0.06812   0.83329   0.82139   0.00000  Uiso   1.00
C923   C     0.26521   0.83338   0.84527   0.00000  Uiso   1.00
C924   C     0.01329   0.83250   0.81461   0.00000  Uiso   1.00
C925   C     0.32005   0.83416   0.85206   0.00000  Uiso   1.00
C926   C     0.17650   0.68763   0.79309   0.00000  Uiso   1.00
C927   C     0.15683   0.97903   0.87357   0.00000  Uiso   1.00
C928   C     0.17670   0.97836   0.79338   0.00000  Uiso   1.00
Cu929  Cu    0.16667   0.83334   0.88022   0.00000  Uiso   1.00
Cu930  Cu    0.16667   0.83333   0.78645   0.00000  Uiso   1.00
H931   H     0.18462   0.70345   0.76186   0.00000  Uiso   1.00
H932   H     0.14871   0.96322   0.90481   0.00000  Uiso   1.00
H933   H     0.18479   0.96202   0.76219   0.00000  Uiso   1.00
H934   H     0.14854   0.70464   0.90448   0.00000  Uiso   1.00
H935   H     0.11650   0.78177   0.94804   0.00000  Uiso   1.00
H936   H     0.21683   0.88489   0.71863   0.00000  Uiso   1.00
I937   I     0.31571   0.82750   0.74061   0.00000  Uiso   1.00
I938   I     0.01762   0.83917   0.92606   0.00000  Uiso   1.00
I939   I     0.08906   0.75853   0.70835   0.00000  Uiso   1.00
I940   I     0.24427   0.90814   0.95831   0.00000  Uiso   1.00
N941   N     0.16668   0.83334   0.95069   0.00000  Uiso   1.00
N942   N     0.16665   0.83332   0.71597   0.00000  Uiso   1.00
O943   O     0.16666   0.77322   0.87291   0.00000  Uiso   1.00
O944   O     0.16667   0.89345   0.79375   0.00000  Uiso   1.00
O945   O     0.16666   0.77321   0.79372   0.00000  Uiso   1.00
O946   O     0.16667   0.89346   0.87294   0.00000  Uiso   1.00
O947   O     0.09161   0.83334   0.86379   0.00000  Uiso   1.00
O948   O     0.24172   0.83333   0.80288   0.00000  Uiso   1.00
O949   O     0.09161   0.83333   0.78460   0.00000  Uiso   1.00
O950   O     0.24172   0.83334   0.88207   0.00000  Uiso   1.00
C951   C     0.49986   0.75406   0.83310   0.00000  Uiso   1.00
C952   C     0.48997   0.68831   0.87328   0.00000  Uiso   1.00
C953   C     0.50022   0.95724   0.83364   0.00000  Uiso   1.00
C954   C     0.49978   0.70943   0.83302   0.00000  Uiso   1.00
C955   C     0.47149   0.80461   0.68632   0.00000  Uiso   1.00
C956   C     0.52851   0.86206   0.98034   0.00000  Uiso   1.00
C957   C     0.47220   0.80461   0.97051   0.00000  Uiso   1.00
C958   C     0.52780   0.86206   0.69616   0.00000  Uiso   1.00
C959   C     0.50014   0.91260   0.83357   0.00000  Uiso   1.00
C960   C     0.40145   0.83329   0.82139   0.00000  Uiso   1.00
C961   C     0.59855   0.83338   0.84527   0.00000  Uiso   1.00
C962   C     0.34662   0.83250   0.81461   0.00000  Uiso   1.00
C963   C     0.65338   0.83416   0.85206   0.00000  Uiso   1.00
C964   C     0.50984   0.68763   0.79309   0.00000  Uiso   1.00
C965   C     0.49016   0.97903   0.87357   0.00000  Uiso   1.00
C966   C     0.51003   0.97836   0.79338   0.00000  Uiso   1.00
Cu967  Cu    0.50000   0.83334   0.88022   0.00000  Uiso   1.00
Cu968  Cu    0.50000   0.83333   0.78645   0.00000  Uiso   1.00
H969   H     0.51795   0.70345   0.76186   0.00000  Uiso   1.00
H970   H     0.48205   0.96322   0.90481   0.00000  Uiso   1.00
H971   H     0.51812   0.96202   0.76219   0.00000  Uiso   1.00
H972   H     0.48188   0.70464   0.90448   0.00000  Uiso   1.00
H973   H     0.44983   0.78177   0.94804   0.00000  Uiso   1.00
H974   H     0.55017   0.88489   0.71863   0.00000  Uiso   1.00
I975   I     0.64905   0.82750   0.74061   0.00000  Uiso   1.00
I976   I     0.35095   0.83917   0.92606   0.00000  Uiso   1.00
I977   I     0.42240   0.75853   0.70835   0.00000  Uiso   1.00
I978   I     0.57760   0.90814   0.95831   0.00000  Uiso   1.00
N979   N     0.50001   0.83334   0.95069   0.00000  Uiso   1.00
N980   N     0.49999   0.83332   0.71597   0.00000  Uiso   1.00
O981   O     0.50000   0.77322   0.87291   0.00000  Uiso   1.00
O982   O     0.50000   0.89345   0.79375   0.00000  Uiso   1.00
O983   O     0.50000   0.77321   0.79372   0.00000  Uiso   1.00
O984   O     0.50000   0.89346   0.87294   0.00000  Uiso   1.00
O985   O     0.42495   0.83334   0.86379   0.00000  Uiso   1.00
O986   O     0.57505   0.83333   0.80288   0.00000  Uiso   1.00
O987   O     0.42494   0.83333   0.78460   0.00000  Uiso   1.00
O988   O     0.57506   0.83334   0.88207   0.00000  Uiso   1.00
C989   C     0.83319   0.75406   0.83310   0.00000  Uiso   1.00
C990   C     0.82330   0.68831   0.87328   0.00000  Uiso   1.00
C991   C     0.83356   0.95724   0.83364   0.00000  Uiso   1.00
C992   C     0.83311   0.70943   0.83302   0.00000  Uiso   1.00
C993   C     0.80482   0.80461   0.68632   0.00000  Uiso   1.00
C994   C     0.86185   0.86206   0.98034   0.00000  Uiso   1.00
C995   C     0.80554   0.80461   0.97051   0.00000  Uiso   1.00
C996   C     0.86113   0.86206   0.69616   0.00000  Uiso   1.00
C997   C     0.83348   0.91260   0.83357   0.00000  Uiso   1.00
C998   C     0.73479   0.83329   0.82139   0.00000  Uiso   1.00
C999   C     0.93188   0.83338   0.84527   0.00000  Uiso   1.00
C1000  C     0.67995   0.83250   0.81461   0.00000  Uiso   1.00
C1001  C     0.98671   0.83416   0.85206   0.00000  Uiso   1.00
C1002  C     0.84317   0.68763   0.79309   0.00000  Uiso   1.00
C1003  C     0.82350   0.97903   0.87357   0.00000  Uiso   1.00
C1004  C     0.84336   0.97836   0.79338   0.00000  Uiso   1.00
Cu1005 Cu    0.83333   0.83334   0.88022   0.00000  Uiso   1.00
Cu1006 Cu    0.83333   0.83333   0.78645   0.00000  Uiso   1.00
H1007  H     0.85129   0.70345   0.76186   0.00000  Uiso   1.00
H1008  H     0.81538   0.96322   0.90481   0.00000  Uiso   1.00
H1009  H     0.85146   0.96202   0.76219   0.00000  Uiso   1.00
H1010  H     0.81521   0.70464   0.90448   0.00000  Uiso   1.00
H1011  H     0.78316   0.78177   0.94804   0.00000  Uiso   1.00
H1012  H     0.88350   0.88489   0.71863   0.00000  Uiso   1.00
I1013  I     0.98238   0.82750   0.74061   0.00000  Uiso   1.00
I1014  I     0.68429   0.83917   0.92606   0.00000  Uiso   1.00
I1015  I     0.75573   0.75853   0.70835   0.00000  Uiso   1.00
I1016  I     0.91094   0.90814   0.95831   0.00000  Uiso   1.00
N1017  N     0.83335   0.83334   0.95069   0.00000  Uiso   1.00
N1018  N     0.83332   0.83332   0.71597   0.00000  Uiso   1.00
O1019  O     0.83333   0.77322   0.87291   0.00000  Uiso   1.00
O1020  O     0.83334   0.89345   0.79375   0.00000  Uiso   1.00
O1021  O     0.83333   0.77321   0.79372   0.00000  Uiso   1.00
O1022  O     0.83334   0.89346   0.87294   0.00000  Uiso   1.00
O1023  O     0.75828   0.83334   0.86379   0.00000  Uiso   1.00
O1024  O     0.90839   0.83333   0.80288   0.00000  Uiso   1.00
O1025  O     0.75828   0.83333   0.78460   0.00000  Uiso   1.00
O1026  O     0.90839   0.83334   0.88207   0.00000  Uiso   1.00
loop_
_geom_bond_atom_site_label_1
_geom_bond_atom_site_label_2
_geom_bond_distance
_geom_bond_site_symmetry_2
_ccdc_geom_bond_type
C1     C4      1.448   .     S
C1     O33     1.297   .     A
C1     O31     1.291   .     A
C2     H22     1.084   .     S
C2     C4      1.403   .     A
C2     C243    1.383   1_545 S
C3     C9      1.448   .     S
C3     C15     1.399   .     A
C3     C16     1.403   .     A
C4     C14     1.399   .     A
C5     N30     1.385   .     A
C5     I27     2.120   .     S
C5     C691    1.411   1_554 S
C6     N29     1.385   .     A
C6     I28     2.120   .     S
C6     C350    1.411   .     S
C7     H23     1.082   .     S
C7     N29     1.355   .     A
C7     C347    1.411   .     S
C8     N30     1.355   .     A
C8     H24     1.081   .     S
C8     C690    1.411   1_554 S
C9     O34     1.297   .     A
C9     O32     1.291   .     A
C10    O35     1.285   .     A
C10    C12     1.446   .     S
C10    O37     1.301   .     A
C11    O38     1.301   .     A
C11    C13     1.446   .     S
C11    O36     1.285   .     A
C12    C89     1.369   1_455 S
C12    I101    2.165   1_455 S
C13    C50     1.369   .     S
C13    I64     2.165   .     S
C14    H19     1.083   .     S
C14    C244    1.383   1_545 S
C15    H20     1.083   .     S
C15    C116    1.383   .     S
C16    H21     1.084   .     S
C16    C128    1.383   .     S
Cu17   N29     2.020   .     S
Cu17   Cu18    2.687   .     S
Cu17   O38     1.993   .     S
Cu17   O31     1.959   .     S
Cu17   O34     1.965   .     S
Cu17   O35     1.988   .     S
Cu18   N30     2.020   .     S
Cu18   O37     1.993   .     S
Cu18   O33     1.965   .     S
Cu18   O32     1.959   .     S
Cu18   O36     1.988   .     S
I25    C50     2.165   .     S
I26    C89     2.165   1_455 S
C39    C42     1.448   .     S
C39    O71     1.297   .     A
C39    O69     1.291   .     A
C40    H60     1.084   .     S
C40    C42     1.403   .     A
C40    C281    1.383   1_545 S
C41    C47     1.448   .     S
C41    C53     1.399   .     A
C41    C54     1.403   .     A
C42    C52     1.399   .     A
C43    N68     1.385   .     A
C43    I65     2.120   .     S
C43    C729    1.411   1_554 S
C44    N67     1.385   .     A
C44    I66     2.120   .     S
C44    C388    1.411   .     S
C45    H61     1.082   .     S
C45    N67     1.355   .     A
C45    C385    1.411   .     S
C46    N68     1.355   .     A
C46    H62     1.081   .     S
C46    C728    1.411   1_554 S
C47    O72     1.297   .     A
C47    O70     1.291   .     A
C48    O73     1.285   .     A
C48    C50     1.446   .     S
C48    O75     1.301   .     A
C49    O76     1.301   .     A
C49    C51     1.446   .     S
C49    O74     1.285   .     A
C51    C88     1.369   .     S
C51    I102    2.165   .     S
C52    H57     1.083   .     S
C52    C282    1.383   1_545 S
C53    H58     1.083   .     S
C53    C154    1.383   .     S
C54    H59     1.084   .     S
C54    C166    1.383   .     S
Cu55   N67     2.020   .     S
Cu55   Cu56    2.687   .     S
Cu55   O76     1.993   .     S
Cu55   O69     1.959   .     S
Cu55   O72     1.965   .     S
Cu55   O73     1.988   .     S
Cu56   N68     2.020   .     S
Cu56   O75     1.993   .     S
Cu56   O71     1.965   .     S
Cu56   O70     1.959   .     S
Cu56   O74     1.988   .     S
I63    C88     2.165   .     S
C77    C80     1.448   .     S
C77    O109    1.297   .     A
C77    O107    1.291   .     A
C78    H98     1.084   .     S
C78    C80     1.403   .     A
C78    C319    1.383   1_545 S
C79    C85     1.448   .     S
C79    C91     1.399   .     A
C79    C92     1.403   .     A
C80    C90     1.399   .     A
C81    N106    1.385   .     A
C81    I103    2.120   .     S
C81    C767    1.411   1_554 S
C82    N105    1.385   .     A
C82    I104    2.120   .     S
C82    C426    1.411   .     S
C83    H99     1.082   .     S
C83    N105    1.355   .     A
C83    C423    1.411   .     S
C84    N106    1.355   .     A
C84    H100    1.081   .     S
C84    C766    1.411   1_554 S
C85    O110    1.297   .     A
C85    O108    1.291   .     A
C86    O111    1.285   .     A
C86    C88     1.446   .     S
C86    O113    1.301   .     A
C87    O114    1.301   .     A
C87    C89     1.446   .     S
C87    O112    1.285   .     A
C89    C12     1.369   1_655 S
C89    I26     2.165   1_655 S
C90    H95     1.083   .     S
C90    C320    1.383   1_545 S
C91    H96     1.083   .     S
C91    C192    1.383   .     S
C92    H97     1.084   .     S
C92    C204    1.383   .     S
Cu93   N105    2.020   .     S
Cu93   Cu94    2.687   .     S
Cu93   O114    1.993   .     S
Cu93   O107    1.959   .     S
Cu93   O110    1.965   .     S
Cu93   O111    1.988   .     S
Cu94   N106    2.020   .     S
Cu94   O113    1.993   .     S
Cu94   O109    1.965   .     S
Cu94   O108    1.959   .     S
Cu94   O112    1.988   .     S
I101   C12     2.165   1_655 S
C115   C118    1.448   .     S
C115   O147    1.297   .     A
C115   O145    1.291   .     A
C116   H136    1.084   .     S
C116   C118    1.403   .     A
C117   C123    1.448   .     S
C117   C129    1.399   .     A
C117   C130    1.403   .     A
C118   C128    1.399   .     A
C119   N144    1.385   .     A
C119   I141    2.120   .     S
C119   C805    1.411   1_554 S
C120   N143    1.385   .     A
C120   I142    2.120   .     S
C120   C464    1.411   .     S
C121   H137    1.082   .     S
C121   N143    1.355   .     A
C121   C461    1.411   .     S
C122   N144    1.355   .     A
C122   H138    1.081   .     S
C122   C804    1.411   1_554 S
C123   O148    1.297   .     A
C123   O146    1.291   .     A
C124   O149    1.285   .     A
C124   C126    1.446   .     S
C124   O151    1.301   .     A
C125   O152    1.301   .     A
C125   C127    1.446   .     S
C125   O150    1.285   .     A
C126   C203    1.369   1_455 S
C126   I215    2.165   1_455 S
C127   C164    1.369   .     S
C127   I178    2.165   .     S
C128   H133    1.083   .     S
C129   H134    1.083   .     S
C129   C230    1.383   .     S
C130   H135    1.084   .     S
C130   C242    1.383   .     S
Cu131  N143    2.020   .     S
Cu131  Cu132   2.687   .     S
Cu131  O152    1.993   .     S
Cu131  O145    1.959   .     S
Cu131  O148    1.965   .     S
Cu131  O149    1.988   .     S
Cu132  N144    2.020   .     S
Cu132  O151    1.993   .     S
Cu132  O147    1.965   .     S
Cu132  O146    1.959   .     S
Cu132  O150    1.988   .     S
I139   C164    2.165   .     S
I140   C203    2.165   1_455 S
C153   C156    1.448   .     S
C153   O185    1.297   .     A
C153   O183    1.291   .     A
C154   H174    1.084   .     S
C154   C156    1.403   .     A
C155   C161    1.448   .     S
C155   C167    1.399   .     A
C155   C168    1.403   .     A
C156   C166    1.399   .     A
C157   N182    1.385   .     A
C157   I179    2.120   .     S
C157   C843    1.411   1_554 S
C158   N181    1.385   .     A
C158   I180    2.120   .     S
C158   C502    1.411   .     S
C159   H175    1.082   .     S
C159   N181    1.355   .     A
C159   C499    1.411   .     S
C160   N182    1.355   .     A
C160   H176    1.081   .     S
C160   C842    1.411   1_554 S
C161   O186    1.297   .     A
C161   O184    1.291   .     A
C162   O187    1.285   .     A
C162   C164    1.446   .     S
C162   O189    1.301   .     A
C163   O190    1.301   .     A
C163   C165    1.446   .     S
C163   O188    1.285   .     A
C165   C202    1.369   .     S
C165   I216    2.165   .     S
C166   H171    1.083   .     S
C167   H172    1.083   .     S
C167   C268    1.383   .     S
C168   H173    1.084   .     S
C168   C280    1.383   .     S
Cu169  N181    2.020   .     S
Cu169  Cu170   2.687   .     S
Cu169  O190    1.993   .     S
Cu169  O183    1.959   .     S
Cu169  O186    1.965   .     S
Cu169  O187    1.988   .     S
Cu170  N182    2.020   .     S
Cu170  O189    1.993   .     S
Cu170  O185    1.965   .     S
Cu170  O184    1.959   .     S
Cu170  O188    1.988   .     S
I177   C202    2.165   .     S
C191   C194    1.448   .     S
C191   O223    1.297   .     A
C191   O221    1.291   .     A
C192   H212    1.084   .     S
C192   C194    1.403   .     A
C193   C199    1.448   .     S
C193   C205    1.399   .     A
C193   C206    1.403   .     A
C194   C204    1.399   .     A
C195   N220    1.385   .     A
C195   I217    2.120   .     S
C195   C881    1.411   1_554 S
C196   N219    1.385   .     A
C196   I218    2.120   .     S
C196   C540    1.411   .     S
C197   H213    1.082   .     S
C197   N219    1.355   .     A
C197   C537    1.411   .     S
C198   N220    1.355   .     A
C198   H214    1.081   .     S
C198   C880    1.411   1_554 S
C199   O224    1.297   .     A
C199   O222    1.291   .     A
C200   O225    1.285   .     A
C200   C202    1.446   .     S
C200   O227    1.301   .     A
C201   O228    1.301   .     A
C201   C203    1.446   .     S
C201   O226    1.285   .     A
C203   C126    1.369   1_655 S
C203   I140    2.165   1_655 S
C204   H209    1.083   .     S
C205   H210    1.083   .     S
C205   C306    1.383   .     S
C206   H211    1.084   .     S
C206   C318    1.383   .     S
Cu207  N219    2.020   .     S
Cu207  Cu208   2.687   .     S
Cu207  O228    1.993   .     S
Cu207  O221    1.959   .     S
Cu207  O224    1.965   .     S
Cu207  O225    1.988   .     S
Cu208  N220    2.020   .     S
Cu208  O227    1.993   .     S
Cu208  O223    1.965   .     S
Cu208  O222    1.959   .     S
Cu208  O226    1.988   .     S
I215   C126    2.165   1_655 S
C229   C232    1.448   .     S
C229   O261    1.297   .     A
C229   O259    1.291   .     A
C230   H250    1.084   .     S
C230   C232    1.403   .     A
C231   C237    1.448   .     S
C231   C243    1.399   .     A
C231   C244    1.403   .     A
C232   C242    1.399   .     A
C233   N258    1.385   .     A
C233   I255    2.120   .     S
C233   C919    1.411   1_554 S
C234   N257    1.385   .     A
C234   I256    2.120   .     S
C234   C578    1.411   .     S
C235   H251    1.082   .     S
C235   N257    1.355   .     A
C235   C575    1.411   .     S
C236   N258    1.355   .     A
C236   H252    1.081   .     S
C236   C918    1.411   1_554 S
C237   O262    1.297   .     A
C237   O260    1.291   .     A
C238   O263    1.285   .     A
C238   C240    1.446   .     S
C238   O265    1.301   .     A
C239   O266    1.301   .     A
C239   C241    1.446   .     S
C239   O264    1.285   .     A
C240   C317    1.369   1_455 S
C240   I329    2.165   1_455 S
C241   C278    1.369   .     S
C241   I292    2.165   .     S
C242   H247    1.083   .     S
C243   H248    1.083   .     S
C243   C2      1.383   1_565 S
C244   H249    1.084   .     S
C244   C14     1.383   1_565 S
Cu245  N257    2.020   .     S
Cu245  Cu246   2.687   .     S
Cu245  O266    1.993   .     S
Cu245  O259    1.959   .     S
Cu245  O262    1.965   .     S
Cu245  O263    1.988   .     S
Cu246  N258    2.020   .     S
Cu246  O265    1.993   .     S
Cu246  O261    1.965   .     S
Cu246  O260    1.959   .     S
Cu246  O264    1.988   .     S
I253   C278    2.165   .     S
I254   C317    2.165   1_455 S
C267   C270    1.448   .     S
C267   O299    1.297   .     A
C267   O297    1.291   .     A
C268   H288    1.084   .     S
C268   C270    1.403   .     A
C269   C275    1.448   .     S
C269   C281    1.399   .     A
C269   C282    1.403   .     A
C270   C280    1.399   .     A
C271   N296    1.385   .     A
C271   I293    2.120   .     S
C271   C957    1.411   1_554 S
C272   N295    1.385   .     A
C272   I294    2.120   .     S
C272   C616    1.411   .     S
C273   H289    1.082   .     S
C273   N295    1.355   .     A
C273   C613    1.411   .     S
C274   N296    1.355   .     A
C274   H290    1.081   .     S
C274   C956    1.411   1_554 S
C275   O300    1.297   .     A
C275   O298    1.291   .     A
C276   O301    1.285   .     A
C276   C278    1.446   .     S
C276   O303    1.301   .     A
C277   O304    1.301   .     A
C277   C279    1.446   .     S
C277   O302    1.285   .     A
C279   C316    1.369   .     S
C279   I330    2.165   .     S
C280   H285    1.083   .     S
C281   H286    1.083   .     S
C281   C40     1.383   1_565 S
C282   H287    1.084   .     S
C282   C52     1.383   1_565 S
Cu283  N295    2.020   .     S
Cu283  Cu284   2.687   .     S
Cu283  O304    1.993   .     S
Cu283  O297    1.959   .     S
Cu283  O300    1.965   .     S
Cu283  O301    1.988   .     S
Cu284  N296    2.020   .     S
Cu284  O303    1.993   .     S
Cu284  O299    1.965   .     S
Cu284  O298    1.959   .     S
Cu284  O302    1.988   .     S
I291   C316    2.165   .     S
C305   C308    1.448   .     S
C305   O337    1.297   .     A
C305   O335    1.291   .     A
C306   H326    1.084   .     S
C306   C308    1.403   .     A
C307   C313    1.448   .     S
C307   C319    1.399   .     A
C307   C320    1.403   .     A
C308   C318    1.399   .     A
C309   N334    1.385   .     A
C309   I331    2.120   .     S
C309   C995    1.411   1_554 S
C310   N333    1.385   .     A
C310   I332    2.120   .     S
C310   C654    1.411   .     S
C311   H327    1.082   .     S
C311   N333    1.355   .     A
C311   C651    1.411   .     S
C312   N334    1.355   .     A
C312   H328    1.081   .     S
C312   C994    1.411   1_554 S
C313   O338    1.297   .     A
C313   O336    1.291   .     A
C314   O339    1.285   .     A
C314   C316    1.446   .     S
C314   O341    1.301   .     A
C315   O342    1.301   .     A
C315   C317    1.446   .     S
C315   O340    1.285   .     A
C317   C240    1.369   1_655 S
C317   I254    2.165   1_655 S
C318   H323    1.083   .     S
C319   H324    1.083   .     S
C319   C78     1.383   1_565 S
C320   H325    1.084   .     S
C320   C90     1.383   1_565 S
Cu321  N333    2.020   .     S
Cu321  Cu322   2.687   .     S
Cu321  O342    1.993   .     S
Cu321  O335    1.959   .     S
Cu321  O338    1.965   .     S
Cu321  O339    1.988   .     S
Cu322  N334    2.020   .     S
Cu322  O341    1.993   .     S
Cu322  O337    1.965   .     S
Cu322  O336    1.959   .     S
Cu322  O340    1.988   .     S
I329   C240    2.165   1_655 S
C343   C346    1.448   .     S
C343   O375    1.297   .     A
C343   O373    1.291   .     A
C344   H364    1.084   .     S
C344   C346    1.403   .     A
C344   C585    1.383   1_545 S
C345   C351    1.448   .     S
C345   C357    1.399   .     A
C345   C358    1.403   .     A
C346   C356    1.399   .     A
C347   N372    1.385   .     A
C347   I369    2.120   .     S
C348   N371    1.385   .     A
C348   I370    2.120   .     S
C348   C692    1.411   .     S
C349   H365    1.082   .     S
C349   N371    1.355   .     A
C349   C689    1.411   .     S
C350   N372    1.355   .     A
C350   H366    1.081   .     S
C351   O376    1.297   .     A
C351   O374    1.291   .     A
C352   O377    1.285   .     A
C352   C354    1.446   .     S
C352   O379    1.301   .     A
C353   O380    1.301   .     A
C353   C355    1.446   .     S
C353   O378    1.285   .     A
C354   C431    1.369   1_455 S
C354   I443    2.165   1_455 S
C355   C392    1.369   .     S
C355   I406    2.165   .     S
C356   H361    1.083   .     S
C356   C586    1.383   1_545 S
C357   H362    1.083   .     S
C357   C458    1.383   .     S
C358   H363    1.084   .     S
C358   C470    1.383   .     S
Cu359  N371    2.020   .     S
Cu359  Cu360   2.687   .     S
Cu359  O380    1.993   .     S
Cu359  O373    1.959   .     S
Cu359  O376    1.965   .     S
Cu359  O377    1.988   .     S
Cu360  N372    2.020   .     S
Cu360  O379    1.993   .     S
Cu360  O375    1.965   .     S
Cu360  O374    1.959   .     S
Cu360  O378    1.988   .     S
I367   C392    2.165   .     S
I368   C431    2.165   1_455 S
C381   C384    1.448   .     S
C381   O413    1.297   .     A
C381   O411    1.291   .     A
C382   H402    1.084   .     S
C382   C384    1.403   .     A
C382   C623    1.383   1_545 S
C383   C389    1.448   .     S
C383   C395    1.399   .     A
C383   C396    1.403   .     A
C384   C394    1.399   .     A
C385   N410    1.385   .     A
C385   I407    2.120   .     S
C386   N409    1.385   .     A
C386   I408    2.120   .     S
C386   C730    1.411   .     S
C387   H403    1.082   .     S
C387   N409    1.355   .     A
C387   C727    1.411   .     S
C388   N410    1.355   .     A
C388   H404    1.081   .     S
C389   O414    1.297   .     A
C389   O412    1.291   .     A
C390   O415    1.285   .     A
C390   C392    1.446   .     S
C390   O417    1.301   .     A
C391   O418    1.301   .     A
C391   C393    1.446   .     S
C391   O416    1.285   .     A
C393   C430    1.369   .     S
C393   I444    2.165   .     S
C394   H399    1.083   .     S
C394   C624    1.383   1_545 S
C395   H400    1.083   .     S
C395   C496    1.383   .     S
C396   H401    1.084   .     S
C396   C508    1.383   .     S
Cu397  N409    2.020   .     S
Cu397  Cu398   2.687   .     S
Cu397  O418    1.993   .     S
Cu397  O411    1.959   .     S
Cu397  O414    1.965   .     S
Cu397  O415    1.988   .     S
Cu398  N410    2.020   .     S
Cu398  O417    1.993   .     S
Cu398  O413    1.965   .     S
Cu398  O412    1.959   .     S
Cu398  O416    1.988   .     S
I405   C430    2.165   .     S
C419   C422    1.448   .     S
C419   O451    1.297   .     A
C419   O449    1.291   .     A
C420   H440    1.084   .     S
C420   C422    1.403   .     A
C420   C661    1.383   1_545 S
C421   C427    1.448   .     S
C421   C433    1.399   .     A
C421   C434    1.403   .     A
C422   C432    1.399   .     A
C423   N448    1.385   .     A
C423   I445    2.120   .     S
C424   N447    1.385   .     A
C424   I446    2.120   .     S
C424   C768    1.411   .     S
C425   H441    1.082   .     S
C425   N447    1.355   .     A
C425   C765    1.411   .     S
C426   N448    1.355   .     A
C426   H442    1.081   .     S
C427   O452    1.297   .     A
C427   O450    1.291   .     A
C428   O453    1.285   .     A
C428   C430    1.446   .     S
C428   O455    1.301   .     A
C429   O456    1.301   .     A
C429   C431    1.446   .     S
C429   O454    1.285   .     A
C431   C354    1.369   1_655 S
C431   I368    2.165   1_655 S
C432   H437    1.083   .     S
C432   C662    1.383   1_545 S
C433   H438    1.083   .     S
C433   C534    1.383   .     S
C434   H439    1.084   .     S
C434   C546    1.383   .     S
Cu435  N447    2.020   .     S
Cu435  Cu436   2.687   .     S
Cu435  O456    1.993   .     S
Cu435  O449    1.959   .     S
Cu435  O452    1.965   .     S
Cu435  O453    1.988   .     S
Cu436  N448    2.020   .     S
Cu436  O455    1.993   .     S
Cu436  O451    1.965   .     S
Cu436  O450    1.959   .     S
Cu436  O454    1.988   .     S
I443   C354    2.165   1_655 S
C457   C460    1.448   .     S
C457   O489    1.297   .     A
C457   O487    1.291   .     A
C458   H478    1.084   .     S
C458   C460    1.403   .     A
C459   C465    1.448   .     S
C459   C471    1.399   .     A
C459   C472    1.403   .     A
C460   C470    1.399   .     A
C461   N486    1.385   .     A
C461   I483    2.120   .     S
C462   N485    1.385   .     A
C462   I484    2.120   .     S
C462   C806    1.411   .     S
C463   H479    1.082   .     S
C463   N485    1.355   .     A
C463   C803    1.411   .     S
C464   N486    1.355   .     A
C464   H480    1.081   .     S
C465   O490    1.297   .     A
C465   O488    1.291   .     A
C466   O491    1.285   .     A
C466   C468    1.446   .     S
C466   O493    1.301   .     A
C467   O494    1.301   .     A
C467   C469    1.446   .     S
C467   O492    1.285   .     A
C468   C545    1.369   1_455 S
C468   I557    2.165   1_455 S
C469   C506    1.369   .     S
C469   I520    2.165   .     S
C470   H475    1.083   .     S
C471   H476    1.083   .     S
C471   C572    1.383   .     S
C472   H477    1.084   .     S
C472   C584    1.383   .     S
Cu473  N485    2.020   .     S
Cu473  Cu474   2.687   .     S
Cu473  O494    1.993   .     S
Cu473  O487    1.959   .     S
Cu473  O490    1.965   .     S
Cu473  O491    1.988   .     S
Cu474  N486    2.020   .     S
Cu474  O493    1.993   .     S
Cu474  O489    1.965   .     S
Cu474  O488    1.959   .     S
Cu474  O492    1.988   .     S
I481   C506    2.165   .     S
I482   C545    2.165   1_455 S
C495   C498    1.448   .     S
C495   O527    1.297   .     A
C495   O525    1.291   .     A
C496   H516    1.084   .     S
C496   C498    1.403   .     A
C497   C503    1.448   .     S
C497   C509    1.399   .     A
C497   C510    1.403   .     A
C498   C508    1.399   .     A
C499   N524    1.385   .     A
C499   I521    2.120   .     S
C500   N523    1.385   .     A
C500   I522    2.120   .     S
C500   C844    1.411   .     S
C501   H517    1.082   .     S
C501   N523    1.355   .     A
C501   C841    1.411   .     S
C502   N524    1.355   .     A
C502   H518    1.081   .     S
C503   O528    1.297   .     A
C503   O526    1.291   .     A
C504   O529    1.285   .     A
C504   C506    1.446   .     S
C504   O531    1.301   .     A
C505   O532    1.301   .     A
C505   C507    1.446   .     S
C505   O530    1.285   .     A
C507   C544    1.369   .     S
C507   I558    2.165   .     S
C508   H513    1.083   .     S
C509   H514    1.083   .     S
C509   C610    1.383   .     S
C510   H515    1.084   .     S
C510   C622    1.383   .     S
Cu511  N523    2.020   .     S
Cu511  Cu512   2.687   .     S
Cu511  O532    1.993   .     S
Cu511  O525    1.959   .     S
Cu511  O528    1.965   .     S
Cu511  O529    1.988   .     S
Cu512  N524    2.020   .     S
Cu512  O531    1.993   .     S
Cu512  O527    1.965   .     S
Cu512  O526    1.959   .     S
Cu512  O530    1.988   .     S
I519   C544    2.165   .     S
C533   C536    1.448   .     S
C533   O565    1.297   .     A
C533   O563    1.291   .     A
C534   H554    1.084   .     S
C534   C536    1.403   .     A
C535   C541    1.448   .     S
C535   C547    1.399   .     A
C535   C548    1.403   .     A
C536   C546    1.399   .     A
C537   N562    1.385   .     A
C537   I559    2.120   .     S
C538   N561    1.385   .     A
C538   I560    2.120   .     S
C538   C882    1.411   .     S
C539   H555    1.082   .     S
C539   N561    1.355   .     A
C539   C879    1.411   .     S
C540   N562    1.355   .     A
C540   H556    1.081   .     S
C541   O566    1.297   .     A
C541   O564    1.291   .     A
C542   O567    1.285   .     A
C542   C544    1.446   .     S
C542   O569    1.301   .     A
C543   O570    1.301   .     A
C543   C545    1.446   .     S
C543   O568    1.285   .     A
C545   C468    1.369   1_655 S
C545   I482    2.165   1_655 S
C546   H551    1.083   .     S
C547   H552    1.083   .     S
C547   C648    1.383   .     S
C548   H553    1.084   .     S
C548   C660    1.383   .     S
Cu549  N561    2.020   .     S
Cu549  Cu550   2.687   .     S
Cu549  O570    1.993   .     S
Cu549  O563    1.959   .     S
Cu549  O566    1.965   .     S
Cu549  O567    1.988   .     S
Cu550  N562    2.020   .     S
Cu550  O569    1.993   .     S
Cu550  O565    1.965   .     S
Cu550  O564    1.959   .     S
Cu550  O568    1.988   .     S
I557   C468    2.165   1_655 S
C571   C574    1.448   .     S
C571   O603    1.297   .     A
C571   O601    1.291   .     A
C572   H592    1.084   .     S
C572   C574    1.403   .     A
C573   C579    1.448   .     S
C573   C585    1.399   .     A
C573   C586    1.403   .     A
C574   C584    1.399   .     A
C575   N600    1.385   .     A
C575   I597    2.120   .     S
C576   N599    1.385   .     A
C576   I598    2.120   .     S
C576   C920    1.411   .     S
C577   H593    1.082   .     S
C577   N599    1.355   .     A
C577   C917    1.411   .     S
C578   N600    1.355   .     A
C578   H594    1.081   .     S
C579   O604    1.297   .     A
C579   O602    1.291   .     A
C580   O605    1.285   .     A
C580   C582    1.446   .     S
C580   O607    1.301   .     A
C581   O608    1.301   .     A
C581   C583    1.446   .     S
C581   O606    1.285   .     A
C582   C659    1.369   1_455 S
C582   I671    2.165   1_455 S
C583   C620    1.369   .     S
C583   I634    2.165   .     S
C584   H589    1.083   .     S
C585   H590    1.083   .     S
C585   C344    1.383   1_565 S
C586   H591    1.084   .     S
C586   C356    1.383   1_565 S
Cu587  N599    2.020   .     S
Cu587  Cu588   2.687   .     S
Cu587  O608    1.993   .     S
Cu587  O601    1.959   .     S
Cu587  O604    1.965   .     S
Cu587  O605    1.988   .     S
Cu588  N600    2.020   .     S
Cu588  O607    1.993   .     S
Cu588  O603    1.965   .     S
Cu588  O602    1.959   .     S
Cu588  O606    1.988   .     S
I595   C620    2.165   .     S
I596   C659    2.165   1_455 S
C609   C612    1.448   .     S
C609   O641    1.297   .     A
C609   O639    1.291   .     A
C610   H630    1.084   .     S
C610   C612    1.403   .     A
C611   C617    1.448   .     S
C611   C623    1.399   .     A
C611   C624    1.403   .     A
C612   C622    1.399   .     A
C613   N638    1.385   .     A
C613   I635    2.120   .     S
C614   N637    1.385   .     A
C614   I636    2.120   .     S
C614   C958    1.411   .     S
C615   H631    1.082   .     S
C615   N637    1.355   .     A
C615   C955    1.411   .     S
C616   N638    1.355   .     A
C616   H632    1.081   .     S
C617   O642    1.297   .     A
C617   O640    1.291   .     A
C618   O643    1.285   .     A
C618   C620    1.446   .     S
C618   O645    1.301   .     A
C619   O646    1.301   .     A
C619   C621    1.446   .     S
C619   O644    1.285   .     A
C621   C658    1.369   .     S
C621   I672    2.165   .     S
C622   H627    1.083   .     S
C623   H628    1.083   .     S
C623   C382    1.383   1_565 S
C624   H629    1.084   .     S
C624   C394    1.383   1_565 S
Cu625  N637    2.020   .     S
Cu625  Cu626   2.687   .     S
Cu625  O646    1.993   .     S
Cu625  O639    1.959   .     S
Cu625  O642    1.965   .     S
Cu625  O643    1.988   .     S
Cu626  N638    2.020   .     S
Cu626  O645    1.993   .     S
Cu626  O641    1.965   .     S
Cu626  O640    1.959   .     S
Cu626  O644    1.988   .     S
I633   C658    2.165   .     S
C647   C650    1.448   .     S
C647   O679    1.297   .     A
C647   O677    1.291   .     A
C648   H668    1.084   .     S
C648   C650    1.403   .     A
C649   C655    1.448   .     S
C649   C661    1.399   .     A
C649   C662    1.403   .     A
C650   C660    1.399   .     A
C651   N676    1.385   .     A
C651   I673    2.120   .     S
C652   N675    1.385   .     A
C652   I674    2.120   .     S
C652   C996    1.411   .     S
C653   H669    1.082   .     S
C653   N675    1.355   .     A
C653   C993    1.411   .     S
C654   N676    1.355   .     A
C654   H670    1.081   .     S
C655   O680    1.297   .     A
C655   O678    1.291   .     A
C656   O681    1.285   .     A
C656   C658    1.446   .     S
C656   O683    1.301   .     A
C657   O684    1.301   .     A
C657   C659    1.446   .     S
C657   O682    1.285   .     A
C659   C582    1.369   1_655 S
C659   I596    2.165   1_655 S
C660   H665    1.083   .     S
C661   H666    1.083   .     S
C661   C420    1.383   1_565 S
C662   H667    1.084   .     S
C662   C432    1.383   1_565 S
Cu663  N675    2.020   .     S
Cu663  Cu664   2.687   .     S
Cu663  O684    1.993   .     S
Cu663  O677    1.959   .     S
Cu663  O680    1.965   .     S
Cu663  O681    1.988   .     S
Cu664  N676    2.020   .     S
Cu664  O683    1.993   .     S
Cu664  O679    1.965   .     S
Cu664  O678    1.959   .     S
Cu664  O682    1.988   .     S
I671   C582    2.165   1_655 S
C685   C688    1.448   .     S
C685   O717    1.297   .     A
C685   O715    1.291   .     A
C686   H706    1.084   .     S
C686   C688    1.403   .     A
C686   C927    1.383   1_545 S
C687   C693    1.448   .     S
C687   C699    1.399   .     A
C687   C700    1.403   .     A
C688   C698    1.399   .     A
C689   N714    1.385   .     A
C689   I711    2.120   .     S
C690   N713    1.385   .     A
C690   I712    2.120   .     S
C690   C8      1.411   1_556 S
C691   H707    1.082   .     S
C691   N713    1.355   .     A
C691   C5      1.411   1_556 S
C692   N714    1.355   .     A
C692   H708    1.081   .     S
C693   O718    1.297   .     A
C693   O716    1.291   .     A
C694   O719    1.285   .     A
C694   C696    1.446   .     S
C694   O721    1.301   .     A
C695   O722    1.301   .     A
C695   C697    1.446   .     S
C695   O720    1.285   .     A
C696   C773    1.369   1_455 S
C696   I785    2.165   1_455 S
C697   C734    1.369   .     S
C697   I748    2.165   .     S
C698   H703    1.083   .     S
C698   C928    1.383   1_545 S
C699   H704    1.083   .     S
C699   C800    1.383   .     S
C700   H705    1.084   .     S
C700   C812    1.383   .     S
Cu701  N713    2.020   .     S
Cu701  Cu702   2.687   .     S
Cu701  O722    1.993   .     S
Cu701  O715    1.959   .     S
Cu701  O718    1.965   .     S
Cu701  O719    1.988   .     S
Cu702  N714    2.020   .     S
Cu702  O721    1.993   .     S
Cu702  O717    1.965   .     S
Cu702  O716    1.959   .     S
Cu702  O720    1.988   .     S
I709   C734    2.165   .     S
I710   C773    2.165   1_455 S
C723   C726    1.448   .     S
C723   O755    1.297   .     A
C723   O753    1.291   .     A
C724   H744    1.084   .     S
C724   C726    1.403   .     A
C724   C965    1.383   1_545 S
C725   C731    1.448   .     S
C725   C737    1.399   .     A
C725   C738    1.403   .     A
C726   C736    1.399   .     A
C727   N752    1.385   .     A
C727   I749    2.120   .     S
C728   N751    1.385   .     A
C728   I750    2.120   .     S
C728   C46     1.411   1_556 S
C729   H745    1.082   .     S
C729   N751    1.355   .     A
C729   C43     1.411   1_556 S
C730   N752    1.355   .     A
C730   H746    1.081   .     S
C731   O756    1.297   .     A
C731   O754    1.291   .     A
C732   O757    1.285   .     A
C732   C734    1.446   .     S
C732   O759    1.301   .     A
C733   O760    1.301   .     A
C733   C735    1.446   .     S
C733   O758    1.285   .     A
C735   C772    1.369   .     S
C735   I786    2.165   .     S
C736   H741    1.083   .     S
C736   C966    1.383   1_545 S
C737   H742    1.083   .     S
C737   C838    1.383   .     S
C738   H743    1.084   .     S
C738   C850    1.383   .     S
Cu739  N751    2.020   .     S
Cu739  Cu740   2.687   .     S
Cu739  O760    1.993   .     S
Cu739  O753    1.959   .     S
Cu739  O756    1.965   .     S
Cu739  O757    1.988   .     S
Cu740  N752    2.020   .     S
Cu740  O759    1.993   .     S
Cu740  O755    1.965   .     S
Cu740  O754    1.959   .     S
Cu740  O758    1.988   .     S
I747   C772    2.165   .     S
C761   C764    1.448   .     S
C761   O793    1.297   .     A
C761   O791    1.291   .     A
C762   H782    1.084   .     S
C762   C764    1.403   .     A
C762   C1003   1.383   1_545 S
C763   C769    1.448   .     S
C763   C775    1.399   .     A
C763   C776    1.403   .     A
C764   C774    1.399   .     A
C765   N790    1.385   .     A
C765   I787    2.120   .     S
C766   N789    1.385   .     A
C766   I788    2.120   .     S
C766   C84     1.411   1_556 S
C767   H783    1.082   .     S
C767   N789    1.355   .     A
C767   C81     1.411   1_556 S
C768   N790    1.355   .     A
C768   H784    1.081   .     S
C769   O794    1.297   .     A
C769   O792    1.291   .     A
C770   O795    1.285   .     A
C770   C772    1.446   .     S
C770   O797    1.301   .     A
C771   O798    1.301   .     A
C771   C773    1.446   .     S
C771   O796    1.285   .     A
C773   C696    1.369   1_655 S
C773   I710    2.165   1_655 S
C774   H779    1.083   .     S
C774   C1004   1.383   1_545 S
C775   H780    1.083   .     S
C775   C876    1.383   .     S
C776   H781    1.084   .     S
C776   C888    1.383   .     S
Cu777  N789    2.020   .     S
Cu777  Cu778   2.687   .     S
Cu777  O798    1.993   .     S
Cu777  O791    1.959   .     S
Cu777  O794    1.965   .     S
Cu777  O795    1.988   .     S
Cu778  N790    2.020   .     S
Cu778  O797    1.993   .     S
Cu778  O793    1.965   .     S
Cu778  O792    1.959   .     S
Cu778  O796    1.988   .     S
I785   C696    2.165   1_655 S
C799   C802    1.448   .     S
C799   O831    1.297   .     A
C799   O829    1.291   .     A
C800   H820    1.084   .     S
C800   C802    1.403   .     A
C801   C807    1.448   .     S
C801   C813    1.399   .     A
C801   C814    1.403   .     A
C802   C812    1.399   .     A
C803   N828    1.385   .     A
C803   I825    2.120   .     S
C804   N827    1.385   .     A
C804   I826    2.120   .     S
C804   C122    1.411   1_556 S
C805   H821    1.082   .     S
C805   N827    1.355   .     A
C805   C119    1.411   1_556 S
C806   N828    1.355   .     A
C806   H822    1.081   .     S
C807   O832    1.297   .     A
C807   O830    1.291   .     A
C808   O833    1.285   .     A
C808   C810    1.446   .     S
C808   O835    1.301   .     A
C809   O836    1.301   .     A
C809   C811    1.446   .     S
C809   O834    1.285   .     A
C810   C887    1.369   1_455 S
C810   I899    2.165   1_455 S
C811   C848    1.369   .     S
C811   I862    2.165   .     S
C812   H817    1.083   .     S
C813   H818    1.083   .     S
C813   C914    1.383   .     S
C814   H819    1.084   .     S
C814   C926    1.383   .     S
Cu815  N827    2.020   .     S
Cu815  Cu816   2.687   .     S
Cu815  O836    1.993   .     S
Cu815  O829    1.959   .     S
Cu815  O832    1.965   .     S
Cu815  O833    1.988   .     S
Cu816  N828    2.020   .     S
Cu816  O835    1.993   .     S
Cu816  O831    1.965   .     S
Cu816  O830    1.959   .     S
Cu816  O834    1.988   .     S
I823   C848    2.165   .     S
I824   C887    2.165   1_455 S
C837   C840    1.448   .     S
C837   O869    1.297   .     A
C837   O867    1.291   .     A
C838   H858    1.084   .     S
C838   C840    1.403   .     A
C839   C845    1.448   .     S
C839   C851    1.399   .     A
C839   C852    1.403   .     A
C840   C850    1.399   .     A
C841   N866    1.385   .     A
C841   I863    2.120   .     S
C842   N865    1.385   .     A
C842   I864    2.120   .     S
C842   C160    1.411   1_556 S
C843   H859    1.082   .     S
C843   N865    1.355   .     A
C843   C157    1.411   1_556 S
C844   N866    1.355   .     A
C844   H860    1.081   .     S
C845   O870    1.297   .     A
C845   O868    1.291   .     A
C846   O871    1.285   .     A
C846   C848    1.446   .     S
C846   O873    1.301   .     A
C847   O874    1.301   .     A
C847   C849    1.446   .     S
C847   O872    1.285   .     A
C849   C886    1.369   .     S
C849   I900    2.165   .     S
C850   H855    1.083   .     S
C851   H856    1.083   .     S
C851   C952    1.383   .     S
C852   H857    1.084   .     S
C852   C964    1.383   .     S
Cu853  N865    2.020   .     S
Cu853  Cu854   2.687   .     S
Cu853  O874    1.993   .     S
Cu853  O867    1.959   .     S
Cu853  O870    1.965   .     S
Cu853  O871    1.988   .     S
Cu854  N866    2.020   .     S
Cu854  O873    1.993   .     S
Cu854  O869    1.965   .     S
Cu854  O868    1.959   .     S
Cu854  O872    1.988   .     S
I861   C886    2.165   .     S
C875   C878    1.448   .     S
C875   O907    1.297   .     A
C875   O905    1.291   .     A
C876   H896    1.084   .     S
C876   C878    1.403   .     A
C877   C883    1.448   .     S
C877   C889    1.399   .     A
C877   C890    1.403   .     A
C878   C888    1.399   .     A
C879   N904    1.385   .     A
C879   I901    2.120   .     S
C880   N903    1.385   .     A
C880   I902    2.120   .     S
C880   C198    1.411   1_556 S
C881   H897    1.082   .     S
C881   N903    1.355   .     A
C881   C195    1.411   1_556 S
C882   N904    1.355   .     A
C882   H898    1.081   .     S
C883   O908    1.297   .     A
C883   O906    1.291   .     A
C884   O909    1.285   .     A
C884   C886    1.446   .     S
C884   O911    1.301   .     A
C885   O912    1.301   .     A
C885   C887    1.446   .     S
C885   O910    1.285   .     A
C887   C810    1.369   1_655 S
C887   I824    2.165   1_655 S
C888   H893    1.083   .     S
C889   H894    1.083   .     S
C889   C990    1.383   .     S
C890   H895    1.084   .     S
C890   C1002   1.383   .     S
Cu891  N903    2.020   .     S
Cu891  Cu892   2.687   .     S
Cu891  O912    1.993   .     S
Cu891  O905    1.959   .     S
Cu891  O908    1.965   .     S
Cu891  O909    1.988   .     S
Cu892  N904    2.020   .     S
Cu892  O911    1.993   .     S
Cu892  O907    1.965   .     S
Cu892  O906    1.959   .     S
Cu892  O910    1.988   .     S
I899   C810    2.165   1_655 S
C913   C916    1.448   .     S
C913   O945    1.297   .     A
C913   O943    1.291   .     A
C914   H934    1.084   .     S
C914   C916    1.403   .     A
C915   C921    1.448   .     S
C915   C927    1.399   .     A
C915   C928    1.403   .     A
C916   C926    1.399   .     A
C917   N942    1.385   .     A
C917   I939    2.120   .     S
C918   N941    1.385   .     A
C918   I940    2.120   .     S
C918   C236    1.411   1_556 S
C919   H935    1.082   .     S
C919   N941    1.355   .     A
C919   C233    1.411   1_556 S
C920   N942    1.355   .     A
C920   H936    1.081   .     S
C921   O946    1.297   .     A
C921   O944    1.291   .     A
C922   O947    1.285   .     A
C922   C924    1.446   .     S
C922   O949    1.301   .     A
C923   O950    1.301   .     A
C923   C925    1.446   .     S
C923   O948    1.285   .     A
C924   C1001   1.369   1_455 S
C924   I1013   2.165   1_455 S
C925   C962    1.369   .     S
C925   I976    2.165   .     S
C926   H931    1.083   .     S
C927   H932    1.083   .     S
C927   C686    1.383   1_565 S
C928   H933    1.084   .     S
C928   C698    1.383   1_565 S
Cu929  N941    2.020   .     S
Cu929  Cu930   2.687   .     S
Cu929  O950    1.993   .     S
Cu929  O943    1.959   .     S
Cu929  O946    1.965   .     S
Cu929  O947    1.988   .     S
Cu930  N942    2.020   .     S
Cu930  O949    1.993   .     S
Cu930  O945    1.965   .     S
Cu930  O944    1.959   .     S
Cu930  O948    1.988   .     S
I937   C962    2.165   .     S
I938   C1001   2.165   1_455 S
C951   C954    1.448   .     S
C951   O983    1.297   .     A
C951   O981    1.291   .     A
C952   H972    1.084   .     S
C952   C954    1.403   .     A
C953   C959    1.448   .     S
C953   C965    1.399   .     A
C953   C966    1.403   .     A
C954   C964    1.399   .     A
C955   N980    1.385   .     A
C955   I977    2.120   .     S
C956   N979    1.385   .     A
C956   I978    2.120   .     S
C956   C274    1.411   1_556 S
C957   H973    1.082   .     S
C957   N979    1.355   .     A
C957   C271    1.411   1_556 S
C958   N980    1.355   .     A
C958   H974    1.081   .     S
C959   O984    1.297   .     A
C959   O982    1.291   .     A
C960   O985    1.285   .     A
C960   C962    1.446   .     S
C960   O987    1.301   .     A
C961   O988    1.301   .     A
C961   C963    1.446   .     S
C961   O986    1.285   .     A
C963   C1000   1.369   .     S
C963   I1014   2.165   .     S
C964   H969    1.083   .     S
C965   H970    1.083   .     S
C965   C724    1.383   1_565 S
C966   H971    1.084   .     S
C966   C736    1.383   1_565 S
Cu967  N979    2.020   .     S
Cu967  Cu968   2.687   .     S
Cu967  O988    1.993   .     S
Cu967  O981    1.959   .     S
Cu967  O984    1.965   .     S
Cu967  O985    1.988   .     S
Cu968  N980    2.020   .     S
Cu968  O987    1.993   .     S
Cu968  O983    1.965   .     S
Cu968  O982    1.959   .     S
Cu968  O986    1.988   .     S
I975   C1000   2.165   .     S
C989   C992    1.448   .     S
C989   O1021   1.297   .     A
C989   O1019   1.291   .     A
C990   H1010   1.084   .     S
C990   C992    1.403   .     A
C991   C997    1.448   .     S
C991   C1003   1.399   .     A
C991   C1004   1.403   .     A
C992   C1002   1.399   .     A
C993   N1018   1.385   .     A
C993   I1015   2.120   .     S
C994   N1017   1.385   .     A
C994   I1016   2.120   .     S
C994   C312    1.411   1_556 S
C995   H1011   1.082   .     S
C995   N1017   1.355   .     A
C995   C309    1.411   1_556 S
C996   N1018   1.355   .     A
C996   H1012   1.081   .     S
C997   O1022   1.297   .     A
C997   O1020   1.291   .     A
C998   O1023   1.285   .     A
C998   C1000   1.446   .     S
C998   O1025   1.301   .     A
C999   O1026   1.301   .     A
C999   C1001   1.446   .     S
C999   O1024   1.285   .     A
C1001  C924    1.369   1_655 S
C1001  I938    2.165   1_655 S
C1002  H1007   1.083   .     S
C1003  H1008   1.083   .     S
C1003  C762    1.383   1_565 S
C1004  H1009   1.084   .     S
C1004  C774    1.383   1_565 S
Cu1005 N1017   2.020   .     S
Cu1005 Cu1006  2.687   .     S
Cu1005 O1026   1.993   .     S
Cu1005 O1019   1.959   .     S
Cu1005 O1022   1.965   .     S
Cu1005 O1023   1.988   .     S
Cu1006 N1018   2.020   .     S
Cu1006 O1025   1.993   .     S
Cu1006 O1021   1.965   .     S
Cu1006 O1020   1.959   .     S
Cu1006 O1024   1.988   .     S
I1013  C924    2.165   1_655 S
