data_str_m2_o10_o17_pcu_sym.33
_audit_creation_date              2020-01-03
_audit_creation_method            'Materials Studio'
_symmetry_space_group_name_H-M    'P1'
_symmetry_Int_Tables_number       1
_symmetry_cell_setting            triclinic
loop_
_symmetry_equiv_pos_as_xyz
  x,y,z
_cell_length_a                    30.1279
_cell_length_b                    26.1849
_cell_length_c                    22.3660
_cell_angle_alpha                 103.0400
_cell_angle_beta                  94.4827
_cell_angle_gamma                 93.0119
loop_
_atom_site_label
_atom_site_type_symbol
_atom_site_fract_x
_atom_site_fract_y
_atom_site_fract_z
_atom_site_U_iso_or_equiv
_atom_site_adp_type
_atom_site_occupancy
C1     C     0.24861   0.06668   0.15116   0.00000  Uiso   1.00
C2     C     0.08898   0.14813   0.11284   0.00000  Uiso   1.00
C3     C     0.38401   0.16685   0.16497   0.00000  Uiso   1.00
C4     C     0.11599   0.16649   0.16836   0.00000  Uiso   1.00
C5     C     0.40339   0.14850   0.10963   0.00000  Uiso   1.00
C6     C     0.09661   0.18484   0.22371   0.00000  Uiso   1.00
C7     C     0.44975   0.14823   0.11003   0.00000  Uiso   1.00
C8     C     0.05024   0.18511   0.22330   0.00000  Uiso   1.00
C9     C     0.47672   0.16675   0.16620   0.00000  Uiso   1.00
C10    C     0.02328   0.16658   0.16713   0.00000  Uiso   1.00
C11    C     0.45718   0.18541   0.22150   0.00000  Uiso   1.00
C12    C     0.25139   0.26665   0.18217   0.00000  Uiso   1.00
C13    C     0.04281   0.14792   0.11184   0.00000  Uiso   1.00
C14    C     0.46969   0.12955   0.05541   0.00000  Uiso   1.00
C15    C     0.03031   0.20379   0.27792   0.00000  Uiso   1.00
C16    C     0.01593   0.12937   0.05636   0.00000  Uiso   1.00
C17    C     0.48407   0.20396   0.27698   0.00000  Uiso   1.00
C18    C     0.24782   0.01094   0.14237   0.00000  Uiso   1.00
C19    C     0.25218   0.32240   0.19097   0.00000  Uiso   1.00
C20    C     0.16437   0.16665   0.16735   0.00000  Uiso   1.00
C21    C     0.33563   0.16668   0.16598   0.00000  Uiso   1.00
C22    C     0.41102   0.18521   0.22049   0.00000  Uiso   1.00
Cu23   Cu    0.25500   0.17246   0.22813   0.00000  Uiso   1.00
Cu24   Cu    0.24499   0.16087   0.10521   0.00000  Uiso   1.00
F25    F     0.37735   0.12995   0.05576   0.00000  Uiso   1.00
F26    F     0.12265   0.20338   0.27757   0.00000  Uiso   1.00
F27    F     0.24245   0.31524   0.08310   0.00000  Uiso   1.00
F28    F     0.25755   0.01810   0.25023   0.00000  Uiso   1.00
F29    F     0.20659   0.11932   0.30840   0.00000  Uiso   1.00
F30    F     0.29341   0.21401   0.02493   0.00000  Uiso   1.00
H31    H     0.44966   0.11516   0.01185   0.00000  Uiso   1.00
H32    H     0.05033   0.21817   0.32148   0.00000  Uiso   1.00
H33    H     0.03069   0.11485   0.01365   0.00000  Uiso   1.00
H34    H     0.46931   0.21848   0.31968   0.00000  Uiso   1.00
H35    H     0.39614   0.19966   0.26315   0.00000  Uiso   1.00
H36    H     0.10386   0.13367   0.07018   0.00000  Uiso   1.00
N37    N     0.23744   0.15214   0.01284   0.00000  Uiso   1.00
N38    N     0.26255   0.18119   0.32049   0.00000  Uiso   1.00
O39    O     0.25325   0.09538   0.20659   0.00000  Uiso   1.00
O40    O     0.24674   0.23796   0.12674   0.00000  Uiso   1.00
O41    O     0.24480   0.08559   0.10279   0.00000  Uiso   1.00
O42    O     0.25520   0.24774   0.23055   0.00000  Uiso   1.00
O43    O     0.18935   0.17155   0.21857   0.00000  Uiso   1.00
O44    O     0.31064   0.16179   0.11476   0.00000  Uiso   1.00
O45    O     0.18090   0.16176   0.11477   0.00000  Uiso   1.00
O46    O     0.31910   0.17157   0.21857   0.00000  Uiso   1.00
C47    C     0.74861   0.06668   0.15116   0.00000  Uiso   1.00
C48    C     0.58898   0.14813   0.11284   0.00000  Uiso   1.00
C49    C     0.88401   0.16685   0.16497   0.00000  Uiso   1.00
C50    C     0.61599   0.16649   0.16836   0.00000  Uiso   1.00
C51    C     0.90339   0.14850   0.10963   0.00000  Uiso   1.00
C52    C     0.59661   0.18484   0.22371   0.00000  Uiso   1.00
C53    C     0.94975   0.14823   0.11003   0.00000  Uiso   1.00
C54    C     0.55024   0.18511   0.22330   0.00000  Uiso   1.00
C55    C     0.97672   0.16675   0.16620   0.00000  Uiso   1.00
C56    C     0.52328   0.16658   0.16713   0.00000  Uiso   1.00
C57    C     0.95718   0.18541   0.22150   0.00000  Uiso   1.00
C58    C     0.75139   0.26665   0.18217   0.00000  Uiso   1.00
C59    C     0.54281   0.14792   0.11184   0.00000  Uiso   1.00
C60    C     0.96969   0.12955   0.05541   0.00000  Uiso   1.00
C61    C     0.53031   0.20379   0.27792   0.00000  Uiso   1.00
C62    C     0.51593   0.12937   0.05636   0.00000  Uiso   1.00
C63    C     0.98407   0.20396   0.27698   0.00000  Uiso   1.00
C64    C     0.74782   0.01094   0.14237   0.00000  Uiso   1.00
C65    C     0.75218   0.32240   0.19097   0.00000  Uiso   1.00
C66    C     0.66437   0.16665   0.16735   0.00000  Uiso   1.00
C67    C     0.83563   0.16668   0.16598   0.00000  Uiso   1.00
C68    C     0.91102   0.18521   0.22049   0.00000  Uiso   1.00
Cu69   Cu    0.75500   0.17246   0.22813   0.00000  Uiso   1.00
Cu70   Cu    0.74499   0.16087   0.10521   0.00000  Uiso   1.00
F71    F     0.87735   0.12995   0.05576   0.00000  Uiso   1.00
F72    F     0.62265   0.20338   0.27757   0.00000  Uiso   1.00
F73    F     0.74245   0.31524   0.08310   0.00000  Uiso   1.00
F74    F     0.75755   0.01810   0.25023   0.00000  Uiso   1.00
F75    F     0.70659   0.11932   0.30840   0.00000  Uiso   1.00
F76    F     0.79341   0.21401   0.02493   0.00000  Uiso   1.00
H77    H     0.94966   0.11516   0.01185   0.00000  Uiso   1.00
H78    H     0.55033   0.21817   0.32148   0.00000  Uiso   1.00
H79    H     0.53069   0.11485   0.01365   0.00000  Uiso   1.00
H80    H     0.96931   0.21848   0.31968   0.00000  Uiso   1.00
H81    H     0.89614   0.19966   0.26315   0.00000  Uiso   1.00
H82    H     0.60386   0.13367   0.07018   0.00000  Uiso   1.00
N83    N     0.73744   0.15214   0.01284   0.00000  Uiso   1.00
N84    N     0.76255   0.18119   0.32049   0.00000  Uiso   1.00
O85    O     0.75325   0.09538   0.20659   0.00000  Uiso   1.00
O86    O     0.74674   0.23796   0.12674   0.00000  Uiso   1.00
O87    O     0.74480   0.08559   0.10279   0.00000  Uiso   1.00
O88    O     0.75520   0.24774   0.23055   0.00000  Uiso   1.00
O89    O     0.68935   0.17155   0.21857   0.00000  Uiso   1.00
O90    O     0.81064   0.16179   0.11476   0.00000  Uiso   1.00
O91    O     0.68090   0.16176   0.11477   0.00000  Uiso   1.00
O92    O     0.81910   0.17157   0.21857   0.00000  Uiso   1.00
C93    C     0.24861   0.40001   0.15116   0.00000  Uiso   1.00
C94    C     0.08898   0.48146   0.11284   0.00000  Uiso   1.00
C95    C     0.38401   0.50018   0.16497   0.00000  Uiso   1.00
C96    C     0.11599   0.49982   0.16836   0.00000  Uiso   1.00
C97    C     0.40339   0.48183   0.10963   0.00000  Uiso   1.00
C98    C     0.09661   0.51817   0.22371   0.00000  Uiso   1.00
C99    C     0.44975   0.48156   0.11003   0.00000  Uiso   1.00
C100   C     0.05024   0.51844   0.22330   0.00000  Uiso   1.00
C101   C     0.47672   0.50009   0.16620   0.00000  Uiso   1.00
C102   C     0.02328   0.49991   0.16713   0.00000  Uiso   1.00
C103   C     0.45718   0.51875   0.22150   0.00000  Uiso   1.00
C104   C     0.25139   0.59999   0.18217   0.00000  Uiso   1.00
C105   C     0.04281   0.48125   0.11184   0.00000  Uiso   1.00
C106   C     0.46969   0.46288   0.05541   0.00000  Uiso   1.00
C107   C     0.03031   0.53712   0.27792   0.00000  Uiso   1.00
C108   C     0.01593   0.46271   0.05636   0.00000  Uiso   1.00
C109   C     0.48407   0.53729   0.27698   0.00000  Uiso   1.00
C110   C     0.24782   0.34427   0.14237   0.00000  Uiso   1.00
C111   C     0.25218   0.65573   0.19097   0.00000  Uiso   1.00
C112   C     0.16437   0.49998   0.16735   0.00000  Uiso   1.00
C113   C     0.33563   0.50002   0.16598   0.00000  Uiso   1.00
C114   C     0.41102   0.51854   0.22049   0.00000  Uiso   1.00
Cu115  Cu    0.25500   0.50579   0.22813   0.00000  Uiso   1.00
Cu116  Cu    0.24499   0.49421   0.10521   0.00000  Uiso   1.00
F117   F     0.37735   0.46329   0.05576   0.00000  Uiso   1.00
F118   F     0.12265   0.53671   0.27757   0.00000  Uiso   1.00
F119   F     0.24245   0.64857   0.08310   0.00000  Uiso   1.00
F120   F     0.25755   0.35143   0.25023   0.00000  Uiso   1.00
F121   F     0.20659   0.45265   0.30840   0.00000  Uiso   1.00
F122   F     0.29341   0.54735   0.02493   0.00000  Uiso   1.00
H123   H     0.44966   0.44849   0.01185   0.00000  Uiso   1.00
H124   H     0.05033   0.55151   0.32148   0.00000  Uiso   1.00
H125   H     0.03069   0.44819   0.01365   0.00000  Uiso   1.00
H126   H     0.46931   0.55181   0.31968   0.00000  Uiso   1.00
H127   H     0.39614   0.53300   0.26315   0.00000  Uiso   1.00
H128   H     0.10386   0.46700   0.07018   0.00000  Uiso   1.00
N129   N     0.23744   0.48547   0.01284   0.00000  Uiso   1.00
N130   N     0.26255   0.51453   0.32049   0.00000  Uiso   1.00
O131   O     0.25325   0.42871   0.20659   0.00000  Uiso   1.00
O132   O     0.24674   0.57129   0.12674   0.00000  Uiso   1.00
O133   O     0.24480   0.41892   0.10279   0.00000  Uiso   1.00
O134   O     0.25520   0.58108   0.23055   0.00000  Uiso   1.00
O135   O     0.18935   0.50488   0.21857   0.00000  Uiso   1.00
O136   O     0.31064   0.49512   0.11476   0.00000  Uiso   1.00
O137   O     0.18090   0.49510   0.11477   0.00000  Uiso   1.00
O138   O     0.31910   0.50490   0.21857   0.00000  Uiso   1.00
C139   C     0.74861   0.40001   0.15116   0.00000  Uiso   1.00
C140   C     0.58898   0.48146   0.11284   0.00000  Uiso   1.00
C141   C     0.88401   0.50018   0.16497   0.00000  Uiso   1.00
C142   C     0.61599   0.49982   0.16836   0.00000  Uiso   1.00
C143   C     0.90339   0.48183   0.10963   0.00000  Uiso   1.00
C144   C     0.59661   0.51817   0.22371   0.00000  Uiso   1.00
C145   C     0.94975   0.48156   0.11003   0.00000  Uiso   1.00
C146   C     0.55024   0.51844   0.22330   0.00000  Uiso   1.00
C147   C     0.97672   0.50009   0.16620   0.00000  Uiso   1.00
C148   C     0.52328   0.49991   0.16713   0.00000  Uiso   1.00
C149   C     0.95718   0.51875   0.22150   0.00000  Uiso   1.00
C150   C     0.75139   0.59999   0.18217   0.00000  Uiso   1.00
C151   C     0.54281   0.48125   0.11184   0.00000  Uiso   1.00
C152   C     0.96969   0.46288   0.05541   0.00000  Uiso   1.00
C153   C     0.53031   0.53712   0.27792   0.00000  Uiso   1.00
C154   C     0.51593   0.46271   0.05636   0.00000  Uiso   1.00
C155   C     0.98407   0.53729   0.27698   0.00000  Uiso   1.00
C156   C     0.74782   0.34427   0.14237   0.00000  Uiso   1.00
C157   C     0.75218   0.65573   0.19097   0.00000  Uiso   1.00
C158   C     0.66437   0.49998   0.16735   0.00000  Uiso   1.00
C159   C     0.83563   0.50002   0.16598   0.00000  Uiso   1.00
C160   C     0.91102   0.51854   0.22049   0.00000  Uiso   1.00
Cu161  Cu    0.75500   0.50579   0.22813   0.00000  Uiso   1.00
Cu162  Cu    0.74499   0.49421   0.10521   0.00000  Uiso   1.00
F163   F     0.87735   0.46329   0.05576   0.00000  Uiso   1.00
F164   F     0.62265   0.53671   0.27757   0.00000  Uiso   1.00
F165   F     0.74245   0.64857   0.08310   0.00000  Uiso   1.00
F166   F     0.75755   0.35143   0.25023   0.00000  Uiso   1.00
F167   F     0.70659   0.45265   0.30840   0.00000  Uiso   1.00
F168   F     0.79341   0.54735   0.02493   0.00000  Uiso   1.00
H169   H     0.94966   0.44849   0.01185   0.00000  Uiso   1.00
H170   H     0.55033   0.55151   0.32148   0.00000  Uiso   1.00
H171   H     0.53069   0.44819   0.01365   0.00000  Uiso   1.00
H172   H     0.96931   0.55181   0.31968   0.00000  Uiso   1.00
H173   H     0.89614   0.53300   0.26315   0.00000  Uiso   1.00
H174   H     0.60386   0.46700   0.07018   0.00000  Uiso   1.00
N175   N     0.73744   0.48547   0.01284   0.00000  Uiso   1.00
N176   N     0.76255   0.51453   0.32049   0.00000  Uiso   1.00
O177   O     0.75325   0.42871   0.20659   0.00000  Uiso   1.00
O178   O     0.74674   0.57129   0.12674   0.00000  Uiso   1.00
O179   O     0.74480   0.41892   0.10279   0.00000  Uiso   1.00
O180   O     0.75520   0.58108   0.23055   0.00000  Uiso   1.00
O181   O     0.68935   0.50488   0.21857   0.00000  Uiso   1.00
O182   O     0.81064   0.49512   0.11476   0.00000  Uiso   1.00
O183   O     0.68090   0.49510   0.11477   0.00000  Uiso   1.00
O184   O     0.81910   0.50490   0.21857   0.00000  Uiso   1.00
C185   C     0.24861   0.73335   0.15116   0.00000  Uiso   1.00
C186   C     0.08898   0.81479   0.11284   0.00000  Uiso   1.00
C187   C     0.38401   0.83351   0.16497   0.00000  Uiso   1.00
C188   C     0.11599   0.83315   0.16836   0.00000  Uiso   1.00
C189   C     0.40339   0.81516   0.10963   0.00000  Uiso   1.00
C190   C     0.09661   0.85150   0.22371   0.00000  Uiso   1.00
C191   C     0.44975   0.81489   0.11003   0.00000  Uiso   1.00
C192   C     0.05024   0.85177   0.22330   0.00000  Uiso   1.00
C193   C     0.47672   0.83342   0.16620   0.00000  Uiso   1.00
C194   C     0.02328   0.83325   0.16713   0.00000  Uiso   1.00
C195   C     0.45718   0.85208   0.22150   0.00000  Uiso   1.00
C196   C     0.25139   0.93332   0.18217   0.00000  Uiso   1.00
C197   C     0.04281   0.81459   0.11184   0.00000  Uiso   1.00
C198   C     0.46969   0.79621   0.05541   0.00000  Uiso   1.00
C199   C     0.03031   0.87045   0.27792   0.00000  Uiso   1.00
C200   C     0.01593   0.79604   0.05636   0.00000  Uiso   1.00
C201   C     0.48407   0.87063   0.27698   0.00000  Uiso   1.00
C202   C     0.24782   0.67760   0.14237   0.00000  Uiso   1.00
C203   C     0.25218   0.98906   0.19097   0.00000  Uiso   1.00
C204   C     0.16437   0.83332   0.16735   0.00000  Uiso   1.00
C205   C     0.33563   0.83335   0.16598   0.00000  Uiso   1.00
C206   C     0.41102   0.85187   0.22049   0.00000  Uiso   1.00
Cu207  Cu    0.25500   0.83913   0.22813   0.00000  Uiso   1.00
Cu208  Cu    0.24499   0.82754   0.10521   0.00000  Uiso   1.00
F209   F     0.37735   0.79662   0.05576   0.00000  Uiso   1.00
F210   F     0.12265   0.87005   0.27757   0.00000  Uiso   1.00
F211   F     0.24245   0.98190   0.08310   0.00000  Uiso   1.00
F212   F     0.25755   0.68476   0.25023   0.00000  Uiso   1.00
F213   F     0.20659   0.78599   0.30840   0.00000  Uiso   1.00
F214   F     0.29341   0.88068   0.02493   0.00000  Uiso   1.00
H215   H     0.44966   0.78183   0.01185   0.00000  Uiso   1.00
H216   H     0.05033   0.88484   0.32148   0.00000  Uiso   1.00
H217   H     0.03069   0.78152   0.01365   0.00000  Uiso   1.00
H218   H     0.46931   0.88515   0.31968   0.00000  Uiso   1.00
H219   H     0.39614   0.86633   0.26315   0.00000  Uiso   1.00
H220   H     0.10386   0.80034   0.07018   0.00000  Uiso   1.00
N221   N     0.23744   0.81881   0.01284   0.00000  Uiso   1.00
N222   N     0.26255   0.84786   0.32049   0.00000  Uiso   1.00
O223   O     0.25325   0.76204   0.20659   0.00000  Uiso   1.00
O224   O     0.24674   0.90462   0.12674   0.00000  Uiso   1.00
O225   O     0.24480   0.75226   0.10279   0.00000  Uiso   1.00
O226   O     0.25520   0.91441   0.23055   0.00000  Uiso   1.00
O227   O     0.18935   0.83821   0.21857   0.00000  Uiso   1.00
O228   O     0.31064   0.82845   0.11476   0.00000  Uiso   1.00
O229   O     0.18090   0.82843   0.11477   0.00000  Uiso   1.00
O230   O     0.31910   0.83824   0.21857   0.00000  Uiso   1.00
C231   C     0.74861   0.73335   0.15116   0.00000  Uiso   1.00
C232   C     0.58898   0.81479   0.11284   0.00000  Uiso   1.00
C233   C     0.88401   0.83351   0.16497   0.00000  Uiso   1.00
C234   C     0.61599   0.83315   0.16836   0.00000  Uiso   1.00
C235   C     0.90339   0.81516   0.10963   0.00000  Uiso   1.00
C236   C     0.59661   0.85150   0.22371   0.00000  Uiso   1.00
C237   C     0.94975   0.81489   0.11003   0.00000  Uiso   1.00
C238   C     0.55024   0.85177   0.22330   0.00000  Uiso   1.00
C239   C     0.97672   0.83342   0.16620   0.00000  Uiso   1.00
C240   C     0.52328   0.83325   0.16713   0.00000  Uiso   1.00
C241   C     0.95718   0.85208   0.22150   0.00000  Uiso   1.00
C242   C     0.75139   0.93332   0.18217   0.00000  Uiso   1.00
C243   C     0.54281   0.81459   0.11184   0.00000  Uiso   1.00
C244   C     0.96969   0.79621   0.05541   0.00000  Uiso   1.00
C245   C     0.53031   0.87045   0.27792   0.00000  Uiso   1.00
C246   C     0.51593   0.79604   0.05636   0.00000  Uiso   1.00
C247   C     0.98407   0.87063   0.27698   0.00000  Uiso   1.00
C248   C     0.74782   0.67760   0.14237   0.00000  Uiso   1.00
C249   C     0.75218   0.98906   0.19097   0.00000  Uiso   1.00
C250   C     0.66437   0.83332   0.16735   0.00000  Uiso   1.00
C251   C     0.83563   0.83335   0.16598   0.00000  Uiso   1.00
C252   C     0.91102   0.85187   0.22049   0.00000  Uiso   1.00
Cu253  Cu    0.75500   0.83913   0.22813   0.00000  Uiso   1.00
Cu254  Cu    0.74499   0.82754   0.10521   0.00000  Uiso   1.00
F255   F     0.87735   0.79662   0.05576   0.00000  Uiso   1.00
F256   F     0.62265   0.87005   0.27757   0.00000  Uiso   1.00
F257   F     0.74245   0.98190   0.08310   0.00000  Uiso   1.00
F258   F     0.75755   0.68476   0.25023   0.00000  Uiso   1.00
F259   F     0.70659   0.78599   0.30840   0.00000  Uiso   1.00
F260   F     0.79341   0.88068   0.02493   0.00000  Uiso   1.00
H261   H     0.94966   0.78183   0.01185   0.00000  Uiso   1.00
H262   H     0.55033   0.88484   0.32148   0.00000  Uiso   1.00
H263   H     0.53069   0.78152   0.01365   0.00000  Uiso   1.00
H264   H     0.96931   0.88515   0.31968   0.00000  Uiso   1.00
H265   H     0.89614   0.86633   0.26315   0.00000  Uiso   1.00
H266   H     0.60386   0.80034   0.07018   0.00000  Uiso   1.00
N267   N     0.73744   0.81881   0.01284   0.00000  Uiso   1.00
N268   N     0.76255   0.84786   0.32049   0.00000  Uiso   1.00
O269   O     0.75325   0.76204   0.20659   0.00000  Uiso   1.00
O270   O     0.74674   0.90462   0.12674   0.00000  Uiso   1.00
O271   O     0.74480   0.75226   0.10279   0.00000  Uiso   1.00
O272   O     0.75520   0.91441   0.23055   0.00000  Uiso   1.00
O273   O     0.68935   0.83821   0.21857   0.00000  Uiso   1.00
O274   O     0.81064   0.82845   0.11476   0.00000  Uiso   1.00
O275   O     0.68090   0.82843   0.11477   0.00000  Uiso   1.00
O276   O     0.81910   0.83824   0.21857   0.00000  Uiso   1.00
C277   C     0.24861   0.06668   0.48449   0.00000  Uiso   1.00
C278   C     0.08898   0.14813   0.44618   0.00000  Uiso   1.00
C279   C     0.38401   0.16685   0.49830   0.00000  Uiso   1.00
C280   C     0.11599   0.16649   0.50170   0.00000  Uiso   1.00
C281   C     0.40339   0.14850   0.44296   0.00000  Uiso   1.00
C282   C     0.09661   0.18484   0.55704   0.00000  Uiso   1.00
C283   C     0.44975   0.14823   0.44336   0.00000  Uiso   1.00
C284   C     0.05024   0.18511   0.55664   0.00000  Uiso   1.00
C285   C     0.47672   0.16675   0.49954   0.00000  Uiso   1.00
C286   C     0.02328   0.16658   0.50046   0.00000  Uiso   1.00
C287   C     0.45718   0.18541   0.55483   0.00000  Uiso   1.00
C288   C     0.25139   0.26665   0.51551   0.00000  Uiso   1.00
C289   C     0.04281   0.14792   0.44517   0.00000  Uiso   1.00
C290   C     0.46969   0.12955   0.38874   0.00000  Uiso   1.00
C291   C     0.03031   0.20379   0.61126   0.00000  Uiso   1.00
C292   C     0.01593   0.12937   0.38969   0.00000  Uiso   1.00
C293   C     0.48407   0.20396   0.61031   0.00000  Uiso   1.00
C294   C     0.24782   0.01094   0.47570   0.00000  Uiso   1.00
C295   C     0.25218   0.32240   0.52430   0.00000  Uiso   1.00
C296   C     0.16437   0.16665   0.50069   0.00000  Uiso   1.00
C297   C     0.33563   0.16668   0.49931   0.00000  Uiso   1.00
C298   C     0.41102   0.18521   0.55382   0.00000  Uiso   1.00
Cu299  Cu    0.25500   0.17246   0.56146   0.00000  Uiso   1.00
Cu300  Cu    0.24499   0.16087   0.43854   0.00000  Uiso   1.00
F301   F     0.37735   0.12995   0.38910   0.00000  Uiso   1.00
F302   F     0.12265   0.20338   0.61090   0.00000  Uiso   1.00
F303   F     0.24245   0.31524   0.41643   0.00000  Uiso   1.00
F304   F     0.25755   0.01810   0.58357   0.00000  Uiso   1.00
F305   F     0.20659   0.11932   0.64173   0.00000  Uiso   1.00
F306   F     0.29341   0.21401   0.35827   0.00000  Uiso   1.00
H307   H     0.44966   0.11516   0.34518   0.00000  Uiso   1.00
H308   H     0.05033   0.21817   0.65482   0.00000  Uiso   1.00
H309   H     0.03069   0.11485   0.34698   0.00000  Uiso   1.00
H310   H     0.46931   0.21848   0.65302   0.00000  Uiso   1.00
H311   H     0.39614   0.19966   0.59649   0.00000  Uiso   1.00
H312   H     0.10386   0.13367   0.40351   0.00000  Uiso   1.00
N313   N     0.23744   0.15214   0.34617   0.00000  Uiso   1.00
N314   N     0.26255   0.18119   0.65383   0.00000  Uiso   1.00
O315   O     0.25325   0.09538   0.53992   0.00000  Uiso   1.00
O316   O     0.24674   0.23796   0.46008   0.00000  Uiso   1.00
O317   O     0.24480   0.08559   0.43612   0.00000  Uiso   1.00
O318   O     0.25520   0.24774   0.56388   0.00000  Uiso   1.00
O319   O     0.18935   0.17155   0.55191   0.00000  Uiso   1.00
O320   O     0.31064   0.16179   0.44809   0.00000  Uiso   1.00
O321   O     0.18090   0.16176   0.44810   0.00000  Uiso   1.00
O322   O     0.31910   0.17157   0.55190   0.00000  Uiso   1.00
C323   C     0.74861   0.06668   0.48449   0.00000  Uiso   1.00
C324   C     0.58898   0.14813   0.44618   0.00000  Uiso   1.00
C325   C     0.88401   0.16685   0.49830   0.00000  Uiso   1.00
C326   C     0.61599   0.16649   0.50170   0.00000  Uiso   1.00
C327   C     0.90339   0.14850   0.44296   0.00000  Uiso   1.00
C328   C     0.59661   0.18484   0.55704   0.00000  Uiso   1.00
C329   C     0.94975   0.14823   0.44336   0.00000  Uiso   1.00
C330   C     0.55024   0.18511   0.55664   0.00000  Uiso   1.00
C331   C     0.97672   0.16675   0.49954   0.00000  Uiso   1.00
C332   C     0.52328   0.16658   0.50046   0.00000  Uiso   1.00
C333   C     0.95718   0.18541   0.55483   0.00000  Uiso   1.00
C334   C     0.75139   0.26665   0.51551   0.00000  Uiso   1.00
C335   C     0.54281   0.14792   0.44517   0.00000  Uiso   1.00
C336   C     0.96969   0.12955   0.38874   0.00000  Uiso   1.00
C337   C     0.53031   0.20379   0.61126   0.00000  Uiso   1.00
C338   C     0.51593   0.12937   0.38969   0.00000  Uiso   1.00
C339   C     0.98407   0.20396   0.61031   0.00000  Uiso   1.00
C340   C     0.74782   0.01094   0.47570   0.00000  Uiso   1.00
C341   C     0.75218   0.32240   0.52430   0.00000  Uiso   1.00
C342   C     0.66437   0.16665   0.50069   0.00000  Uiso   1.00
C343   C     0.83563   0.16668   0.49931   0.00000  Uiso   1.00
C344   C     0.91102   0.18521   0.55382   0.00000  Uiso   1.00
Cu345  Cu    0.75500   0.17246   0.56146   0.00000  Uiso   1.00
Cu346  Cu    0.74499   0.16087   0.43854   0.00000  Uiso   1.00
F347   F     0.87735   0.12995   0.38910   0.00000  Uiso   1.00
F348   F     0.62265   0.20338   0.61090   0.00000  Uiso   1.00
F349   F     0.74245   0.31524   0.41643   0.00000  Uiso   1.00
F350   F     0.75755   0.01810   0.58357   0.00000  Uiso   1.00
F351   F     0.70659   0.11932   0.64173   0.00000  Uiso   1.00
F352   F     0.79341   0.21401   0.35827   0.00000  Uiso   1.00
H353   H     0.94966   0.11516   0.34518   0.00000  Uiso   1.00
H354   H     0.55033   0.21817   0.65482   0.00000  Uiso   1.00
H355   H     0.53069   0.11485   0.34698   0.00000  Uiso   1.00
H356   H     0.96931   0.21848   0.65302   0.00000  Uiso   1.00
H357   H     0.89614   0.19966   0.59649   0.00000  Uiso   1.00
H358   H     0.60386   0.13367   0.40351   0.00000  Uiso   1.00
N359   N     0.73744   0.15214   0.34617   0.00000  Uiso   1.00
N360   N     0.76255   0.18119   0.65383   0.00000  Uiso   1.00
O361   O     0.75325   0.09538   0.53992   0.00000  Uiso   1.00
O362   O     0.74674   0.23796   0.46008   0.00000  Uiso   1.00
O363   O     0.74480   0.08559   0.43612   0.00000  Uiso   1.00
O364   O     0.75520   0.24774   0.56388   0.00000  Uiso   1.00
O365   O     0.68935   0.17155   0.55191   0.00000  Uiso   1.00
O366   O     0.81064   0.16179   0.44809   0.00000  Uiso   1.00
O367   O     0.68090   0.16176   0.44810   0.00000  Uiso   1.00
O368   O     0.81910   0.17157   0.55190   0.00000  Uiso   1.00
C369   C     0.24861   0.40001   0.48449   0.00000  Uiso   1.00
C370   C     0.08898   0.48146   0.44618   0.00000  Uiso   1.00
C371   C     0.38401   0.50018   0.49830   0.00000  Uiso   1.00
C372   C     0.11599   0.49982   0.50170   0.00000  Uiso   1.00
C373   C     0.40339   0.48183   0.44296   0.00000  Uiso   1.00
C374   C     0.09661   0.51817   0.55704   0.00000  Uiso   1.00
C375   C     0.44975   0.48156   0.44336   0.00000  Uiso   1.00
C376   C     0.05024   0.51844   0.55664   0.00000  Uiso   1.00
C377   C     0.47672   0.50009   0.49954   0.00000  Uiso   1.00
C378   C     0.02328   0.49991   0.50046   0.00000  Uiso   1.00
C379   C     0.45718   0.51875   0.55483   0.00000  Uiso   1.00
C380   C     0.25139   0.59999   0.51551   0.00000  Uiso   1.00
C381   C     0.04281   0.48125   0.44517   0.00000  Uiso   1.00
C382   C     0.46969   0.46288   0.38874   0.00000  Uiso   1.00
C383   C     0.03031   0.53712   0.61126   0.00000  Uiso   1.00
C384   C     0.01593   0.46271   0.38969   0.00000  Uiso   1.00
C385   C     0.48407   0.53729   0.61031   0.00000  Uiso   1.00
C386   C     0.24782   0.34427   0.47570   0.00000  Uiso   1.00
C387   C     0.25218   0.65573   0.52430   0.00000  Uiso   1.00
C388   C     0.16437   0.49998   0.50069   0.00000  Uiso   1.00
C389   C     0.33563   0.50002   0.49931   0.00000  Uiso   1.00
C390   C     0.41102   0.51854   0.55382   0.00000  Uiso   1.00
Cu391  Cu    0.25500   0.50579   0.56146   0.00000  Uiso   1.00
Cu392  Cu    0.24499   0.49421   0.43854   0.00000  Uiso   1.00
F393   F     0.37735   0.46329   0.38910   0.00000  Uiso   1.00
F394   F     0.12265   0.53671   0.61090   0.00000  Uiso   1.00
F395   F     0.24245   0.64857   0.41643   0.00000  Uiso   1.00
F396   F     0.25755   0.35143   0.58357   0.00000  Uiso   1.00
F397   F     0.20659   0.45265   0.64173   0.00000  Uiso   1.00
F398   F     0.29341   0.54735   0.35827   0.00000  Uiso   1.00
H399   H     0.44966   0.44849   0.34518   0.00000  Uiso   1.00
H400   H     0.05033   0.55151   0.65482   0.00000  Uiso   1.00
H401   H     0.03069   0.44819   0.34698   0.00000  Uiso   1.00
H402   H     0.46931   0.55181   0.65302   0.00000  Uiso   1.00
H403   H     0.39614   0.53300   0.59649   0.00000  Uiso   1.00
H404   H     0.10386   0.46700   0.40351   0.00000  Uiso   1.00
N405   N     0.23744   0.48547   0.34617   0.00000  Uiso   1.00
N406   N     0.26255   0.51453   0.65383   0.00000  Uiso   1.00
O407   O     0.25325   0.42871   0.53992   0.00000  Uiso   1.00
O408   O     0.24674   0.57129   0.46008   0.00000  Uiso   1.00
O409   O     0.24480   0.41892   0.43612   0.00000  Uiso   1.00
O410   O     0.25520   0.58108   0.56388   0.00000  Uiso   1.00
O411   O     0.18935   0.50488   0.55191   0.00000  Uiso   1.00
O412   O     0.31064   0.49512   0.44809   0.00000  Uiso   1.00
O413   O     0.18090   0.49510   0.44810   0.00000  Uiso   1.00
O414   O     0.31910   0.50490   0.55190   0.00000  Uiso   1.00
C415   C     0.74861   0.40001   0.48449   0.00000  Uiso   1.00
C416   C     0.58898   0.48146   0.44618   0.00000  Uiso   1.00
C417   C     0.88401   0.50018   0.49830   0.00000  Uiso   1.00
C418   C     0.61599   0.49982   0.50170   0.00000  Uiso   1.00
C419   C     0.90339   0.48183   0.44296   0.00000  Uiso   1.00
C420   C     0.59661   0.51817   0.55704   0.00000  Uiso   1.00
C421   C     0.94975   0.48156   0.44336   0.00000  Uiso   1.00
C422   C     0.55024   0.51844   0.55664   0.00000  Uiso   1.00
C423   C     0.97672   0.50009   0.49954   0.00000  Uiso   1.00
C424   C     0.52328   0.49991   0.50046   0.00000  Uiso   1.00
C425   C     0.95718   0.51875   0.55483   0.00000  Uiso   1.00
C426   C     0.75139   0.59999   0.51551   0.00000  Uiso   1.00
C427   C     0.54281   0.48125   0.44517   0.00000  Uiso   1.00
C428   C     0.96969   0.46288   0.38874   0.00000  Uiso   1.00
C429   C     0.53031   0.53712   0.61126   0.00000  Uiso   1.00
C430   C     0.51593   0.46271   0.38969   0.00000  Uiso   1.00
C431   C     0.98407   0.53729   0.61031   0.00000  Uiso   1.00
C432   C     0.74782   0.34427   0.47570   0.00000  Uiso   1.00
C433   C     0.75218   0.65573   0.52430   0.00000  Uiso   1.00
C434   C     0.66437   0.49998   0.50069   0.00000  Uiso   1.00
C435   C     0.83563   0.50002   0.49931   0.00000  Uiso   1.00
C436   C     0.91102   0.51854   0.55382   0.00000  Uiso   1.00
Cu437  Cu    0.75500   0.50579   0.56146   0.00000  Uiso   1.00
Cu438  Cu    0.74499   0.49421   0.43854   0.00000  Uiso   1.00
F439   F     0.87735   0.46329   0.38910   0.00000  Uiso   1.00
F440   F     0.62265   0.53671   0.61090   0.00000  Uiso   1.00
F441   F     0.74245   0.64857   0.41643   0.00000  Uiso   1.00
F442   F     0.75755   0.35143   0.58357   0.00000  Uiso   1.00
F443   F     0.70659   0.45265   0.64173   0.00000  Uiso   1.00
F444   F     0.79341   0.54735   0.35827   0.00000  Uiso   1.00
H445   H     0.94966   0.44849   0.34518   0.00000  Uiso   1.00
H446   H     0.55033   0.55151   0.65482   0.00000  Uiso   1.00
H447   H     0.53069   0.44819   0.34698   0.00000  Uiso   1.00
H448   H     0.96931   0.55181   0.65302   0.00000  Uiso   1.00
H449   H     0.89614   0.53300   0.59649   0.00000  Uiso   1.00
H450   H     0.60386   0.46700   0.40351   0.00000  Uiso   1.00
N451   N     0.73744   0.48547   0.34617   0.00000  Uiso   1.00
N452   N     0.76255   0.51453   0.65383   0.00000  Uiso   1.00
O453   O     0.75325   0.42871   0.53992   0.00000  Uiso   1.00
O454   O     0.74674   0.57129   0.46008   0.00000  Uiso   1.00
O455   O     0.74480   0.41892   0.43612   0.00000  Uiso   1.00
O456   O     0.75520   0.58108   0.56388   0.00000  Uiso   1.00
O457   O     0.68935   0.50488   0.55191   0.00000  Uiso   1.00
O458   O     0.81064   0.49512   0.44809   0.00000  Uiso   1.00
O459   O     0.68090   0.49510   0.44810   0.00000  Uiso   1.00
O460   O     0.81910   0.50490   0.55190   0.00000  Uiso   1.00
C461   C     0.24861   0.73335   0.48449   0.00000  Uiso   1.00
C462   C     0.08898   0.81479   0.44618   0.00000  Uiso   1.00
C463   C     0.38401   0.83351   0.49830   0.00000  Uiso   1.00
C464   C     0.11599   0.83315   0.50170   0.00000  Uiso   1.00
C465   C     0.40339   0.81516   0.44296   0.00000  Uiso   1.00
C466   C     0.09661   0.85150   0.55704   0.00000  Uiso   1.00
C467   C     0.44975   0.81489   0.44336   0.00000  Uiso   1.00
C468   C     0.05024   0.85177   0.55664   0.00000  Uiso   1.00
C469   C     0.47672   0.83342   0.49954   0.00000  Uiso   1.00
C470   C     0.02328   0.83325   0.50046   0.00000  Uiso   1.00
C471   C     0.45718   0.85208   0.55483   0.00000  Uiso   1.00
C472   C     0.25139   0.93332   0.51551   0.00000  Uiso   1.00
C473   C     0.04281   0.81459   0.44517   0.00000  Uiso   1.00
C474   C     0.46969   0.79621   0.38874   0.00000  Uiso   1.00
C475   C     0.03031   0.87045   0.61126   0.00000  Uiso   1.00
C476   C     0.01593   0.79604   0.38969   0.00000  Uiso   1.00
C477   C     0.48407   0.87063   0.61031   0.00000  Uiso   1.00
C478   C     0.24782   0.67760   0.47570   0.00000  Uiso   1.00
C479   C     0.25218   0.98906   0.52430   0.00000  Uiso   1.00
C480   C     0.16437   0.83332   0.50069   0.00000  Uiso   1.00
C481   C     0.33563   0.83335   0.49931   0.00000  Uiso   1.00
C482   C     0.41102   0.85187   0.55382   0.00000  Uiso   1.00
Cu483  Cu    0.25500   0.83913   0.56146   0.00000  Uiso   1.00
Cu484  Cu    0.24499   0.82754   0.43854   0.00000  Uiso   1.00
F485   F     0.37735   0.79662   0.38910   0.00000  Uiso   1.00
F486   F     0.12265   0.87005   0.61090   0.00000  Uiso   1.00
F487   F     0.24245   0.98190   0.41643   0.00000  Uiso   1.00
F488   F     0.25755   0.68476   0.58357   0.00000  Uiso   1.00
F489   F     0.20659   0.78599   0.64173   0.00000  Uiso   1.00
F490   F     0.29341   0.88068   0.35827   0.00000  Uiso   1.00
H491   H     0.44966   0.78183   0.34518   0.00000  Uiso   1.00
H492   H     0.05033   0.88484   0.65482   0.00000  Uiso   1.00
H493   H     0.03069   0.78152   0.34698   0.00000  Uiso   1.00
H494   H     0.46931   0.88515   0.65302   0.00000  Uiso   1.00
H495   H     0.39614   0.86633   0.59649   0.00000  Uiso   1.00
H496   H     0.10386   0.80034   0.40351   0.00000  Uiso   1.00
N497   N     0.23744   0.81881   0.34617   0.00000  Uiso   1.00
N498   N     0.26255   0.84786   0.65383   0.00000  Uiso   1.00
O499   O     0.25325   0.76204   0.53992   0.00000  Uiso   1.00
O500   O     0.24674   0.90462   0.46008   0.00000  Uiso   1.00
O501   O     0.24480   0.75226   0.43612   0.00000  Uiso   1.00
O502   O     0.25520   0.91441   0.56388   0.00000  Uiso   1.00
O503   O     0.18935   0.83821   0.55191   0.00000  Uiso   1.00
O504   O     0.31064   0.82845   0.44809   0.00000  Uiso   1.00
O505   O     0.18090   0.82843   0.44810   0.00000  Uiso   1.00
O506   O     0.31910   0.83824   0.55190   0.00000  Uiso   1.00
C507   C     0.74861   0.73335   0.48449   0.00000  Uiso   1.00
C508   C     0.58898   0.81479   0.44618   0.00000  Uiso   1.00
C509   C     0.88401   0.83351   0.49830   0.00000  Uiso   1.00
C510   C     0.61599   0.83315   0.50170   0.00000  Uiso   1.00
C511   C     0.90339   0.81516   0.44296   0.00000  Uiso   1.00
C512   C     0.59661   0.85150   0.55704   0.00000  Uiso   1.00
C513   C     0.94975   0.81489   0.44336   0.00000  Uiso   1.00
C514   C     0.55024   0.85177   0.55664   0.00000  Uiso   1.00
C515   C     0.97672   0.83342   0.49954   0.00000  Uiso   1.00
C516   C     0.52328   0.83325   0.50046   0.00000  Uiso   1.00
C517   C     0.95718   0.85208   0.55483   0.00000  Uiso   1.00
C518   C     0.75139   0.93332   0.51551   0.00000  Uiso   1.00
C519   C     0.54281   0.81459   0.44517   0.00000  Uiso   1.00
C520   C     0.96969   0.79621   0.38874   0.00000  Uiso   1.00
C521   C     0.53031   0.87045   0.61126   0.00000  Uiso   1.00
C522   C     0.51593   0.79604   0.38969   0.00000  Uiso   1.00
C523   C     0.98407   0.87063   0.61031   0.00000  Uiso   1.00
C524   C     0.74782   0.67760   0.47570   0.00000  Uiso   1.00
C525   C     0.75218   0.98906   0.52430   0.00000  Uiso   1.00
C526   C     0.66437   0.83332   0.50069   0.00000  Uiso   1.00
C527   C     0.83563   0.83335   0.49931   0.00000  Uiso   1.00
C528   C     0.91102   0.85187   0.55382   0.00000  Uiso   1.00
Cu529  Cu    0.75500   0.83913   0.56146   0.00000  Uiso   1.00
Cu530  Cu    0.74499   0.82754   0.43854   0.00000  Uiso   1.00
F531   F     0.87735   0.79662   0.38910   0.00000  Uiso   1.00
F532   F     0.62265   0.87005   0.61090   0.00000  Uiso   1.00
F533   F     0.74245   0.98190   0.41643   0.00000  Uiso   1.00
F534   F     0.75755   0.68476   0.58357   0.00000  Uiso   1.00
F535   F     0.70659   0.78599   0.64173   0.00000  Uiso   1.00
F536   F     0.79341   0.88068   0.35827   0.00000  Uiso   1.00
H537   H     0.94966   0.78183   0.34518   0.00000  Uiso   1.00
H538   H     0.55033   0.88484   0.65482   0.00000  Uiso   1.00
H539   H     0.53069   0.78152   0.34698   0.00000  Uiso   1.00
H540   H     0.96931   0.88515   0.65302   0.00000  Uiso   1.00
H541   H     0.89614   0.86633   0.59649   0.00000  Uiso   1.00
H542   H     0.60386   0.80034   0.40351   0.00000  Uiso   1.00
N543   N     0.73744   0.81881   0.34617   0.00000  Uiso   1.00
N544   N     0.76255   0.84786   0.65383   0.00000  Uiso   1.00
O545   O     0.75325   0.76204   0.53992   0.00000  Uiso   1.00
O546   O     0.74674   0.90462   0.46008   0.00000  Uiso   1.00
O547   O     0.74480   0.75226   0.43612   0.00000  Uiso   1.00
O548   O     0.75520   0.91441   0.56388   0.00000  Uiso   1.00
O549   O     0.68935   0.83821   0.55191   0.00000  Uiso   1.00
O550   O     0.81064   0.82845   0.44809   0.00000  Uiso   1.00
O551   O     0.68090   0.82843   0.44810   0.00000  Uiso   1.00
O552   O     0.81910   0.83824   0.55190   0.00000  Uiso   1.00
C553   C     0.24861   0.06668   0.81783   0.00000  Uiso   1.00
C554   C     0.08898   0.14813   0.77951   0.00000  Uiso   1.00
C555   C     0.38401   0.16685   0.83164   0.00000  Uiso   1.00
C556   C     0.11599   0.16649   0.83503   0.00000  Uiso   1.00
C557   C     0.40339   0.14850   0.77629   0.00000  Uiso   1.00
C558   C     0.09661   0.18484   0.89037   0.00000  Uiso   1.00
C559   C     0.44975   0.14823   0.77670   0.00000  Uiso   1.00
C560   C     0.05024   0.18511   0.88997   0.00000  Uiso   1.00
C561   C     0.47672   0.16675   0.83287   0.00000  Uiso   1.00
C562   C     0.02328   0.16658   0.83380   0.00000  Uiso   1.00
C563   C     0.45718   0.18541   0.88816   0.00000  Uiso   1.00
C564   C     0.25139   0.26665   0.84884   0.00000  Uiso   1.00
C565   C     0.04281   0.14792   0.77850   0.00000  Uiso   1.00
C566   C     0.46969   0.12955   0.72208   0.00000  Uiso   1.00
C567   C     0.03031   0.20379   0.94459   0.00000  Uiso   1.00
C568   C     0.01593   0.12937   0.72302   0.00000  Uiso   1.00
C569   C     0.48407   0.20396   0.94364   0.00000  Uiso   1.00
C570   C     0.24782   0.01094   0.80903   0.00000  Uiso   1.00
C571   C     0.25218   0.32240   0.85763   0.00000  Uiso   1.00
C572   C     0.16437   0.16665   0.83402   0.00000  Uiso   1.00
C573   C     0.33563   0.16668   0.83265   0.00000  Uiso   1.00
C574   C     0.41102   0.18521   0.88716   0.00000  Uiso   1.00
Cu575  Cu    0.25500   0.17246   0.89479   0.00000  Uiso   1.00
Cu576  Cu    0.24499   0.16087   0.77187   0.00000  Uiso   1.00
F577   F     0.37735   0.12995   0.72243   0.00000  Uiso   1.00
F578   F     0.12265   0.20338   0.94423   0.00000  Uiso   1.00
F579   F     0.24245   0.31524   0.74977   0.00000  Uiso   1.00
F580   F     0.25755   0.01810   0.91690   0.00000  Uiso   1.00
F581   F     0.20659   0.11932   0.97507   0.00000  Uiso   1.00
F582   F     0.29341   0.21401   0.69160   0.00000  Uiso   1.00
H583   H     0.44966   0.11516   0.67851   0.00000  Uiso   1.00
H584   H     0.05033   0.21817   0.98815   0.00000  Uiso   1.00
H585   H     0.03069   0.11485   0.68032   0.00000  Uiso   1.00
H586   H     0.46931   0.21848   0.98635   0.00000  Uiso   1.00
H587   H     0.39614   0.19966   0.92982   0.00000  Uiso   1.00
H588   H     0.10386   0.13367   0.73685   0.00000  Uiso   1.00
N589   N     0.23744   0.15214   0.67951   0.00000  Uiso   1.00
N590   N     0.26255   0.18119   0.98716   0.00000  Uiso   1.00
O591   O     0.25325   0.09538   0.87326   0.00000  Uiso   1.00
O592   O     0.24674   0.23796   0.79341   0.00000  Uiso   1.00
O593   O     0.24480   0.08559   0.76945   0.00000  Uiso   1.00
O594   O     0.25520   0.24774   0.89721   0.00000  Uiso   1.00
O595   O     0.18935   0.17155   0.88524   0.00000  Uiso   1.00
O596   O     0.31064   0.16179   0.78143   0.00000  Uiso   1.00
O597   O     0.18090   0.16176   0.78143   0.00000  Uiso   1.00
O598   O     0.31910   0.17157   0.88523   0.00000  Uiso   1.00
C599   C     0.74861   0.06668   0.81783   0.00000  Uiso   1.00
C600   C     0.58898   0.14813   0.77951   0.00000  Uiso   1.00
C601   C     0.88401   0.16685   0.83164   0.00000  Uiso   1.00
C602   C     0.61599   0.16649   0.83503   0.00000  Uiso   1.00
C603   C     0.90339   0.14850   0.77629   0.00000  Uiso   1.00
C604   C     0.59661   0.18484   0.89037   0.00000  Uiso   1.00
C605   C     0.94975   0.14823   0.77670   0.00000  Uiso   1.00
C606   C     0.55024   0.18511   0.88997   0.00000  Uiso   1.00
C607   C     0.97672   0.16675   0.83287   0.00000  Uiso   1.00
C608   C     0.52328   0.16658   0.83380   0.00000  Uiso   1.00
C609   C     0.95718   0.18541   0.88816   0.00000  Uiso   1.00
C610   C     0.75139   0.26665   0.84884   0.00000  Uiso   1.00
C611   C     0.54281   0.14792   0.77850   0.00000  Uiso   1.00
C612   C     0.96969   0.12955   0.72208   0.00000  Uiso   1.00
C613   C     0.53031   0.20379   0.94459   0.00000  Uiso   1.00
C614   C     0.51593   0.12937   0.72302   0.00000  Uiso   1.00
C615   C     0.98407   0.20396   0.94364   0.00000  Uiso   1.00
C616   C     0.74782   0.01094   0.80903   0.00000  Uiso   1.00
C617   C     0.75218   0.32240   0.85763   0.00000  Uiso   1.00
C618   C     0.66437   0.16665   0.83402   0.00000  Uiso   1.00
C619   C     0.83563   0.16668   0.83265   0.00000  Uiso   1.00
C620   C     0.91102   0.18521   0.88716   0.00000  Uiso   1.00
Cu621  Cu    0.75500   0.17246   0.89479   0.00000  Uiso   1.00
Cu622  Cu    0.74499   0.16087   0.77187   0.00000  Uiso   1.00
F623   F     0.87735   0.12995   0.72243   0.00000  Uiso   1.00
F624   F     0.62265   0.20338   0.94423   0.00000  Uiso   1.00
F625   F     0.74245   0.31524   0.74977   0.00000  Uiso   1.00
F626   F     0.75755   0.01810   0.91690   0.00000  Uiso   1.00
F627   F     0.70659   0.11932   0.97507   0.00000  Uiso   1.00
F628   F     0.79341   0.21401   0.69160   0.00000  Uiso   1.00
H629   H     0.94966   0.11516   0.67851   0.00000  Uiso   1.00
H630   H     0.55033   0.21817   0.98815   0.00000  Uiso   1.00
H631   H     0.53069   0.11485   0.68032   0.00000  Uiso   1.00
H632   H     0.96931   0.21848   0.98635   0.00000  Uiso   1.00
H633   H     0.89614   0.19966   0.92982   0.00000  Uiso   1.00
H634   H     0.60386   0.13367   0.73685   0.00000  Uiso   1.00
N635   N     0.73744   0.15214   0.67951   0.00000  Uiso   1.00
N636   N     0.76255   0.18119   0.98716   0.00000  Uiso   1.00
O637   O     0.75325   0.09538   0.87326   0.00000  Uiso   1.00
O638   O     0.74674   0.23796   0.79341   0.00000  Uiso   1.00
O639   O     0.74480   0.08559   0.76945   0.00000  Uiso   1.00
O640   O     0.75520   0.24774   0.89721   0.00000  Uiso   1.00
O641   O     0.68935   0.17155   0.88524   0.00000  Uiso   1.00
O642   O     0.81064   0.16179   0.78143   0.00000  Uiso   1.00
O643   O     0.68090   0.16176   0.78143   0.00000  Uiso   1.00
O644   O     0.81910   0.17157   0.88523   0.00000  Uiso   1.00
C645   C     0.24861   0.40001   0.81783   0.00000  Uiso   1.00
C646   C     0.08898   0.48146   0.77951   0.00000  Uiso   1.00
C647   C     0.38401   0.50018   0.83164   0.00000  Uiso   1.00
C648   C     0.11599   0.49982   0.83503   0.00000  Uiso   1.00
C649   C     0.40339   0.48183   0.77629   0.00000  Uiso   1.00
C650   C     0.09661   0.51817   0.89037   0.00000  Uiso   1.00
C651   C     0.44975   0.48156   0.77670   0.00000  Uiso   1.00
C652   C     0.05024   0.51844   0.88997   0.00000  Uiso   1.00
C653   C     0.47672   0.50009   0.83287   0.00000  Uiso   1.00
C654   C     0.02328   0.49991   0.83380   0.00000  Uiso   1.00
C655   C     0.45718   0.51875   0.88816   0.00000  Uiso   1.00
C656   C     0.25139   0.59999   0.84884   0.00000  Uiso   1.00
C657   C     0.04281   0.48125   0.77850   0.00000  Uiso   1.00
C658   C     0.46969   0.46288   0.72208   0.00000  Uiso   1.00
C659   C     0.03031   0.53712   0.94459   0.00000  Uiso   1.00
C660   C     0.01593   0.46271   0.72302   0.00000  Uiso   1.00
C661   C     0.48407   0.53729   0.94364   0.00000  Uiso   1.00
C662   C     0.24782   0.34427   0.80903   0.00000  Uiso   1.00
C663   C     0.25218   0.65573   0.85763   0.00000  Uiso   1.00
C664   C     0.16437   0.49998   0.83402   0.00000  Uiso   1.00
C665   C     0.33563   0.50002   0.83265   0.00000  Uiso   1.00
C666   C     0.41102   0.51854   0.88716   0.00000  Uiso   1.00
Cu667  Cu    0.25500   0.50579   0.89479   0.00000  Uiso   1.00
Cu668  Cu    0.24499   0.49421   0.77187   0.00000  Uiso   1.00
F669   F     0.37735   0.46329   0.72243   0.00000  Uiso   1.00
F670   F     0.12265   0.53671   0.94423   0.00000  Uiso   1.00
F671   F     0.24245   0.64857   0.74977   0.00000  Uiso   1.00
F672   F     0.25755   0.35143   0.91690   0.00000  Uiso   1.00
F673   F     0.20659   0.45265   0.97507   0.00000  Uiso   1.00
F674   F     0.29341   0.54735   0.69160   0.00000  Uiso   1.00
H675   H     0.44966   0.44849   0.67851   0.00000  Uiso   1.00
H676   H     0.05033   0.55151   0.98815   0.00000  Uiso   1.00
H677   H     0.03069   0.44819   0.68032   0.00000  Uiso   1.00
H678   H     0.46931   0.55181   0.98635   0.00000  Uiso   1.00
H679   H     0.39614   0.53300   0.92982   0.00000  Uiso   1.00
H680   H     0.10386   0.46700   0.73685   0.00000  Uiso   1.00
N681   N     0.23744   0.48547   0.67951   0.00000  Uiso   1.00
N682   N     0.26255   0.51453   0.98716   0.00000  Uiso   1.00
O683   O     0.25325   0.42871   0.87326   0.00000  Uiso   1.00
O684   O     0.24674   0.57129   0.79341   0.00000  Uiso   1.00
O685   O     0.24480   0.41892   0.76945   0.00000  Uiso   1.00
O686   O     0.25520   0.58108   0.89721   0.00000  Uiso   1.00
O687   O     0.18935   0.50488   0.88524   0.00000  Uiso   1.00
O688   O     0.31064   0.49512   0.78143   0.00000  Uiso   1.00
O689   O     0.18090   0.49510   0.78143   0.00000  Uiso   1.00
O690   O     0.31910   0.50490   0.88523   0.00000  Uiso   1.00
C691   C     0.74861   0.40001   0.81783   0.00000  Uiso   1.00
C692   C     0.58898   0.48146   0.77951   0.00000  Uiso   1.00
C693   C     0.88401   0.50018   0.83164   0.00000  Uiso   1.00
C694   C     0.61599   0.49982   0.83503   0.00000  Uiso   1.00
C695   C     0.90339   0.48183   0.77629   0.00000  Uiso   1.00
C696   C     0.59661   0.51817   0.89037   0.00000  Uiso   1.00
C697   C     0.94975   0.48156   0.77670   0.00000  Uiso   1.00
C698   C     0.55024   0.51844   0.88997   0.00000  Uiso   1.00
C699   C     0.97672   0.50009   0.83287   0.00000  Uiso   1.00
C700   C     0.52328   0.49991   0.83380   0.00000  Uiso   1.00
C701   C     0.95718   0.51875   0.88816   0.00000  Uiso   1.00
C702   C     0.75139   0.59999   0.84884   0.00000  Uiso   1.00
C703   C     0.54281   0.48125   0.77850   0.00000  Uiso   1.00
C704   C     0.96969   0.46288   0.72208   0.00000  Uiso   1.00
C705   C     0.53031   0.53712   0.94459   0.00000  Uiso   1.00
C706   C     0.51593   0.46271   0.72302   0.00000  Uiso   1.00
C707   C     0.98407   0.53729   0.94364   0.00000  Uiso   1.00
C708   C     0.74782   0.34427   0.80903   0.00000  Uiso   1.00
C709   C     0.75218   0.65573   0.85763   0.00000  Uiso   1.00
C710   C     0.66437   0.49998   0.83402   0.00000  Uiso   1.00
C711   C     0.83563   0.50002   0.83265   0.00000  Uiso   1.00
C712   C     0.91102   0.51854   0.88716   0.00000  Uiso   1.00
Cu713  Cu    0.75500   0.50579   0.89479   0.00000  Uiso   1.00
Cu714  Cu    0.74499   0.49421   0.77187   0.00000  Uiso   1.00
F715   F     0.87735   0.46329   0.72243   0.00000  Uiso   1.00
F716   F     0.62265   0.53671   0.94423   0.00000  Uiso   1.00
F717   F     0.74245   0.64857   0.74977   0.00000  Uiso   1.00
F718   F     0.75755   0.35143   0.91690   0.00000  Uiso   1.00
F719   F     0.70659   0.45265   0.97507   0.00000  Uiso   1.00
F720   F     0.79341   0.54735   0.69160   0.00000  Uiso   1.00
H721   H     0.94966   0.44849   0.67851   0.00000  Uiso   1.00
H722   H     0.55033   0.55151   0.98815   0.00000  Uiso   1.00
H723   H     0.53069   0.44819   0.68032   0.00000  Uiso   1.00
H724   H     0.96931   0.55181   0.98635   0.00000  Uiso   1.00
H725   H     0.89614   0.53300   0.92982   0.00000  Uiso   1.00
H726   H     0.60386   0.46700   0.73685   0.00000  Uiso   1.00
N727   N     0.73744   0.48547   0.67951   0.00000  Uiso   1.00
N728   N     0.76255   0.51453   0.98716   0.00000  Uiso   1.00
O729   O     0.75325   0.42871   0.87326   0.00000  Uiso   1.00
O730   O     0.74674   0.57129   0.79341   0.00000  Uiso   1.00
O731   O     0.74480   0.41892   0.76945   0.00000  Uiso   1.00
O732   O     0.75520   0.58108   0.89721   0.00000  Uiso   1.00
O733   O     0.68935   0.50488   0.88524   0.00000  Uiso   1.00
O734   O     0.81064   0.49512   0.78143   0.00000  Uiso   1.00
O735   O     0.68090   0.49510   0.78143   0.00000  Uiso   1.00
O736   O     0.81910   0.50490   0.88523   0.00000  Uiso   1.00
C737   C     0.24861   0.73335   0.81783   0.00000  Uiso   1.00
C738   C     0.08898   0.81479   0.77951   0.00000  Uiso   1.00
C739   C     0.38401   0.83351   0.83164   0.00000  Uiso   1.00
C740   C     0.11599   0.83315   0.83503   0.00000  Uiso   1.00
C741   C     0.40339   0.81516   0.77629   0.00000  Uiso   1.00
C742   C     0.09661   0.85150   0.89037   0.00000  Uiso   1.00
C743   C     0.44975   0.81489   0.77670   0.00000  Uiso   1.00
C744   C     0.05024   0.85177   0.88997   0.00000  Uiso   1.00
C745   C     0.47672   0.83342   0.83287   0.00000  Uiso   1.00
C746   C     0.02328   0.83325   0.83380   0.00000  Uiso   1.00
C747   C     0.45718   0.85208   0.88816   0.00000  Uiso   1.00
C748   C     0.25139   0.93332   0.84884   0.00000  Uiso   1.00
C749   C     0.04281   0.81459   0.77850   0.00000  Uiso   1.00
C750   C     0.46969   0.79621   0.72208   0.00000  Uiso   1.00
C751   C     0.03031   0.87045   0.94459   0.00000  Uiso   1.00
C752   C     0.01593   0.79604   0.72302   0.00000  Uiso   1.00
C753   C     0.48407   0.87063   0.94364   0.00000  Uiso   1.00
C754   C     0.24782   0.67760   0.80903   0.00000  Uiso   1.00
C755   C     0.25218   0.98906   0.85763   0.00000  Uiso   1.00
C756   C     0.16437   0.83332   0.83402   0.00000  Uiso   1.00
C757   C     0.33563   0.83335   0.83265   0.00000  Uiso   1.00
C758   C     0.41102   0.85187   0.88716   0.00000  Uiso   1.00
Cu759  Cu    0.25500   0.83913   0.89479   0.00000  Uiso   1.00
Cu760  Cu    0.24499   0.82754   0.77187   0.00000  Uiso   1.00
F761   F     0.37735   0.79662   0.72243   0.00000  Uiso   1.00
F762   F     0.12265   0.87005   0.94423   0.00000  Uiso   1.00
F763   F     0.24245   0.98190   0.74977   0.00000  Uiso   1.00
F764   F     0.25755   0.68476   0.91690   0.00000  Uiso   1.00
F765   F     0.20659   0.78599   0.97507   0.00000  Uiso   1.00
F766   F     0.29341   0.88068   0.69160   0.00000  Uiso   1.00
H767   H     0.44966   0.78183   0.67851   0.00000  Uiso   1.00
H768   H     0.05033   0.88484   0.98815   0.00000  Uiso   1.00
H769   H     0.03069   0.78152   0.68032   0.00000  Uiso   1.00
H770   H     0.46931   0.88515   0.98635   0.00000  Uiso   1.00
H771   H     0.39614   0.86633   0.92982   0.00000  Uiso   1.00
H772   H     0.10386   0.80034   0.73685   0.00000  Uiso   1.00
N773   N     0.23744   0.81881   0.67951   0.00000  Uiso   1.00
N774   N     0.26255   0.84786   0.98716   0.00000  Uiso   1.00
O775   O     0.25325   0.76204   0.87326   0.00000  Uiso   1.00
O776   O     0.24674   0.90462   0.79341   0.00000  Uiso   1.00
O777   O     0.24480   0.75226   0.76945   0.00000  Uiso   1.00
O778   O     0.25520   0.91441   0.89721   0.00000  Uiso   1.00
O779   O     0.18935   0.83821   0.88524   0.00000  Uiso   1.00
O780   O     0.31064   0.82845   0.78143   0.00000  Uiso   1.00
O781   O     0.18090   0.82843   0.78143   0.00000  Uiso   1.00
O782   O     0.31910   0.83824   0.88523   0.00000  Uiso   1.00
C783   C     0.74861   0.73335   0.81783   0.00000  Uiso   1.00
C784   C     0.58898   0.81479   0.77951   0.00000  Uiso   1.00
C785   C     0.88401   0.83351   0.83164   0.00000  Uiso   1.00
C786   C     0.61599   0.83315   0.83503   0.00000  Uiso   1.00
C787   C     0.90339   0.81516   0.77629   0.00000  Uiso   1.00
C788   C     0.59661   0.85150   0.89037   0.00000  Uiso   1.00
C789   C     0.94975   0.81489   0.77670   0.00000  Uiso   1.00
C790   C     0.55024   0.85177   0.88997   0.00000  Uiso   1.00
C791   C     0.97672   0.83342   0.83287   0.00000  Uiso   1.00
C792   C     0.52328   0.83325   0.83380   0.00000  Uiso   1.00
C793   C     0.95718   0.85208   0.88816   0.00000  Uiso   1.00
C794   C     0.75139   0.93332   0.84884   0.00000  Uiso   1.00
C795   C     0.54281   0.81459   0.77850   0.00000  Uiso   1.00
C796   C     0.96969   0.79621   0.72208   0.00000  Uiso   1.00
C797   C     0.53031   0.87045   0.94459   0.00000  Uiso   1.00
C798   C     0.51593   0.79604   0.72302   0.00000  Uiso   1.00
C799   C     0.98407   0.87063   0.94364   0.00000  Uiso   1.00
C800   C     0.74782   0.67760   0.80903   0.00000  Uiso   1.00
C801   C     0.75218   0.98906   0.85763   0.00000  Uiso   1.00
C802   C     0.66437   0.83332   0.83402   0.00000  Uiso   1.00
C803   C     0.83563   0.83335   0.83265   0.00000  Uiso   1.00
C804   C     0.91102   0.85187   0.88716   0.00000  Uiso   1.00
Cu805  Cu    0.75500   0.83913   0.89479   0.00000  Uiso   1.00
Cu806  Cu    0.74499   0.82754   0.77187   0.00000  Uiso   1.00
F807   F     0.87735   0.79662   0.72243   0.00000  Uiso   1.00
F808   F     0.62265   0.87005   0.94423   0.00000  Uiso   1.00
F809   F     0.74245   0.98190   0.74977   0.00000  Uiso   1.00
F810   F     0.75755   0.68476   0.91690   0.00000  Uiso   1.00
F811   F     0.70659   0.78599   0.97507   0.00000  Uiso   1.00
F812   F     0.79341   0.88068   0.69160   0.00000  Uiso   1.00
H813   H     0.94966   0.78183   0.67851   0.00000  Uiso   1.00
H814   H     0.55033   0.88484   0.98815   0.00000  Uiso   1.00
H815   H     0.53069   0.78152   0.68032   0.00000  Uiso   1.00
H816   H     0.96931   0.88515   0.98635   0.00000  Uiso   1.00
H817   H     0.89614   0.86633   0.92982   0.00000  Uiso   1.00
H818   H     0.60386   0.80034   0.73685   0.00000  Uiso   1.00
N819   N     0.73744   0.81881   0.67951   0.00000  Uiso   1.00
N820   N     0.76255   0.84786   0.98716   0.00000  Uiso   1.00
O821   O     0.75325   0.76204   0.87326   0.00000  Uiso   1.00
O822   O     0.74674   0.90462   0.79341   0.00000  Uiso   1.00
O823   O     0.74480   0.75226   0.76945   0.00000  Uiso   1.00
O824   O     0.75520   0.91441   0.89721   0.00000  Uiso   1.00
O825   O     0.68935   0.83821   0.88524   0.00000  Uiso   1.00
O826   O     0.81064   0.82845   0.78143   0.00000  Uiso   1.00
O827   O     0.68090   0.82843   0.78143   0.00000  Uiso   1.00
O828   O     0.81910   0.83824   0.88523   0.00000  Uiso   1.00
loop_
_geom_bond_atom_site_label_1
_geom_bond_atom_site_label_2
_geom_bond_distance
_geom_bond_site_symmetry_2
_ccdc_geom_bond_type
C1     C18     1.427   .     S
C1     O41     1.287   .     A
C1     O39     1.289   .     A
C2     C4      1.403   .     A
C2     H36     1.085   .     S
C2     C13     1.389   .     A
C3     C21     1.459   .     S
C3     C22     1.403   .     A
C3     C5      1.406   .     A
C4     C6      1.406   .     A
C4     C20     1.459   .     S
C5     F25     1.360   .     S
C5     C7      1.397   .     A
C6     F26     1.360   .     S
C6     C8      1.397   .     A
C7     C9      1.413   .     A
C7     C14     1.403   .     A
C8     C10     1.413   .     A
C8     C15     1.403   .     A
C9     C11     1.409   .     A
C9     C56     1.402   .     S
C10    C13     1.409   .     A
C10    C55     1.402   1_455 S
C11    C22     1.389   .     A
C11    C17     1.400   .     A
C12    O40     1.289   .     A
C12    O42     1.287   .     A
C12    C19     1.427   .     S
C13    C16     1.400   .     A
C14    H31     1.083   .     S
C14    C62     1.392   .     S
C15    H32     1.083   .     S
C15    C63     1.392   1_455 S
C16    H33     1.084   .     S
C16    C60     1.392   1_455 S
C17    H34     1.084   .     S
C17    C61     1.392   .     S
C18    C203    1.339   1_545 S
C18    F211    1.364   1_545 S
C19    C110    1.339   .     S
C19    F120    1.364   .     S
C20    O45     1.295   .     A
C20    O43     1.298   .     A
C21    O44     1.298   .     A
C21    O46     1.295   .     A
C22    H35     1.085   .     S
Cu23   Cu24    2.688   .     S
Cu23   O46     1.960   .     S
Cu23   O42     1.959   .     S
Cu23   O39     1.963   .     S
Cu23   N38     2.020   .     S
Cu23   O43     1.971   .     S
Cu24   N37     2.020   .     S
Cu24   O41     1.959   .     S
Cu24   O45     1.960   .     S
Cu24   O40     1.963   .     S
Cu24   O44     1.971   .     S
F27    C110    1.364   .     S
F28    C203    1.364   1_545 S
F29    N313    1.335   .     S
F30    N590    1.335   1_554 S
N37    F581    1.335   1_554 S
N37    N590    1.298   1_554 S
N38    N313    1.298   .     S
N38    F306    1.335   .     S
C47    C64     1.427   .     S
C47    O87     1.287   .     A
C47    O85     1.289   .     A
C48    C50     1.403   .     A
C48    H82     1.085   .     S
C48    C59     1.389   .     A
C49    C67     1.459   .     S
C49    C68     1.403   .     A
C49    C51     1.406   .     A
C50    C52     1.406   .     A
C50    C66     1.459   .     S
C51    F71     1.360   .     S
C51    C53     1.397   .     A
C52    F72     1.360   .     S
C52    C54     1.397   .     A
C53    C55     1.413   .     A
C53    C60     1.403   .     A
C54    C56     1.413   .     A
C54    C61     1.403   .     A
C55    C57     1.409   .     A
C55    C10     1.402   1_655 S
C56    C59     1.409   .     A
C57    C68     1.389   .     A
C57    C63     1.400   .     A
C58    O86     1.289   .     A
C58    O88     1.287   .     A
C58    C65     1.427   .     S
C59    C62     1.400   .     A
C60    H77     1.083   .     S
C60    C16     1.392   1_655 S
C61    H78     1.083   .     S
C62    H79     1.084   .     S
C63    H80     1.084   .     S
C63    C15     1.392   1_655 S
C64    C249    1.339   1_545 S
C64    F257    1.364   1_545 S
C65    C156    1.339   .     S
C65    F166    1.364   .     S
C66    O91     1.295   .     A
C66    O89     1.298   .     A
C67    O90     1.298   .     A
C67    O92     1.295   .     A
C68    H81     1.085   .     S
Cu69   Cu70    2.688   .     S
Cu69   O92     1.960   .     S
Cu69   O88     1.959   .     S
Cu69   O85     1.963   .     S
Cu69   N84     2.020   .     S
Cu69   O89     1.971   .     S
Cu70   N83     2.020   .     S
Cu70   O87     1.959   .     S
Cu70   O91     1.960   .     S
Cu70   O86     1.963   .     S
Cu70   O90     1.971   .     S
F73    C156    1.364   .     S
F74    C249    1.364   1_545 S
F75    N359    1.335   .     S
F76    N636    1.335   1_554 S
N83    F627    1.335   1_554 S
N83    N636    1.298   1_554 S
N84    N359    1.298   .     S
N84    F352    1.335   .     S
C93    C110    1.427   .     S
C93    O133    1.287   .     A
C93    O131    1.289   .     A
C94    C96     1.403   .     A
C94    H128    1.085   .     S
C94    C105    1.389   .     A
C95    C113    1.459   .     S
C95    C114    1.403   .     A
C95    C97     1.406   .     A
C96    C98     1.406   .     A
C96    C112    1.459   .     S
C97    F117    1.360   .     S
C97    C99     1.397   .     A
C98    F118    1.360   .     S
C98    C100    1.397   .     A
C99    C101    1.413   .     A
C99    C106    1.403   .     A
C100   C102    1.413   .     A
C100   C107    1.403   .     A
C101   C103    1.409   .     A
C101   C148    1.402   .     S
C102   C105    1.409   .     A
C102   C147    1.402   1_455 S
C103   C114    1.389   .     A
C103   C109    1.400   .     A
C104   O132    1.289   .     A
C104   O134    1.287   .     A
C104   C111    1.427   .     S
C105   C108    1.400   .     A
C106   H123    1.083   .     S
C106   C154    1.392   .     S
C107   H124    1.083   .     S
C107   C155    1.392   1_455 S
C108   H125    1.084   .     S
C108   C152    1.392   1_455 S
C109   H126    1.084   .     S
C109   C153    1.392   .     S
C111   C202    1.339   .     S
C111   F212    1.364   .     S
C112   O137    1.295   .     A
C112   O135    1.298   .     A
C113   O136    1.298   .     A
C113   O138    1.295   .     A
C114   H127    1.085   .     S
Cu115  Cu116   2.688   .     S
Cu115  O138    1.960   .     S
Cu115  O134    1.959   .     S
Cu115  O131    1.963   .     S
Cu115  N130    2.020   .     S
Cu115  O135    1.971   .     S
Cu116  N129    2.020   .     S
Cu116  O133    1.959   .     S
Cu116  O137    1.960   .     S
Cu116  O132    1.963   .     S
Cu116  O136    1.971   .     S
F119   C202    1.364   .     S
F121   N405    1.335   .     S
F122   N682    1.335   1_554 S
N129   F673    1.335   1_554 S
N129   N682    1.298   1_554 S
N130   N405    1.298   .     S
N130   F398    1.335   .     S
C139   C156    1.427   .     S
C139   O179    1.287   .     A
C139   O177    1.289   .     A
C140   C142    1.403   .     A
C140   H174    1.085   .     S
C140   C151    1.389   .     A
C141   C159    1.459   .     S
C141   C160    1.403   .     A
C141   C143    1.406   .     A
C142   C144    1.406   .     A
C142   C158    1.459   .     S
C143   F163    1.360   .     S
C143   C145    1.397   .     A
C144   F164    1.360   .     S
C144   C146    1.397   .     A
C145   C147    1.413   .     A
C145   C152    1.403   .     A
C146   C148    1.413   .     A
C146   C153    1.403   .     A
C147   C149    1.409   .     A
C147   C102    1.402   1_655 S
C148   C151    1.409   .     A
C149   C160    1.389   .     A
C149   C155    1.400   .     A
C150   O178    1.289   .     A
C150   O180    1.287   .     A
C150   C157    1.427   .     S
C151   C154    1.400   .     A
C152   H169    1.083   .     S
C152   C108    1.392   1_655 S
C153   H170    1.083   .     S
C154   H171    1.084   .     S
C155   H172    1.084   .     S
C155   C107    1.392   1_655 S
C157   C248    1.339   .     S
C157   F258    1.364   .     S
C158   O183    1.295   .     A
C158   O181    1.298   .     A
C159   O182    1.298   .     A
C159   O184    1.295   .     A
C160   H173    1.085   .     S
Cu161  Cu162   2.688   .     S
Cu161  O184    1.960   .     S
Cu161  O180    1.959   .     S
Cu161  O177    1.963   .     S
Cu161  N176    2.020   .     S
Cu161  O181    1.971   .     S
Cu162  N175    2.020   .     S
Cu162  O179    1.959   .     S
Cu162  O183    1.960   .     S
Cu162  O178    1.963   .     S
Cu162  O182    1.971   .     S
F165   C248    1.364   .     S
F167   N451    1.335   .     S
F168   N728    1.335   1_554 S
N175   F719    1.335   1_554 S
N175   N728    1.298   1_554 S
N176   N451    1.298   .     S
N176   F444    1.335   .     S
C185   C202    1.427   .     S
C185   O225    1.287   .     A
C185   O223    1.289   .     A
C186   C188    1.403   .     A
C186   H220    1.085   .     S
C186   C197    1.389   .     A
C187   C205    1.459   .     S
C187   C206    1.403   .     A
C187   C189    1.406   .     A
C188   C190    1.406   .     A
C188   C204    1.459   .     S
C189   F209    1.360   .     S
C189   C191    1.397   .     A
C190   F210    1.360   .     S
C190   C192    1.397   .     A
C191   C193    1.413   .     A
C191   C198    1.403   .     A
C192   C194    1.413   .     A
C192   C199    1.403   .     A
C193   C195    1.409   .     A
C193   C240    1.402   .     S
C194   C197    1.409   .     A
C194   C239    1.402   1_455 S
C195   C206    1.389   .     A
C195   C201    1.400   .     A
C196   O224    1.289   .     A
C196   O226    1.287   .     A
C196   C203    1.427   .     S
C197   C200    1.400   .     A
C198   H215    1.083   .     S
C198   C246    1.392   .     S
C199   H216    1.083   .     S
C199   C247    1.392   1_455 S
C200   H217    1.084   .     S
C200   C244    1.392   1_455 S
C201   H218    1.084   .     S
C201   C245    1.392   .     S
C203   C18     1.339   1_565 S
C203   F28     1.364   1_565 S
C204   O229    1.295   .     A
C204   O227    1.298   .     A
C205   O228    1.298   .     A
C205   O230    1.295   .     A
C206   H219    1.085   .     S
Cu207  Cu208   2.688   .     S
Cu207  O230    1.960   .     S
Cu207  O226    1.959   .     S
Cu207  O223    1.963   .     S
Cu207  N222    2.020   .     S
Cu207  O227    1.971   .     S
Cu208  N221    2.020   .     S
Cu208  O225    1.959   .     S
Cu208  O229    1.960   .     S
Cu208  O224    1.963   .     S
Cu208  O228    1.971   .     S
F211   C18     1.364   1_565 S
F213   N497    1.335   .     S
F214   N774    1.335   1_554 S
N221   F765    1.335   1_554 S
N221   N774    1.298   1_554 S
N222   N497    1.298   .     S
N222   F490    1.335   .     S
C231   C248    1.427   .     S
C231   O271    1.287   .     A
C231   O269    1.289   .     A
C232   C234    1.403   .     A
C232   H266    1.085   .     S
C232   C243    1.389   .     A
C233   C251    1.459   .     S
C233   C252    1.403   .     A
C233   C235    1.406   .     A
C234   C236    1.406   .     A
C234   C250    1.459   .     S
C235   F255    1.360   .     S
C235   C237    1.397   .     A
C236   F256    1.360   .     S
C236   C238    1.397   .     A
C237   C239    1.413   .     A
C237   C244    1.403   .     A
C238   C240    1.413   .     A
C238   C245    1.403   .     A
C239   C241    1.409   .     A
C239   C194    1.402   1_655 S
C240   C243    1.409   .     A
C241   C252    1.389   .     A
C241   C247    1.400   .     A
C242   O270    1.289   .     A
C242   O272    1.287   .     A
C242   C249    1.427   .     S
C243   C246    1.400   .     A
C244   H261    1.083   .     S
C244   C200    1.392   1_655 S
C245   H262    1.083   .     S
C246   H263    1.084   .     S
C247   H264    1.084   .     S
C247   C199    1.392   1_655 S
C249   C64     1.339   1_565 S
C249   F74     1.364   1_565 S
C250   O275    1.295   .     A
C250   O273    1.298   .     A
C251   O274    1.298   .     A
C251   O276    1.295   .     A
C252   H265    1.085   .     S
Cu253  Cu254   2.688   .     S
Cu253  O276    1.960   .     S
Cu253  O272    1.959   .     S
Cu253  O269    1.963   .     S
Cu253  N268    2.020   .     S
Cu253  O273    1.971   .     S
Cu254  N267    2.020   .     S
Cu254  O271    1.959   .     S
Cu254  O275    1.960   .     S
Cu254  O270    1.963   .     S
Cu254  O274    1.971   .     S
F257   C64     1.364   1_565 S
F259   N543    1.335   .     S
F260   N820    1.335   1_554 S
N267   F811    1.335   1_554 S
N267   N820    1.298   1_554 S
N268   N543    1.298   .     S
N268   F536    1.335   .     S
C277   C294    1.427   .     S
C277   O317    1.287   .     A
C277   O315    1.289   .     A
C278   C280    1.403   .     A
C278   H312    1.085   .     S
C278   C289    1.389   .     A
C279   C297    1.459   .     S
C279   C298    1.403   .     A
C279   C281    1.406   .     A
C280   C282    1.406   .     A
C280   C296    1.459   .     S
C281   F301    1.360   .     S
C281   C283    1.397   .     A
C282   F302    1.360   .     S
C282   C284    1.397   .     A
C283   C285    1.413   .     A
C283   C290    1.403   .     A
C284   C286    1.413   .     A
C284   C291    1.403   .     A
C285   C287    1.409   .     A
C285   C332    1.402   .     S
C286   C289    1.409   .     A
C286   C331    1.402   1_455 S
C287   C298    1.389   .     A
C287   C293    1.400   .     A
C288   O316    1.289   .     A
C288   O318    1.287   .     A
C288   C295    1.427   .     S
C289   C292    1.400   .     A
C290   H307    1.083   .     S
C290   C338    1.392   .     S
C291   H308    1.083   .     S
C291   C339    1.392   1_455 S
C292   H309    1.084   .     S
C292   C336    1.392   1_455 S
C293   H310    1.084   .     S
C293   C337    1.392   .     S
C294   C479    1.339   1_545 S
C294   F487    1.364   1_545 S
C295   C386    1.339   .     S
C295   F396    1.364   .     S
C296   O321    1.295   .     A
C296   O319    1.298   .     A
C297   O320    1.298   .     A
C297   O322    1.295   .     A
C298   H311    1.085   .     S
Cu299  Cu300   2.688   .     S
Cu299  O322    1.960   .     S
Cu299  O318    1.959   .     S
Cu299  O315    1.963   .     S
Cu299  N314    2.020   .     S
Cu299  O319    1.971   .     S
Cu300  N313    2.020   .     S
Cu300  O317    1.959   .     S
Cu300  O321    1.960   .     S
Cu300  O316    1.963   .     S
Cu300  O320    1.971   .     S
F303   C386    1.364   .     S
F304   C479    1.364   1_545 S
F305   N589    1.335   .     S
N314   N589    1.298   .     S
N314   F582    1.335   .     S
C323   C340    1.427   .     S
C323   O363    1.287   .     A
C323   O361    1.289   .     A
C324   C326    1.403   .     A
C324   H358    1.085   .     S
C324   C335    1.389   .     A
C325   C343    1.459   .     S
C325   C344    1.403   .     A
C325   C327    1.406   .     A
C326   C328    1.406   .     A
C326   C342    1.459   .     S
C327   F347    1.360   .     S
C327   C329    1.397   .     A
C328   F348    1.360   .     S
C328   C330    1.397   .     A
C329   C331    1.413   .     A
C329   C336    1.403   .     A
C330   C332    1.413   .     A
C330   C337    1.403   .     A
C331   C333    1.409   .     A
C331   C286    1.402   1_655 S
C332   C335    1.409   .     A
C333   C344    1.389   .     A
C333   C339    1.400   .     A
C334   O362    1.289   .     A
C334   O364    1.287   .     A
C334   C341    1.427   .     S
C335   C338    1.400   .     A
C336   H353    1.083   .     S
C336   C292    1.392   1_655 S
C337   H354    1.083   .     S
C338   H355    1.084   .     S
C339   H356    1.084   .     S
C339   C291    1.392   1_655 S
C340   C525    1.339   1_545 S
C340   F533    1.364   1_545 S
C341   C432    1.339   .     S
C341   F442    1.364   .     S
C342   O367    1.295   .     A
C342   O365    1.298   .     A
C343   O366    1.298   .     A
C343   O368    1.295   .     A
C344   H357    1.085   .     S
Cu345  Cu346   2.688   .     S
Cu345  O368    1.960   .     S
Cu345  O364    1.959   .     S
Cu345  O361    1.963   .     S
Cu345  N360    2.020   .     S
Cu345  O365    1.971   .     S
Cu346  N359    2.020   .     S
Cu346  O363    1.959   .     S
Cu346  O367    1.960   .     S
Cu346  O362    1.963   .     S
Cu346  O366    1.971   .     S
F349   C432    1.364   .     S
F350   C525    1.364   1_545 S
F351   N635    1.335   .     S
N360   N635    1.298   .     S
N360   F628    1.335   .     S
C369   C386    1.427   .     S
C369   O409    1.287   .     A
C369   O407    1.289   .     A
C370   C372    1.403   .     A
C370   H404    1.085   .     S
C370   C381    1.389   .     A
C371   C389    1.459   .     S
C371   C390    1.403   .     A
C371   C373    1.406   .     A
C372   C374    1.406   .     A
C372   C388    1.459   .     S
C373   F393    1.360   .     S
C373   C375    1.397   .     A
C374   F394    1.360   .     S
C374   C376    1.397   .     A
C375   C377    1.413   .     A
C375   C382    1.403   .     A
C376   C378    1.413   .     A
C376   C383    1.403   .     A
C377   C379    1.409   .     A
C377   C424    1.402   .     S
C378   C381    1.409   .     A
C378   C423    1.402   1_455 S
C379   C390    1.389   .     A
C379   C385    1.400   .     A
C380   O408    1.289   .     A
C380   O410    1.287   .     A
C380   C387    1.427   .     S
C381   C384    1.400   .     A
C382   H399    1.083   .     S
C382   C430    1.392   .     S
C383   H400    1.083   .     S
C383   C431    1.392   1_455 S
C384   H401    1.084   .     S
C384   C428    1.392   1_455 S
C385   H402    1.084   .     S
C385   C429    1.392   .     S
C387   C478    1.339   .     S
C387   F488    1.364   .     S
C388   O413    1.295   .     A
C388   O411    1.298   .     A
C389   O412    1.298   .     A
C389   O414    1.295   .     A
C390   H403    1.085   .     S
Cu391  Cu392   2.688   .     S
Cu391  O414    1.960   .     S
Cu391  O410    1.959   .     S
Cu391  O407    1.963   .     S
Cu391  N406    2.020   .     S
Cu391  O411    1.971   .     S
Cu392  N405    2.020   .     S
Cu392  O409    1.959   .     S
Cu392  O413    1.960   .     S
Cu392  O408    1.963   .     S
Cu392  O412    1.971   .     S
F395   C478    1.364   .     S
F397   N681    1.335   .     S
N406   N681    1.298   .     S
N406   F674    1.335   .     S
C415   C432    1.427   .     S
C415   O455    1.287   .     A
C415   O453    1.289   .     A
C416   C418    1.403   .     A
C416   H450    1.085   .     S
C416   C427    1.389   .     A
C417   C435    1.459   .     S
C417   C436    1.403   .     A
C417   C419    1.406   .     A
C418   C420    1.406   .     A
C418   C434    1.459   .     S
C419   F439    1.360   .     S
C419   C421    1.397   .     A
C420   F440    1.360   .     S
C420   C422    1.397   .     A
C421   C423    1.413   .     A
C421   C428    1.403   .     A
C422   C424    1.413   .     A
C422   C429    1.403   .     A
C423   C425    1.409   .     A
C423   C378    1.402   1_655 S
C424   C427    1.409   .     A
C425   C436    1.389   .     A
C425   C431    1.400   .     A
C426   O454    1.289   .     A
C426   O456    1.287   .     A
C426   C433    1.427   .     S
C427   C430    1.400   .     A
C428   H445    1.083   .     S
C428   C384    1.392   1_655 S
C429   H446    1.083   .     S
C430   H447    1.084   .     S
C431   H448    1.084   .     S
C431   C383    1.392   1_655 S
C433   C524    1.339   .     S
C433   F534    1.364   .     S
C434   O459    1.295   .     A
C434   O457    1.298   .     A
C435   O458    1.298   .     A
C435   O460    1.295   .     A
C436   H449    1.085   .     S
Cu437  Cu438   2.688   .     S
Cu437  O460    1.960   .     S
Cu437  O456    1.959   .     S
Cu437  O453    1.963   .     S
Cu437  N452    2.020   .     S
Cu437  O457    1.971   .     S
Cu438  N451    2.020   .     S
Cu438  O455    1.959   .     S
Cu438  O459    1.960   .     S
Cu438  O454    1.963   .     S
Cu438  O458    1.971   .     S
F441   C524    1.364   .     S
F443   N727    1.335   .     S
N452   N727    1.298   .     S
N452   F720    1.335   .     S
C461   C478    1.427   .     S
C461   O501    1.287   .     A
C461   O499    1.289   .     A
C462   C464    1.403   .     A
C462   H496    1.085   .     S
C462   C473    1.389   .     A
C463   C481    1.459   .     S
C463   C482    1.403   .     A
C463   C465    1.406   .     A
C464   C466    1.406   .     A
C464   C480    1.459   .     S
C465   F485    1.360   .     S
C465   C467    1.397   .     A
C466   F486    1.360   .     S
C466   C468    1.397   .     A
C467   C469    1.413   .     A
C467   C474    1.403   .     A
C468   C470    1.413   .     A
C468   C475    1.403   .     A
C469   C471    1.409   .     A
C469   C516    1.402   .     S
C470   C473    1.409   .     A
C470   C515    1.402   1_455 S
C471   C482    1.389   .     A
C471   C477    1.400   .     A
C472   O500    1.289   .     A
C472   O502    1.287   .     A
C472   C479    1.427   .     S
C473   C476    1.400   .     A
C474   H491    1.083   .     S
C474   C522    1.392   .     S
C475   H492    1.083   .     S
C475   C523    1.392   1_455 S
C476   H493    1.084   .     S
C476   C520    1.392   1_455 S
C477   H494    1.084   .     S
C477   C521    1.392   .     S
C479   C294    1.339   1_565 S
C479   F304    1.364   1_565 S
C480   O505    1.295   .     A
C480   O503    1.298   .     A
C481   O504    1.298   .     A
C481   O506    1.295   .     A
C482   H495    1.085   .     S
Cu483  Cu484   2.688   .     S
Cu483  O506    1.960   .     S
Cu483  O502    1.959   .     S
Cu483  O499    1.963   .     S
Cu483  N498    2.020   .     S
Cu483  O503    1.971   .     S
Cu484  N497    2.020   .     S
Cu484  O501    1.959   .     S
Cu484  O505    1.960   .     S
Cu484  O500    1.963   .     S
Cu484  O504    1.971   .     S
F487   C294    1.364   1_565 S
F489   N773    1.335   .     S
N498   N773    1.298   .     S
N498   F766    1.335   .     S
C507   C524    1.427   .     S
C507   O547    1.287   .     A
C507   O545    1.289   .     A
C508   C510    1.403   .     A
C508   H542    1.085   .     S
C508   C519    1.389   .     A
C509   C527    1.459   .     S
C509   C528    1.403   .     A
C509   C511    1.406   .     A
C510   C512    1.406   .     A
C510   C526    1.459   .     S
C511   F531    1.360   .     S
C511   C513    1.397   .     A
C512   F532    1.360   .     S
C512   C514    1.397   .     A
C513   C515    1.413   .     A
C513   C520    1.403   .     A
C514   C516    1.413   .     A
C514   C521    1.403   .     A
C515   C517    1.409   .     A
C515   C470    1.402   1_655 S
C516   C519    1.409   .     A
C517   C528    1.389   .     A
C517   C523    1.400   .     A
C518   O546    1.289   .     A
C518   O548    1.287   .     A
C518   C525    1.427   .     S
C519   C522    1.400   .     A
C520   H537    1.083   .     S
C520   C476    1.392   1_655 S
C521   H538    1.083   .     S
C522   H539    1.084   .     S
C523   H540    1.084   .     S
C523   C475    1.392   1_655 S
C525   C340    1.339   1_565 S
C525   F350    1.364   1_565 S
C526   O551    1.295   .     A
C526   O549    1.298   .     A
C527   O550    1.298   .     A
C527   O552    1.295   .     A
C528   H541    1.085   .     S
Cu529  Cu530   2.688   .     S
Cu529  O552    1.960   .     S
Cu529  O548    1.959   .     S
Cu529  O545    1.963   .     S
Cu529  N544    2.020   .     S
Cu529  O549    1.971   .     S
Cu530  N543    2.020   .     S
Cu530  O547    1.959   .     S
Cu530  O551    1.960   .     S
Cu530  O546    1.963   .     S
Cu530  O550    1.971   .     S
F533   C340    1.364   1_565 S
F535   N819    1.335   .     S
N544   N819    1.298   .     S
N544   F812    1.335   .     S
C553   C570    1.427   .     S
C553   O593    1.287   .     A
C553   O591    1.289   .     A
C554   C556    1.403   .     A
C554   H588    1.085   .     S
C554   C565    1.389   .     A
C555   C573    1.459   .     S
C555   C574    1.403   .     A
C555   C557    1.406   .     A
C556   C558    1.406   .     A
C556   C572    1.459   .     S
C557   F577    1.360   .     S
C557   C559    1.397   .     A
C558   F578    1.360   .     S
C558   C560    1.397   .     A
C559   C561    1.413   .     A
C559   C566    1.403   .     A
C560   C562    1.413   .     A
C560   C567    1.403   .     A
C561   C563    1.409   .     A
C561   C608    1.402   .     S
C562   C565    1.409   .     A
C562   C607    1.402   1_455 S
C563   C574    1.389   .     A
C563   C569    1.400   .     A
C564   O592    1.289   .     A
C564   O594    1.287   .     A
C564   C571    1.427   .     S
C565   C568    1.400   .     A
C566   H583    1.083   .     S
C566   C614    1.392   .     S
C567   H584    1.083   .     S
C567   C615    1.392   1_455 S
C568   H585    1.084   .     S
C568   C612    1.392   1_455 S
C569   H586    1.084   .     S
C569   C613    1.392   .     S
C570   C755    1.339   1_545 S
C570   F763    1.364   1_545 S
C571   C662    1.339   .     S
C571   F672    1.364   .     S
C572   O597    1.295   .     A
C572   O595    1.298   .     A
C573   O596    1.298   .     A
C573   O598    1.295   .     A
C574   H587    1.085   .     S
Cu575  Cu576   2.688   .     S
Cu575  O598    1.960   .     S
Cu575  O594    1.959   .     S
Cu575  O591    1.963   .     S
Cu575  N590    2.020   .     S
Cu575  O595    1.971   .     S
Cu576  N589    2.020   .     S
Cu576  O593    1.959   .     S
Cu576  O597    1.960   .     S
Cu576  O592    1.963   .     S
Cu576  O596    1.971   .     S
F579   C662    1.364   .     S
F580   C755    1.364   1_545 S
F581   N37     1.335   1_556 S
N590   N37     1.298   1_556 S
N590   F30     1.335   1_556 S
C599   C616    1.427   .     S
C599   O639    1.287   .     A
C599   O637    1.289   .     A
C600   C602    1.403   .     A
C600   H634    1.085   .     S
C600   C611    1.389   .     A
C601   C619    1.459   .     S
C601   C620    1.403   .     A
C601   C603    1.406   .     A
C602   C604    1.406   .     A
C602   C618    1.459   .     S
C603   F623    1.360   .     S
C603   C605    1.397   .     A
C604   F624    1.360   .     S
C604   C606    1.397   .     A
C605   C607    1.413   .     A
C605   C612    1.403   .     A
C606   C608    1.413   .     A
C606   C613    1.403   .     A
C607   C609    1.409   .     A
C607   C562    1.402   1_655 S
C608   C611    1.409   .     A
C609   C620    1.389   .     A
C609   C615    1.400   .     A
C610   O638    1.289   .     A
C610   O640    1.287   .     A
C610   C617    1.427   .     S
C611   C614    1.400   .     A
C612   H629    1.083   .     S
C612   C568    1.392   1_655 S
C613   H630    1.083   .     S
C614   H631    1.084   .     S
C615   H632    1.084   .     S
C615   C567    1.392   1_655 S
C616   C801    1.339   1_545 S
C616   F809    1.364   1_545 S
C617   C708    1.339   .     S
C617   F718    1.364   .     S
C618   O643    1.295   .     A
C618   O641    1.298   .     A
C619   O642    1.298   .     A
C619   O644    1.295   .     A
C620   H633    1.085   .     S
Cu621  Cu622   2.688   .     S
Cu621  O644    1.960   .     S
Cu621  O640    1.959   .     S
Cu621  O637    1.963   .     S
Cu621  N636    2.020   .     S
Cu621  O641    1.971   .     S
Cu622  N635    2.020   .     S
Cu622  O639    1.959   .     S
Cu622  O643    1.960   .     S
Cu622  O638    1.963   .     S
Cu622  O642    1.971   .     S
F625   C708    1.364   .     S
F626   C801    1.364   1_545 S
F627   N83     1.335   1_556 S
N636   N83     1.298   1_556 S
N636   F76     1.335   1_556 S
C645   C662    1.427   .     S
C645   O685    1.287   .     A
C645   O683    1.289   .     A
C646   C648    1.403   .     A
C646   H680    1.085   .     S
C646   C657    1.389   .     A
C647   C665    1.459   .     S
C647   C666    1.403   .     A
C647   C649    1.406   .     A
C648   C650    1.406   .     A
C648   C664    1.459   .     S
C649   F669    1.360   .     S
C649   C651    1.397   .     A
C650   F670    1.360   .     S
C650   C652    1.397   .     A
C651   C653    1.413   .     A
C651   C658    1.403   .     A
C652   C654    1.413   .     A
C652   C659    1.403   .     A
C653   C655    1.409   .     A
C653   C700    1.402   .     S
C654   C657    1.409   .     A
C654   C699    1.402   1_455 S
C655   C666    1.389   .     A
C655   C661    1.400   .     A
C656   O684    1.289   .     A
C656   O686    1.287   .     A
C656   C663    1.427   .     S
C657   C660    1.400   .     A
C658   H675    1.083   .     S
C658   C706    1.392   .     S
C659   H676    1.083   .     S
C659   C707    1.392   1_455 S
C660   H677    1.084   .     S
C660   C704    1.392   1_455 S
C661   H678    1.084   .     S
C661   C705    1.392   .     S
C663   C754    1.339   .     S
C663   F764    1.364   .     S
C664   O689    1.295   .     A
C664   O687    1.298   .     A
C665   O688    1.298   .     A
C665   O690    1.295   .     A
C666   H679    1.085   .     S
Cu667  Cu668   2.688   .     S
Cu667  O690    1.960   .     S
Cu667  O686    1.959   .     S
Cu667  O683    1.963   .     S
Cu667  N682    2.020   .     S
Cu667  O687    1.971   .     S
Cu668  N681    2.020   .     S
Cu668  O685    1.959   .     S
Cu668  O689    1.960   .     S
Cu668  O684    1.963   .     S
Cu668  O688    1.971   .     S
F671   C754    1.364   .     S
F673   N129    1.335   1_556 S
N682   N129    1.298   1_556 S
N682   F122    1.335   1_556 S
C691   C708    1.427   .     S
C691   O731    1.287   .     A
C691   O729    1.289   .     A
C692   C694    1.403   .     A
C692   H726    1.085   .     S
C692   C703    1.389   .     A
C693   C711    1.459   .     S
C693   C712    1.403   .     A
C693   C695    1.406   .     A
C694   C696    1.406   .     A
C694   C710    1.459   .     S
C695   F715    1.360   .     S
C695   C697    1.397   .     A
C696   F716    1.360   .     S
C696   C698    1.397   .     A
C697   C699    1.413   .     A
C697   C704    1.403   .     A
C698   C700    1.413   .     A
C698   C705    1.403   .     A
C699   C701    1.409   .     A
C699   C654    1.402   1_655 S
C700   C703    1.409   .     A
C701   C712    1.389   .     A
C701   C707    1.400   .     A
C702   O730    1.289   .     A
C702   O732    1.287   .     A
C702   C709    1.427   .     S
C703   C706    1.400   .     A
C704   H721    1.083   .     S
C704   C660    1.392   1_655 S
C705   H722    1.083   .     S
C706   H723    1.084   .     S
C707   H724    1.084   .     S
C707   C659    1.392   1_655 S
C709   C800    1.339   .     S
C709   F810    1.364   .     S
C710   O735    1.295   .     A
C710   O733    1.298   .     A
C711   O734    1.298   .     A
C711   O736    1.295   .     A
C712   H725    1.085   .     S
Cu713  Cu714   2.688   .     S
Cu713  O736    1.960   .     S
Cu713  O732    1.959   .     S
Cu713  O729    1.963   .     S
Cu713  N728    2.020   .     S
Cu713  O733    1.971   .     S
Cu714  N727    2.020   .     S
Cu714  O731    1.959   .     S
Cu714  O735    1.960   .     S
Cu714  O730    1.963   .     S
Cu714  O734    1.971   .     S
F717   C800    1.364   .     S
F719   N175    1.335   1_556 S
N728   N175    1.298   1_556 S
N728   F168    1.335   1_556 S
C737   C754    1.427   .     S
C737   O777    1.287   .     A
C737   O775    1.289   .     A
C738   C740    1.403   .     A
C738   H772    1.085   .     S
C738   C749    1.389   .     A
C739   C757    1.459   .     S
C739   C758    1.403   .     A
C739   C741    1.406   .     A
C740   C742    1.406   .     A
C740   C756    1.459   .     S
C741   F761    1.360   .     S
C741   C743    1.397   .     A
C742   F762    1.360   .     S
C742   C744    1.397   .     A
C743   C745    1.413   .     A
C743   C750    1.403   .     A
C744   C746    1.413   .     A
C744   C751    1.403   .     A
C745   C747    1.409   .     A
C745   C792    1.402   .     S
C746   C749    1.409   .     A
C746   C791    1.402   1_455 S
C747   C758    1.389   .     A
C747   C753    1.400   .     A
C748   O776    1.289   .     A
C748   O778    1.287   .     A
C748   C755    1.427   .     S
C749   C752    1.400   .     A
C750   H767    1.083   .     S
C750   C798    1.392   .     S
C751   H768    1.083   .     S
C751   C799    1.392   1_455 S
C752   H769    1.084   .     S
C752   C796    1.392   1_455 S
C753   H770    1.084   .     S
C753   C797    1.392   .     S
C755   C570    1.339   1_565 S
C755   F580    1.364   1_565 S
C756   O781    1.295   .     A
C756   O779    1.298   .     A
C757   O780    1.298   .     A
C757   O782    1.295   .     A
C758   H771    1.085   .     S
Cu759  Cu760   2.688   .     S
Cu759  O782    1.960   .     S
Cu759  O778    1.959   .     S
Cu759  O775    1.963   .     S
Cu759  N774    2.020   .     S
Cu759  O779    1.971   .     S
Cu760  N773    2.020   .     S
Cu760  O777    1.959   .     S
Cu760  O781    1.960   .     S
Cu760  O776    1.963   .     S
Cu760  O780    1.971   .     S
F763   C570    1.364   1_565 S
F765   N221    1.335   1_556 S
N774   N221    1.298   1_556 S
N774   F214    1.335   1_556 S
C783   C800    1.427   .     S
C783   O823    1.287   .     A
C783   O821    1.289   .     A
C784   C786    1.403   .     A
C784   H818    1.085   .     S
C784   C795    1.389   .     A
C785   C803    1.459   .     S
C785   C804    1.403   .     A
C785   C787    1.406   .     A
C786   C788    1.406   .     A
C786   C802    1.459   .     S
C787   F807    1.360   .     S
C787   C789    1.397   .     A
C788   F808    1.360   .     S
C788   C790    1.397   .     A
C789   C791    1.413   .     A
C789   C796    1.403   .     A
C790   C792    1.413   .     A
C790   C797    1.403   .     A
C791   C793    1.409   .     A
C791   C746    1.402   1_655 S
C792   C795    1.409   .     A
C793   C804    1.389   .     A
C793   C799    1.400   .     A
C794   O822    1.289   .     A
C794   O824    1.287   .     A
C794   C801    1.427   .     S
C795   C798    1.400   .     A
C796   H813    1.083   .     S
C796   C752    1.392   1_655 S
C797   H814    1.083   .     S
C798   H815    1.084   .     S
C799   H816    1.084   .     S
C799   C751    1.392   1_655 S
C801   C616    1.339   1_565 S
C801   F626    1.364   1_565 S
C802   O827    1.295   .     A
C802   O825    1.298   .     A
C803   O826    1.298   .     A
C803   O828    1.295   .     A
C804   H817    1.085   .     S
Cu805  Cu806   2.688   .     S
Cu805  O828    1.960   .     S
Cu805  O824    1.959   .     S
Cu805  O821    1.963   .     S
Cu805  N820    2.020   .     S
Cu805  O825    1.971   .     S
Cu806  N819    2.020   .     S
Cu806  O823    1.959   .     S
Cu806  O827    1.960   .     S
Cu806  O822    1.963   .     S
Cu806  O826    1.971   .     S
F809   C616    1.364   1_565 S
F811   N267    1.335   1_556 S
N820   N267    1.298   1_556 S
N820   F260    1.335   1_556 S
