data_str_m2_o10_o16_pcu_sym.157
_audit_creation_date              2020-01-03
_audit_creation_method            'Materials Studio'
_symmetry_space_group_name_H-M    'P1'
_symmetry_Int_Tables_number       1
_symmetry_cell_setting            triclinic
loop_
_symmetry_equiv_pos_as_xyz
  x,y,z
_cell_length_a                    22.4598
_cell_length_b                    26.4058
_cell_length_c                    26.9068
_cell_angle_alpha                 96.7967
_cell_angle_beta                  77.2701
_cell_angle_gamma                 103.2126
loop_
_atom_site_label
_atom_site_type_symbol
_atom_site_fract_x
_atom_site_fract_y
_atom_site_fract_z
_atom_site_U_iso_or_equiv
_atom_site_adp_type
_atom_site_occupancy
C1     C     0.18209   0.26659   0.25101   0.00000  Uiso   1.00
C2     C     0.14279   0.16754   0.48710   0.00000  Uiso   1.00
C3     C     0.15716   0.18540   0.43703   0.00000  Uiso   1.00
C4     C     0.18946   0.18026   0.01768   0.00000  Uiso   1.00
C5     C     0.24730   0.21353   0.49942   0.00000  Uiso   1.00
C6     C     0.25896   0.23328   0.45204   0.00000  Uiso   1.00
C7     C     0.21301   0.22319   0.42301   0.00000  Uiso   1.00
C8     C     0.18001   0.16242   0.06657   0.00000  Uiso   1.00
C9     C     0.27696   0.22001   0.08171   0.00000  Uiso   1.00
C10    C     0.11374   0.16692   0.40399   0.00000  Uiso   1.00
C11    C     0.19166   0.32271   0.25130   0.00000  Uiso   1.00
C12    C     0.13335   0.16582   0.34738   0.00000  Uiso   1.00
C13    C     0.14499   0.01074   0.24550   0.00000  Uiso   1.00
C14    C     0.15198   0.06666   0.24765   0.00000  Uiso   1.00
C15    C     0.20065   0.17200   0.15339   0.00000  Uiso   1.00
C16    C     0.29081   0.23196   0.03080   0.00000  Uiso   1.00
C17    C     0.22174   0.18319   0.09934   0.00000  Uiso   1.00
C18    C     0.05233   0.14366   0.42510   0.00000  Uiso   1.00
C19    C     0.03574   0.13071   0.47568   0.00000  Uiso   1.00
C20    C     0.08085   0.14129   0.00608   0.00000  Uiso   1.00
Cu21   Cu    0.10710   0.16105   0.24435   0.00000  Uiso   1.00
Cu22   Cu    0.22623   0.17228   0.25564   0.00000  Uiso   1.00
H23    H     0.10018   0.32014   0.24033   0.00000  Uiso   1.00
H24    H     0.33317   0.20070   0.29487   0.00000  Uiso   1.00
H25    H     0.30187   0.26146   0.43988   0.00000  Uiso   1.00
H26    H     0.00032   0.25930   0.01667   0.00000  Uiso   1.00
H27    H     0.13918   0.13361   0.08091   0.00000  Uiso   1.00
H28    H     0.01719   0.13466   0.40204   0.00000  Uiso   1.00
H29    H     0.06489   0.13121   0.04516   0.00000  Uiso   1.00
N30    N     0.31574   0.18074   0.26416   0.00000  Uiso   1.00
N31    N     0.01759   0.15259   0.23584   0.00000  Uiso   1.00
O32    O     0.12797   0.23807   0.24633   0.00000  Uiso   1.00
O33    O     0.22858   0.24755   0.25586   0.00000  Uiso   1.00
O34    O     0.09181   0.15960   0.31839   0.00000  Uiso   1.00
O35    O     0.19242   0.16908   0.32793   0.00000  Uiso   1.00
O36    O     0.10476   0.08578   0.24413   0.00000  Uiso   1.00
O37    O     0.20536   0.09526   0.25367   0.00000  Uiso   1.00
O38    O     0.14092   0.16425   0.17207   0.00000  Uiso   1.00
O39    O     0.24152   0.17373   0.18160   0.00000  Uiso   1.00
C40    C     0.31815   0.25134   0.11674   0.00000  Uiso   1.00
H41    H     0.28949   0.26889   0.15048   0.00000  Uiso   1.00
H42    H     0.01149   0.22661   0.12907   0.00000  Uiso   1.00
H43    H     0.01936   0.28395   0.09748   0.00000  Uiso   1.00
C44    C     0.00407   0.12680   0.18793   0.00000  Uiso   1.00
H45    H     0.01549   0.15506   0.15850   0.00000  Uiso   1.00
H46    H     0.03498   0.09860   0.17451   0.00000  Uiso   1.00
H47    H     0.29007   0.10337   0.19073   0.00000  Uiso   1.00
O48    O     0.30738   0.11033   0.49622   0.00000  Uiso   1.00
C49    C     0.29894   0.05576   0.49657   0.00000  Uiso   1.00
H50    H     0.32683   0.04551   0.02193   0.00000  Uiso   1.00
H51    H     0.31234   0.03770   0.45724   0.00000  Uiso   1.00
C52    C     0.23035   0.03311   0.01685   0.00000  Uiso   1.00
H53    H     0.20134   0.04182   0.49172   0.00000  Uiso   1.00
H54    H     0.22284   0.32353   0.01791   0.00000  Uiso   1.00
H55    H     0.21559   0.05030   0.05613   0.00000  Uiso   1.00
C56    C     0.22104   0.26181   0.38446   0.00000  Uiso   1.00
H57    H     0.25806   0.25400   0.35163   0.00000  Uiso   1.00
H58    H     0.17702   0.26130   0.37208   0.00000  Uiso   1.00
H59    H     0.23579   0.30186   0.40176   0.00000  Uiso   1.00
O60    O     0.24912   0.02011   0.25756   0.00000  Uiso   1.00
C61    C     0.25662   0.01790   0.30794   0.00000  Uiso   1.00
H62    H     0.28728   0.32360   0.30710   0.00000  Uiso   1.00
H63    H     0.21142   0.00711   0.33539   0.00000  Uiso   1.00
C64    C     0.28865   0.07026   0.32863   0.00000  Uiso   1.00
H65    H     0.25990   0.09975   0.33110   0.00000  Uiso   1.00
H66    H     0.29457   0.06574   0.36756   0.00000  Uiso   1.00
H67    H     0.00158   0.08292   0.30419   0.00000  Uiso   1.00
C68    C     0.51542   0.26659   0.25101   0.00000  Uiso   1.00
C69    C     0.47613   0.16754   0.48710   0.00000  Uiso   1.00
C70    C     0.49050   0.18540   0.43703   0.00000  Uiso   1.00
C71    C     0.52279   0.18026   0.01768   0.00000  Uiso   1.00
C72    C     0.58063   0.21353   0.49942   0.00000  Uiso   1.00
C73    C     0.59229   0.23328   0.45204   0.00000  Uiso   1.00
C74    C     0.54635   0.22319   0.42301   0.00000  Uiso   1.00
C75    C     0.51334   0.16242   0.06657   0.00000  Uiso   1.00
C76    C     0.61030   0.22001   0.08171   0.00000  Uiso   1.00
C77    C     0.44707   0.16692   0.40399   0.00000  Uiso   1.00
C78    C     0.52499   0.32271   0.25130   0.00000  Uiso   1.00
C79    C     0.46669   0.16582   0.34738   0.00000  Uiso   1.00
C80    C     0.47832   0.01074   0.24550   0.00000  Uiso   1.00
C81    C     0.48532   0.06666   0.24765   0.00000  Uiso   1.00
C82    C     0.53398   0.17200   0.15339   0.00000  Uiso   1.00
C83    C     0.62414   0.23196   0.03080   0.00000  Uiso   1.00
C84    C     0.55507   0.18319   0.09934   0.00000  Uiso   1.00
C85    C     0.38566   0.14366   0.42510   0.00000  Uiso   1.00
C86    C     0.36907   0.13071   0.47568   0.00000  Uiso   1.00
C87    C     0.41418   0.14129   0.00608   0.00000  Uiso   1.00
Cu88   Cu    0.44043   0.16105   0.24435   0.00000  Uiso   1.00
Cu89   Cu    0.55957   0.17228   0.25564   0.00000  Uiso   1.00
H90    H     0.43351   0.32014   0.24033   0.00000  Uiso   1.00
H91    H     0.66651   0.20070   0.29487   0.00000  Uiso   1.00
H92    H     0.63520   0.26146   0.43988   0.00000  Uiso   1.00
H93    H     0.33365   0.25930   0.01667   0.00000  Uiso   1.00
H94    H     0.47252   0.13361   0.08091   0.00000  Uiso   1.00
H95    H     0.35053   0.13466   0.40204   0.00000  Uiso   1.00
H96    H     0.39823   0.13121   0.04516   0.00000  Uiso   1.00
N97    N     0.64908   0.18074   0.26416   0.00000  Uiso   1.00
N98    N     0.35092   0.15259   0.23584   0.00000  Uiso   1.00
O99    O     0.46131   0.23807   0.24633   0.00000  Uiso   1.00
O100   O     0.56191   0.24755   0.25586   0.00000  Uiso   1.00
O101   O     0.42515   0.15960   0.31839   0.00000  Uiso   1.00
O102   O     0.52575   0.16908   0.32793   0.00000  Uiso   1.00
O103   O     0.43809   0.08578   0.24413   0.00000  Uiso   1.00
O104   O     0.53869   0.09526   0.25367   0.00000  Uiso   1.00
O105   O     0.47425   0.16425   0.17207   0.00000  Uiso   1.00
O106   O     0.57485   0.17373   0.18160   0.00000  Uiso   1.00
C107   C     0.65148   0.25134   0.11674   0.00000  Uiso   1.00
H108   H     0.62283   0.26889   0.15048   0.00000  Uiso   1.00
H109   H     0.34482   0.22661   0.12907   0.00000  Uiso   1.00
H110   H     0.35269   0.28395   0.09748   0.00000  Uiso   1.00
C111   C     0.33740   0.12680   0.18793   0.00000  Uiso   1.00
H112   H     0.34882   0.15506   0.15850   0.00000  Uiso   1.00
H113   H     0.36831   0.09860   0.17451   0.00000  Uiso   1.00
H114   H     0.62341   0.10337   0.19073   0.00000  Uiso   1.00
O115   O     0.64072   0.11033   0.49622   0.00000  Uiso   1.00
C116   C     0.63227   0.05576   0.49657   0.00000  Uiso   1.00
H117   H     0.66016   0.04551   0.02193   0.00000  Uiso   1.00
H118   H     0.64567   0.03770   0.45724   0.00000  Uiso   1.00
C119   C     0.56368   0.03311   0.01685   0.00000  Uiso   1.00
H120   H     0.53467   0.04182   0.49172   0.00000  Uiso   1.00
H121   H     0.55618   0.32353   0.01791   0.00000  Uiso   1.00
H122   H     0.54892   0.05030   0.05613   0.00000  Uiso   1.00
C123   C     0.55437   0.26181   0.38446   0.00000  Uiso   1.00
H124   H     0.59139   0.25400   0.35163   0.00000  Uiso   1.00
H125   H     0.51035   0.26130   0.37208   0.00000  Uiso   1.00
H126   H     0.56913   0.30186   0.40176   0.00000  Uiso   1.00
O127   O     0.58245   0.02011   0.25756   0.00000  Uiso   1.00
C128   C     0.58995   0.01790   0.30794   0.00000  Uiso   1.00
H129   H     0.62062   0.32360   0.30710   0.00000  Uiso   1.00
H130   H     0.54476   0.00711   0.33539   0.00000  Uiso   1.00
C131   C     0.62198   0.07026   0.32863   0.00000  Uiso   1.00
H132   H     0.59323   0.09975   0.33110   0.00000  Uiso   1.00
H133   H     0.62790   0.06574   0.36756   0.00000  Uiso   1.00
H134   H     0.33491   0.08292   0.30419   0.00000  Uiso   1.00
C135   C     0.84875   0.26659   0.25101   0.00000  Uiso   1.00
C136   C     0.80946   0.16754   0.48710   0.00000  Uiso   1.00
C137   C     0.82383   0.18540   0.43703   0.00000  Uiso   1.00
C138   C     0.85613   0.18026   0.01768   0.00000  Uiso   1.00
C139   C     0.91396   0.21353   0.49942   0.00000  Uiso   1.00
C140   C     0.92563   0.23328   0.45204   0.00000  Uiso   1.00
C141   C     0.87968   0.22319   0.42301   0.00000  Uiso   1.00
C142   C     0.84667   0.16242   0.06657   0.00000  Uiso   1.00
C143   C     0.94363   0.22001   0.08171   0.00000  Uiso   1.00
C144   C     0.78041   0.16692   0.40399   0.00000  Uiso   1.00
C145   C     0.85832   0.32271   0.25130   0.00000  Uiso   1.00
C146   C     0.80002   0.16582   0.34738   0.00000  Uiso   1.00
C147   C     0.81166   0.01074   0.24550   0.00000  Uiso   1.00
C148   C     0.81865   0.06666   0.24765   0.00000  Uiso   1.00
C149   C     0.86732   0.17200   0.15339   0.00000  Uiso   1.00
C150   C     0.95747   0.23196   0.03080   0.00000  Uiso   1.00
C151   C     0.88840   0.18319   0.09934   0.00000  Uiso   1.00
C152   C     0.71899   0.14366   0.42510   0.00000  Uiso   1.00
C153   C     0.70241   0.13071   0.47568   0.00000  Uiso   1.00
C154   C     0.74751   0.14129   0.00608   0.00000  Uiso   1.00
Cu155  Cu    0.77377   0.16105   0.24435   0.00000  Uiso   1.00
Cu156  Cu    0.89290   0.17228   0.25564   0.00000  Uiso   1.00
H157   H     0.76684   0.32014   0.24033   0.00000  Uiso   1.00
H158   H     0.99984   0.20070   0.29487   0.00000  Uiso   1.00
H159   H     0.96854   0.26146   0.43988   0.00000  Uiso   1.00
H160   H     0.66698   0.25930   0.01667   0.00000  Uiso   1.00
H161   H     0.80585   0.13361   0.08091   0.00000  Uiso   1.00
H162   H     0.68386   0.13466   0.40204   0.00000  Uiso   1.00
H163   H     0.73156   0.13121   0.04516   0.00000  Uiso   1.00
N164   N     0.98241   0.18074   0.26416   0.00000  Uiso   1.00
N165   N     0.68426   0.15259   0.23584   0.00000  Uiso   1.00
O166   O     0.79464   0.23807   0.24633   0.00000  Uiso   1.00
O167   O     0.89524   0.24755   0.25586   0.00000  Uiso   1.00
O168   O     0.75848   0.15960   0.31839   0.00000  Uiso   1.00
O169   O     0.85908   0.16908   0.32793   0.00000  Uiso   1.00
O170   O     0.77142   0.08578   0.24413   0.00000  Uiso   1.00
O171   O     0.87203   0.09526   0.25367   0.00000  Uiso   1.00
O172   O     0.80758   0.16425   0.17207   0.00000  Uiso   1.00
O173   O     0.90819   0.17373   0.18160   0.00000  Uiso   1.00
C174   C     0.98482   0.25134   0.11674   0.00000  Uiso   1.00
H175   H     0.95616   0.26889   0.15048   0.00000  Uiso   1.00
H176   H     0.67816   0.22661   0.12907   0.00000  Uiso   1.00
H177   H     0.68603   0.28395   0.09748   0.00000  Uiso   1.00
C178   C     0.67074   0.12680   0.18793   0.00000  Uiso   1.00
H179   H     0.68215   0.15506   0.15850   0.00000  Uiso   1.00
H180   H     0.70165   0.09860   0.17451   0.00000  Uiso   1.00
H181   H     0.95674   0.10337   0.19073   0.00000  Uiso   1.00
O182   O     0.97405   0.11033   0.49622   0.00000  Uiso   1.00
C183   C     0.96560   0.05576   0.49657   0.00000  Uiso   1.00
H184   H     0.99350   0.04551   0.02193   0.00000  Uiso   1.00
H185   H     0.97900   0.03770   0.45724   0.00000  Uiso   1.00
C186   C     0.89701   0.03311   0.01685   0.00000  Uiso   1.00
H187   H     0.86801   0.04182   0.49172   0.00000  Uiso   1.00
H188   H     0.88951   0.32353   0.01791   0.00000  Uiso   1.00
H189   H     0.88226   0.05030   0.05613   0.00000  Uiso   1.00
C190   C     0.88771   0.26181   0.38446   0.00000  Uiso   1.00
H191   H     0.92473   0.25400   0.35163   0.00000  Uiso   1.00
H192   H     0.84368   0.26130   0.37208   0.00000  Uiso   1.00
H193   H     0.90246   0.30186   0.40176   0.00000  Uiso   1.00
O194   O     0.91578   0.02011   0.25756   0.00000  Uiso   1.00
C195   C     0.92329   0.01790   0.30794   0.00000  Uiso   1.00
H196   H     0.95395   0.32360   0.30710   0.00000  Uiso   1.00
H197   H     0.87809   0.00711   0.33539   0.00000  Uiso   1.00
C198   C     0.95531   0.07026   0.32863   0.00000  Uiso   1.00
H199   H     0.92657   0.09975   0.33110   0.00000  Uiso   1.00
H200   H     0.96123   0.06574   0.36756   0.00000  Uiso   1.00
H201   H     0.66824   0.08292   0.30419   0.00000  Uiso   1.00
C202   C     0.18209   0.59992   0.25101   0.00000  Uiso   1.00
C203   C     0.14279   0.50087   0.48710   0.00000  Uiso   1.00
C204   C     0.15716   0.51874   0.43703   0.00000  Uiso   1.00
C205   C     0.18946   0.51359   0.01768   0.00000  Uiso   1.00
C206   C     0.24730   0.54687   0.49942   0.00000  Uiso   1.00
C207   C     0.25896   0.56661   0.45204   0.00000  Uiso   1.00
C208   C     0.21301   0.55652   0.42301   0.00000  Uiso   1.00
C209   C     0.18001   0.49575   0.06657   0.00000  Uiso   1.00
C210   C     0.27696   0.55334   0.08171   0.00000  Uiso   1.00
C211   C     0.11374   0.50025   0.40399   0.00000  Uiso   1.00
C212   C     0.19166   0.65604   0.25130   0.00000  Uiso   1.00
C213   C     0.13335   0.49916   0.34738   0.00000  Uiso   1.00
C214   C     0.14499   0.34407   0.24550   0.00000  Uiso   1.00
C215   C     0.15198   0.40000   0.24765   0.00000  Uiso   1.00
C216   C     0.20065   0.50534   0.15339   0.00000  Uiso   1.00
C217   C     0.29081   0.56530   0.03080   0.00000  Uiso   1.00
C218   C     0.22174   0.51653   0.09934   0.00000  Uiso   1.00
C219   C     0.05233   0.47699   0.42510   0.00000  Uiso   1.00
C220   C     0.03574   0.46404   0.47568   0.00000  Uiso   1.00
C221   C     0.08085   0.47462   0.00608   0.00000  Uiso   1.00
Cu222  Cu    0.10710   0.49439   0.24435   0.00000  Uiso   1.00
Cu223  Cu    0.22623   0.50561   0.25564   0.00000  Uiso   1.00
H224   H     0.10018   0.65347   0.24033   0.00000  Uiso   1.00
H225   H     0.33317   0.53404   0.29487   0.00000  Uiso   1.00
H226   H     0.30187   0.59479   0.43988   0.00000  Uiso   1.00
H227   H     0.00032   0.59263   0.01667   0.00000  Uiso   1.00
H228   H     0.13918   0.46694   0.08091   0.00000  Uiso   1.00
H229   H     0.01719   0.46799   0.40204   0.00000  Uiso   1.00
H230   H     0.06489   0.46454   0.04516   0.00000  Uiso   1.00
N231   N     0.31574   0.51407   0.26416   0.00000  Uiso   1.00
N232   N     0.01759   0.48593   0.23584   0.00000  Uiso   1.00
O233   O     0.12797   0.57141   0.24633   0.00000  Uiso   1.00
O234   O     0.22858   0.58089   0.25586   0.00000  Uiso   1.00
O235   O     0.09181   0.49293   0.31839   0.00000  Uiso   1.00
O236   O     0.19242   0.50241   0.32793   0.00000  Uiso   1.00
O237   O     0.10476   0.41911   0.24413   0.00000  Uiso   1.00
O238   O     0.20536   0.42859   0.25367   0.00000  Uiso   1.00
O239   O     0.14092   0.49759   0.17207   0.00000  Uiso   1.00
O240   O     0.24152   0.50707   0.18160   0.00000  Uiso   1.00
C241   C     0.31815   0.58468   0.11674   0.00000  Uiso   1.00
H242   H     0.28949   0.60222   0.15048   0.00000  Uiso   1.00
H243   H     0.01149   0.55994   0.12907   0.00000  Uiso   1.00
H244   H     0.01936   0.61728   0.09748   0.00000  Uiso   1.00
C245   C     0.00407   0.46013   0.18793   0.00000  Uiso   1.00
H246   H     0.01549   0.48839   0.15850   0.00000  Uiso   1.00
H247   H     0.03498   0.43193   0.17451   0.00000  Uiso   1.00
H248   H     0.29007   0.43670   0.19073   0.00000  Uiso   1.00
O249   O     0.30738   0.44366   0.49622   0.00000  Uiso   1.00
C250   C     0.29894   0.38909   0.49657   0.00000  Uiso   1.00
H251   H     0.32683   0.37884   0.02193   0.00000  Uiso   1.00
H252   H     0.31234   0.37104   0.45724   0.00000  Uiso   1.00
C253   C     0.23035   0.36644   0.01685   0.00000  Uiso   1.00
H254   H     0.20134   0.37515   0.49172   0.00000  Uiso   1.00
H255   H     0.22284   0.65686   0.01791   0.00000  Uiso   1.00
H256   H     0.21559   0.38364   0.05613   0.00000  Uiso   1.00
C257   C     0.22104   0.59515   0.38446   0.00000  Uiso   1.00
H258   H     0.25806   0.58733   0.35163   0.00000  Uiso   1.00
H259   H     0.17702   0.59463   0.37208   0.00000  Uiso   1.00
H260   H     0.23579   0.63520   0.40176   0.00000  Uiso   1.00
O261   O     0.24912   0.35344   0.25756   0.00000  Uiso   1.00
C262   C     0.25662   0.35123   0.30794   0.00000  Uiso   1.00
H263   H     0.28728   0.65694   0.30710   0.00000  Uiso   1.00
H264   H     0.21142   0.34045   0.33539   0.00000  Uiso   1.00
C265   C     0.28865   0.40360   0.32863   0.00000  Uiso   1.00
H266   H     0.25990   0.43309   0.33110   0.00000  Uiso   1.00
H267   H     0.29457   0.39908   0.36756   0.00000  Uiso   1.00
H268   H     0.00158   0.41625   0.30419   0.00000  Uiso   1.00
C269   C     0.51542   0.59992   0.25101   0.00000  Uiso   1.00
C270   C     0.47613   0.50087   0.48710   0.00000  Uiso   1.00
C271   C     0.49050   0.51874   0.43703   0.00000  Uiso   1.00
C272   C     0.52279   0.51359   0.01768   0.00000  Uiso   1.00
C273   C     0.58063   0.54687   0.49942   0.00000  Uiso   1.00
C274   C     0.59229   0.56661   0.45204   0.00000  Uiso   1.00
C275   C     0.54635   0.55652   0.42301   0.00000  Uiso   1.00
C276   C     0.51334   0.49575   0.06657   0.00000  Uiso   1.00
C277   C     0.61030   0.55334   0.08171   0.00000  Uiso   1.00
C278   C     0.44707   0.50025   0.40399   0.00000  Uiso   1.00
C279   C     0.52499   0.65604   0.25130   0.00000  Uiso   1.00
C280   C     0.46669   0.49916   0.34738   0.00000  Uiso   1.00
C281   C     0.47832   0.34407   0.24550   0.00000  Uiso   1.00
C282   C     0.48532   0.40000   0.24765   0.00000  Uiso   1.00
C283   C     0.53398   0.50534   0.15339   0.00000  Uiso   1.00
C284   C     0.62414   0.56530   0.03080   0.00000  Uiso   1.00
C285   C     0.55507   0.51653   0.09934   0.00000  Uiso   1.00
C286   C     0.38566   0.47699   0.42510   0.00000  Uiso   1.00
C287   C     0.36907   0.46404   0.47568   0.00000  Uiso   1.00
C288   C     0.41418   0.47462   0.00608   0.00000  Uiso   1.00
Cu289  Cu    0.44043   0.49439   0.24435   0.00000  Uiso   1.00
Cu290  Cu    0.55957   0.50561   0.25564   0.00000  Uiso   1.00
H291   H     0.43351   0.65347   0.24033   0.00000  Uiso   1.00
H292   H     0.66651   0.53404   0.29487   0.00000  Uiso   1.00
H293   H     0.63520   0.59479   0.43988   0.00000  Uiso   1.00
H294   H     0.33365   0.59263   0.01667   0.00000  Uiso   1.00
H295   H     0.47252   0.46694   0.08091   0.00000  Uiso   1.00
H296   H     0.35053   0.46799   0.40204   0.00000  Uiso   1.00
H297   H     0.39823   0.46454   0.04516   0.00000  Uiso   1.00
N298   N     0.64908   0.51407   0.26416   0.00000  Uiso   1.00
N299   N     0.35092   0.48593   0.23584   0.00000  Uiso   1.00
O300   O     0.46131   0.57141   0.24633   0.00000  Uiso   1.00
O301   O     0.56191   0.58089   0.25586   0.00000  Uiso   1.00
O302   O     0.42515   0.49293   0.31839   0.00000  Uiso   1.00
O303   O     0.52575   0.50241   0.32793   0.00000  Uiso   1.00
O304   O     0.43809   0.41911   0.24413   0.00000  Uiso   1.00
O305   O     0.53869   0.42859   0.25367   0.00000  Uiso   1.00
O306   O     0.47425   0.49759   0.17207   0.00000  Uiso   1.00
O307   O     0.57485   0.50707   0.18160   0.00000  Uiso   1.00
C308   C     0.65148   0.58468   0.11674   0.00000  Uiso   1.00
H309   H     0.62283   0.60222   0.15048   0.00000  Uiso   1.00
H310   H     0.34482   0.55994   0.12907   0.00000  Uiso   1.00
H311   H     0.35269   0.61728   0.09748   0.00000  Uiso   1.00
C312   C     0.33740   0.46013   0.18793   0.00000  Uiso   1.00
H313   H     0.34882   0.48839   0.15850   0.00000  Uiso   1.00
H314   H     0.36831   0.43193   0.17451   0.00000  Uiso   1.00
H315   H     0.62341   0.43670   0.19073   0.00000  Uiso   1.00
O316   O     0.64072   0.44366   0.49622   0.00000  Uiso   1.00
C317   C     0.63227   0.38909   0.49657   0.00000  Uiso   1.00
H318   H     0.66016   0.37884   0.02193   0.00000  Uiso   1.00
H319   H     0.64567   0.37104   0.45724   0.00000  Uiso   1.00
C320   C     0.56368   0.36644   0.01685   0.00000  Uiso   1.00
H321   H     0.53467   0.37515   0.49172   0.00000  Uiso   1.00
H322   H     0.55618   0.65686   0.01791   0.00000  Uiso   1.00
H323   H     0.54892   0.38364   0.05613   0.00000  Uiso   1.00
C324   C     0.55437   0.59515   0.38446   0.00000  Uiso   1.00
H325   H     0.59139   0.58733   0.35163   0.00000  Uiso   1.00
H326   H     0.51035   0.59463   0.37208   0.00000  Uiso   1.00
H327   H     0.56913   0.63520   0.40176   0.00000  Uiso   1.00
O328   O     0.58245   0.35344   0.25756   0.00000  Uiso   1.00
C329   C     0.58995   0.35123   0.30794   0.00000  Uiso   1.00
H330   H     0.62062   0.65694   0.30710   0.00000  Uiso   1.00
H331   H     0.54476   0.34045   0.33539   0.00000  Uiso   1.00
C332   C     0.62198   0.40360   0.32863   0.00000  Uiso   1.00
H333   H     0.59323   0.43309   0.33110   0.00000  Uiso   1.00
H334   H     0.62790   0.39908   0.36756   0.00000  Uiso   1.00
H335   H     0.33491   0.41625   0.30419   0.00000  Uiso   1.00
C336   C     0.84875   0.59992   0.25101   0.00000  Uiso   1.00
C337   C     0.80946   0.50087   0.48710   0.00000  Uiso   1.00
C338   C     0.82383   0.51874   0.43703   0.00000  Uiso   1.00
C339   C     0.85613   0.51359   0.01768   0.00000  Uiso   1.00
C340   C     0.91396   0.54687   0.49942   0.00000  Uiso   1.00
C341   C     0.92563   0.56661   0.45204   0.00000  Uiso   1.00
C342   C     0.87968   0.55652   0.42301   0.00000  Uiso   1.00
C343   C     0.84667   0.49575   0.06657   0.00000  Uiso   1.00
C344   C     0.94363   0.55334   0.08171   0.00000  Uiso   1.00
C345   C     0.78041   0.50025   0.40399   0.00000  Uiso   1.00
C346   C     0.85832   0.65604   0.25130   0.00000  Uiso   1.00
C347   C     0.80002   0.49916   0.34738   0.00000  Uiso   1.00
C348   C     0.81166   0.34407   0.24550   0.00000  Uiso   1.00
C349   C     0.81865   0.40000   0.24765   0.00000  Uiso   1.00
C350   C     0.86732   0.50534   0.15339   0.00000  Uiso   1.00
C351   C     0.95747   0.56530   0.03080   0.00000  Uiso   1.00
C352   C     0.88840   0.51653   0.09934   0.00000  Uiso   1.00
C353   C     0.71899   0.47699   0.42510   0.00000  Uiso   1.00
C354   C     0.70241   0.46404   0.47568   0.00000  Uiso   1.00
C355   C     0.74751   0.47462   0.00608   0.00000  Uiso   1.00
Cu356  Cu    0.77377   0.49439   0.24435   0.00000  Uiso   1.00
Cu357  Cu    0.89290   0.50561   0.25564   0.00000  Uiso   1.00
H358   H     0.76684   0.65347   0.24033   0.00000  Uiso   1.00
H359   H     0.99984   0.53404   0.29487   0.00000  Uiso   1.00
H360   H     0.96854   0.59479   0.43988   0.00000  Uiso   1.00
H361   H     0.66698   0.59263   0.01667   0.00000  Uiso   1.00
H362   H     0.80585   0.46694   0.08091   0.00000  Uiso   1.00
H363   H     0.68386   0.46799   0.40204   0.00000  Uiso   1.00
H364   H     0.73156   0.46454   0.04516   0.00000  Uiso   1.00
N365   N     0.98241   0.51407   0.26416   0.00000  Uiso   1.00
N366   N     0.68426   0.48593   0.23584   0.00000  Uiso   1.00
O367   O     0.79464   0.57141   0.24633   0.00000  Uiso   1.00
O368   O     0.89524   0.58089   0.25586   0.00000  Uiso   1.00
O369   O     0.75848   0.49293   0.31839   0.00000  Uiso   1.00
O370   O     0.85908   0.50241   0.32793   0.00000  Uiso   1.00
O371   O     0.77142   0.41911   0.24413   0.00000  Uiso   1.00
O372   O     0.87203   0.42859   0.25367   0.00000  Uiso   1.00
O373   O     0.80758   0.49759   0.17207   0.00000  Uiso   1.00
O374   O     0.90819   0.50707   0.18160   0.00000  Uiso   1.00
C375   C     0.98482   0.58468   0.11674   0.00000  Uiso   1.00
H376   H     0.95616   0.60222   0.15048   0.00000  Uiso   1.00
H377   H     0.67816   0.55994   0.12907   0.00000  Uiso   1.00
H378   H     0.68603   0.61728   0.09748   0.00000  Uiso   1.00
C379   C     0.67074   0.46013   0.18793   0.00000  Uiso   1.00
H380   H     0.68215   0.48839   0.15850   0.00000  Uiso   1.00
H381   H     0.70165   0.43193   0.17451   0.00000  Uiso   1.00
H382   H     0.95674   0.43670   0.19073   0.00000  Uiso   1.00
O383   O     0.97405   0.44366   0.49622   0.00000  Uiso   1.00
C384   C     0.96560   0.38909   0.49657   0.00000  Uiso   1.00
H385   H     0.99350   0.37884   0.02193   0.00000  Uiso   1.00
H386   H     0.97900   0.37104   0.45724   0.00000  Uiso   1.00
C387   C     0.89701   0.36644   0.01685   0.00000  Uiso   1.00
H388   H     0.86801   0.37515   0.49172   0.00000  Uiso   1.00
H389   H     0.88951   0.65686   0.01791   0.00000  Uiso   1.00
H390   H     0.88226   0.38364   0.05613   0.00000  Uiso   1.00
C391   C     0.88771   0.59515   0.38446   0.00000  Uiso   1.00
H392   H     0.92473   0.58733   0.35163   0.00000  Uiso   1.00
H393   H     0.84368   0.59463   0.37208   0.00000  Uiso   1.00
H394   H     0.90246   0.63520   0.40176   0.00000  Uiso   1.00
O395   O     0.91578   0.35344   0.25756   0.00000  Uiso   1.00
C396   C     0.92329   0.35123   0.30794   0.00000  Uiso   1.00
H397   H     0.95395   0.65694   0.30710   0.00000  Uiso   1.00
H398   H     0.87809   0.34045   0.33539   0.00000  Uiso   1.00
C399   C     0.95531   0.40360   0.32863   0.00000  Uiso   1.00
H400   H     0.92657   0.43309   0.33110   0.00000  Uiso   1.00
H401   H     0.96123   0.39908   0.36756   0.00000  Uiso   1.00
H402   H     0.66824   0.41625   0.30419   0.00000  Uiso   1.00
C403   C     0.18209   0.93326   0.25101   0.00000  Uiso   1.00
C404   C     0.14279   0.83420   0.48710   0.00000  Uiso   1.00
C405   C     0.15716   0.85207   0.43703   0.00000  Uiso   1.00
C406   C     0.18946   0.84692   0.01768   0.00000  Uiso   1.00
C407   C     0.24730   0.88020   0.49942   0.00000  Uiso   1.00
C408   C     0.25896   0.89995   0.45204   0.00000  Uiso   1.00
C409   C     0.21301   0.88986   0.42301   0.00000  Uiso   1.00
C410   C     0.18001   0.82909   0.06657   0.00000  Uiso   1.00
C411   C     0.27696   0.88668   0.08171   0.00000  Uiso   1.00
C412   C     0.11374   0.83359   0.40399   0.00000  Uiso   1.00
C413   C     0.19166   0.98937   0.25130   0.00000  Uiso   1.00
C414   C     0.13335   0.83249   0.34738   0.00000  Uiso   1.00
C415   C     0.14499   0.67741   0.24550   0.00000  Uiso   1.00
C416   C     0.15198   0.73333   0.24765   0.00000  Uiso   1.00
C417   C     0.20065   0.83867   0.15339   0.00000  Uiso   1.00
C418   C     0.29081   0.89863   0.03080   0.00000  Uiso   1.00
C419   C     0.22174   0.84986   0.09934   0.00000  Uiso   1.00
C420   C     0.05233   0.81032   0.42510   0.00000  Uiso   1.00
C421   C     0.03574   0.79738   0.47568   0.00000  Uiso   1.00
C422   C     0.08085   0.80795   0.00608   0.00000  Uiso   1.00
Cu423  Cu    0.10710   0.82772   0.24435   0.00000  Uiso   1.00
Cu424  Cu    0.22623   0.83895   0.25564   0.00000  Uiso   1.00
H425   H     0.10018   0.98680   0.24033   0.00000  Uiso   1.00
H426   H     0.33317   0.86737   0.29487   0.00000  Uiso   1.00
H427   H     0.30187   0.92813   0.43988   0.00000  Uiso   1.00
H428   H     0.00032   0.92597   0.01667   0.00000  Uiso   1.00
H429   H     0.13918   0.80028   0.08091   0.00000  Uiso   1.00
H430   H     0.01719   0.80132   0.40204   0.00000  Uiso   1.00
H431   H     0.06489   0.79787   0.04516   0.00000  Uiso   1.00
N432   N     0.31574   0.84741   0.26416   0.00000  Uiso   1.00
N433   N     0.01759   0.81926   0.23584   0.00000  Uiso   1.00
O434   O     0.12797   0.90474   0.24633   0.00000  Uiso   1.00
O435   O     0.22858   0.91422   0.25586   0.00000  Uiso   1.00
O436   O     0.09181   0.82627   0.31839   0.00000  Uiso   1.00
O437   O     0.19242   0.83575   0.32793   0.00000  Uiso   1.00
O438   O     0.10476   0.75245   0.24413   0.00000  Uiso   1.00
O439   O     0.20536   0.76193   0.25367   0.00000  Uiso   1.00
O440   O     0.14092   0.83092   0.17207   0.00000  Uiso   1.00
O441   O     0.24152   0.84040   0.18160   0.00000  Uiso   1.00
C442   C     0.31815   0.91801   0.11674   0.00000  Uiso   1.00
H443   H     0.28949   0.93556   0.15048   0.00000  Uiso   1.00
H444   H     0.01149   0.89327   0.12907   0.00000  Uiso   1.00
H445   H     0.01936   0.95061   0.09748   0.00000  Uiso   1.00
C446   C     0.00407   0.79346   0.18793   0.00000  Uiso   1.00
H447   H     0.01549   0.82172   0.15850   0.00000  Uiso   1.00
H448   H     0.03498   0.76527   0.17451   0.00000  Uiso   1.00
H449   H     0.29007   0.77004   0.19073   0.00000  Uiso   1.00
O450   O     0.30738   0.77699   0.49622   0.00000  Uiso   1.00
C451   C     0.29894   0.72243   0.49657   0.00000  Uiso   1.00
H452   H     0.32683   0.71218   0.02193   0.00000  Uiso   1.00
H453   H     0.31234   0.70437   0.45724   0.00000  Uiso   1.00
C454   C     0.23035   0.69977   0.01685   0.00000  Uiso   1.00
H455   H     0.20134   0.70849   0.49172   0.00000  Uiso   1.00
H456   H     0.22284   0.99020   0.01791   0.00000  Uiso   1.00
H457   H     0.21559   0.71697   0.05613   0.00000  Uiso   1.00
C458   C     0.22104   0.92848   0.38446   0.00000  Uiso   1.00
H459   H     0.25806   0.92066   0.35163   0.00000  Uiso   1.00
H460   H     0.17702   0.92796   0.37208   0.00000  Uiso   1.00
H461   H     0.23579   0.96853   0.40176   0.00000  Uiso   1.00
O462   O     0.24912   0.68678   0.25756   0.00000  Uiso   1.00
C463   C     0.25662   0.68456   0.30794   0.00000  Uiso   1.00
H464   H     0.28728   0.99027   0.30710   0.00000  Uiso   1.00
H465   H     0.21142   0.67378   0.33539   0.00000  Uiso   1.00
C466   C     0.28865   0.73693   0.32863   0.00000  Uiso   1.00
H467   H     0.25990   0.76642   0.33110   0.00000  Uiso   1.00
H468   H     0.29457   0.73241   0.36756   0.00000  Uiso   1.00
H469   H     0.00158   0.74959   0.30419   0.00000  Uiso   1.00
C470   C     0.51542   0.93326   0.25101   0.00000  Uiso   1.00
C471   C     0.47613   0.83420   0.48710   0.00000  Uiso   1.00
C472   C     0.49050   0.85207   0.43703   0.00000  Uiso   1.00
C473   C     0.52279   0.84692   0.01768   0.00000  Uiso   1.00
C474   C     0.58063   0.88020   0.49942   0.00000  Uiso   1.00
C475   C     0.59229   0.89995   0.45204   0.00000  Uiso   1.00
C476   C     0.54635   0.88986   0.42301   0.00000  Uiso   1.00
C477   C     0.51334   0.82909   0.06657   0.00000  Uiso   1.00
C478   C     0.61030   0.88668   0.08171   0.00000  Uiso   1.00
C479   C     0.44707   0.83359   0.40399   0.00000  Uiso   1.00
C480   C     0.52499   0.98937   0.25130   0.00000  Uiso   1.00
C481   C     0.46669   0.83249   0.34738   0.00000  Uiso   1.00
C482   C     0.47832   0.67741   0.24550   0.00000  Uiso   1.00
C483   C     0.48532   0.73333   0.24765   0.00000  Uiso   1.00
C484   C     0.53398   0.83867   0.15339   0.00000  Uiso   1.00
C485   C     0.62414   0.89863   0.03080   0.00000  Uiso   1.00
C486   C     0.55507   0.84986   0.09934   0.00000  Uiso   1.00
C487   C     0.38566   0.81032   0.42510   0.00000  Uiso   1.00
C488   C     0.36907   0.79738   0.47568   0.00000  Uiso   1.00
C489   C     0.41418   0.80795   0.00608   0.00000  Uiso   1.00
Cu490  Cu    0.44043   0.82772   0.24435   0.00000  Uiso   1.00
Cu491  Cu    0.55957   0.83895   0.25564   0.00000  Uiso   1.00
H492   H     0.43351   0.98680   0.24033   0.00000  Uiso   1.00
H493   H     0.66651   0.86737   0.29487   0.00000  Uiso   1.00
H494   H     0.63520   0.92813   0.43988   0.00000  Uiso   1.00
H495   H     0.33365   0.92597   0.01667   0.00000  Uiso   1.00
H496   H     0.47252   0.80028   0.08091   0.00000  Uiso   1.00
H497   H     0.35053   0.80132   0.40204   0.00000  Uiso   1.00
H498   H     0.39823   0.79787   0.04516   0.00000  Uiso   1.00
N499   N     0.64908   0.84741   0.26416   0.00000  Uiso   1.00
N500   N     0.35092   0.81926   0.23584   0.00000  Uiso   1.00
O501   O     0.46131   0.90474   0.24633   0.00000  Uiso   1.00
O502   O     0.56191   0.91422   0.25586   0.00000  Uiso   1.00
O503   O     0.42515   0.82627   0.31839   0.00000  Uiso   1.00
O504   O     0.52575   0.83575   0.32793   0.00000  Uiso   1.00
O505   O     0.43809   0.75245   0.24413   0.00000  Uiso   1.00
O506   O     0.53869   0.76193   0.25367   0.00000  Uiso   1.00
O507   O     0.47425   0.83092   0.17207   0.00000  Uiso   1.00
O508   O     0.57485   0.84040   0.18160   0.00000  Uiso   1.00
C509   C     0.65148   0.91801   0.11674   0.00000  Uiso   1.00
H510   H     0.62283   0.93556   0.15048   0.00000  Uiso   1.00
H511   H     0.34482   0.89327   0.12907   0.00000  Uiso   1.00
H512   H     0.35269   0.95061   0.09748   0.00000  Uiso   1.00
C513   C     0.33740   0.79346   0.18793   0.00000  Uiso   1.00
H514   H     0.34882   0.82172   0.15850   0.00000  Uiso   1.00
H515   H     0.36831   0.76527   0.17451   0.00000  Uiso   1.00
H516   H     0.62341   0.77004   0.19073   0.00000  Uiso   1.00
O517   O     0.64072   0.77699   0.49622   0.00000  Uiso   1.00
C518   C     0.63227   0.72243   0.49657   0.00000  Uiso   1.00
H519   H     0.66016   0.71218   0.02193   0.00000  Uiso   1.00
H520   H     0.64567   0.70437   0.45724   0.00000  Uiso   1.00
C521   C     0.56368   0.69977   0.01685   0.00000  Uiso   1.00
H522   H     0.53467   0.70849   0.49172   0.00000  Uiso   1.00
H523   H     0.55618   0.99020   0.01791   0.00000  Uiso   1.00
H524   H     0.54892   0.71697   0.05613   0.00000  Uiso   1.00
C525   C     0.55437   0.92848   0.38446   0.00000  Uiso   1.00
H526   H     0.59139   0.92066   0.35163   0.00000  Uiso   1.00
H527   H     0.51035   0.92796   0.37208   0.00000  Uiso   1.00
H528   H     0.56913   0.96853   0.40176   0.00000  Uiso   1.00
O529   O     0.58245   0.68678   0.25756   0.00000  Uiso   1.00
C530   C     0.58995   0.68456   0.30794   0.00000  Uiso   1.00
H531   H     0.62062   0.99027   0.30710   0.00000  Uiso   1.00
H532   H     0.54476   0.67378   0.33539   0.00000  Uiso   1.00
C533   C     0.62198   0.73693   0.32863   0.00000  Uiso   1.00
H534   H     0.59323   0.76642   0.33110   0.00000  Uiso   1.00
H535   H     0.62790   0.73241   0.36756   0.00000  Uiso   1.00
H536   H     0.33491   0.74959   0.30419   0.00000  Uiso   1.00
C537   C     0.84875   0.93326   0.25101   0.00000  Uiso   1.00
C538   C     0.80946   0.83420   0.48710   0.00000  Uiso   1.00
C539   C     0.82383   0.85207   0.43703   0.00000  Uiso   1.00
C540   C     0.85613   0.84692   0.01768   0.00000  Uiso   1.00
C541   C     0.91396   0.88020   0.49942   0.00000  Uiso   1.00
C542   C     0.92563   0.89995   0.45204   0.00000  Uiso   1.00
C543   C     0.87968   0.88986   0.42301   0.00000  Uiso   1.00
C544   C     0.84667   0.82909   0.06657   0.00000  Uiso   1.00
C545   C     0.94363   0.88668   0.08171   0.00000  Uiso   1.00
C546   C     0.78041   0.83359   0.40399   0.00000  Uiso   1.00
C547   C     0.85832   0.98937   0.25130   0.00000  Uiso   1.00
C548   C     0.80002   0.83249   0.34738   0.00000  Uiso   1.00
C549   C     0.81166   0.67741   0.24550   0.00000  Uiso   1.00
C550   C     0.81865   0.73333   0.24765   0.00000  Uiso   1.00
C551   C     0.86732   0.83867   0.15339   0.00000  Uiso   1.00
C552   C     0.95747   0.89863   0.03080   0.00000  Uiso   1.00
C553   C     0.88840   0.84986   0.09934   0.00000  Uiso   1.00
C554   C     0.71899   0.81032   0.42510   0.00000  Uiso   1.00
C555   C     0.70241   0.79738   0.47568   0.00000  Uiso   1.00
C556   C     0.74751   0.80795   0.00608   0.00000  Uiso   1.00
Cu557  Cu    0.77377   0.82772   0.24435   0.00000  Uiso   1.00
Cu558  Cu    0.89290   0.83895   0.25564   0.00000  Uiso   1.00
H559   H     0.76684   0.98680   0.24033   0.00000  Uiso   1.00
H560   H     0.99984   0.86737   0.29487   0.00000  Uiso   1.00
H561   H     0.96854   0.92813   0.43988   0.00000  Uiso   1.00
H562   H     0.66698   0.92597   0.01667   0.00000  Uiso   1.00
H563   H     0.80585   0.80028   0.08091   0.00000  Uiso   1.00
H564   H     0.68386   0.80132   0.40204   0.00000  Uiso   1.00
H565   H     0.73156   0.79787   0.04516   0.00000  Uiso   1.00
N566   N     0.98241   0.84741   0.26416   0.00000  Uiso   1.00
N567   N     0.68426   0.81926   0.23584   0.00000  Uiso   1.00
O568   O     0.79464   0.90474   0.24633   0.00000  Uiso   1.00
O569   O     0.89524   0.91422   0.25586   0.00000  Uiso   1.00
O570   O     0.75848   0.82627   0.31839   0.00000  Uiso   1.00
O571   O     0.85908   0.83575   0.32793   0.00000  Uiso   1.00
O572   O     0.77142   0.75245   0.24413   0.00000  Uiso   1.00
O573   O     0.87203   0.76193   0.25367   0.00000  Uiso   1.00
O574   O     0.80758   0.83092   0.17207   0.00000  Uiso   1.00
O575   O     0.90819   0.84040   0.18160   0.00000  Uiso   1.00
C576   C     0.98482   0.91801   0.11674   0.00000  Uiso   1.00
H577   H     0.95616   0.93556   0.15048   0.00000  Uiso   1.00
H578   H     0.67816   0.89327   0.12907   0.00000  Uiso   1.00
H579   H     0.68603   0.95061   0.09748   0.00000  Uiso   1.00
C580   C     0.67074   0.79346   0.18793   0.00000  Uiso   1.00
H581   H     0.68215   0.82172   0.15850   0.00000  Uiso   1.00
H582   H     0.70165   0.76527   0.17451   0.00000  Uiso   1.00
H583   H     0.95674   0.77004   0.19073   0.00000  Uiso   1.00
O584   O     0.97405   0.77699   0.49622   0.00000  Uiso   1.00
C585   C     0.96560   0.72243   0.49657   0.00000  Uiso   1.00
H586   H     0.99350   0.71218   0.02193   0.00000  Uiso   1.00
H587   H     0.97900   0.70437   0.45724   0.00000  Uiso   1.00
C588   C     0.89701   0.69977   0.01685   0.00000  Uiso   1.00
H589   H     0.86801   0.70849   0.49172   0.00000  Uiso   1.00
H590   H     0.88951   0.99020   0.01791   0.00000  Uiso   1.00
H591   H     0.88226   0.71697   0.05613   0.00000  Uiso   1.00
C592   C     0.88771   0.92848   0.38446   0.00000  Uiso   1.00
H593   H     0.92473   0.92066   0.35163   0.00000  Uiso   1.00
H594   H     0.84368   0.92796   0.37208   0.00000  Uiso   1.00
H595   H     0.90246   0.96853   0.40176   0.00000  Uiso   1.00
O596   O     0.91578   0.68678   0.25756   0.00000  Uiso   1.00
C597   C     0.92329   0.68456   0.30794   0.00000  Uiso   1.00
H598   H     0.95395   0.99027   0.30710   0.00000  Uiso   1.00
H599   H     0.87809   0.67378   0.33539   0.00000  Uiso   1.00
C600   C     0.95531   0.73693   0.32863   0.00000  Uiso   1.00
H601   H     0.92657   0.76642   0.33110   0.00000  Uiso   1.00
H602   H     0.96123   0.73241   0.36756   0.00000  Uiso   1.00
H603   H     0.66824   0.74959   0.30419   0.00000  Uiso   1.00
C604   C     0.18209   0.26659   0.75101   0.00000  Uiso   1.00
C605   C     0.14279   0.16754   0.98710   0.00000  Uiso   1.00
C606   C     0.15716   0.18540   0.93703   0.00000  Uiso   1.00
C607   C     0.18946   0.18026   0.51768   0.00000  Uiso   1.00
C608   C     0.24730   0.21353   0.99942   0.00000  Uiso   1.00
C609   C     0.25896   0.23328   0.95204   0.00000  Uiso   1.00
C610   C     0.21301   0.22319   0.92301   0.00000  Uiso   1.00
C611   C     0.18001   0.16242   0.56657   0.00000  Uiso   1.00
C612   C     0.27696   0.22001   0.58171   0.00000  Uiso   1.00
C613   C     0.11374   0.16692   0.90399   0.00000  Uiso   1.00
C614   C     0.19166   0.32271   0.75130   0.00000  Uiso   1.00
C615   C     0.13335   0.16582   0.84738   0.00000  Uiso   1.00
C616   C     0.14499   0.01074   0.74550   0.00000  Uiso   1.00
C617   C     0.15198   0.06666   0.74765   0.00000  Uiso   1.00
C618   C     0.20065   0.17200   0.65339   0.00000  Uiso   1.00
C619   C     0.29081   0.23196   0.53080   0.00000  Uiso   1.00
C620   C     0.22174   0.18319   0.59934   0.00000  Uiso   1.00
C621   C     0.05233   0.14366   0.92510   0.00000  Uiso   1.00
C622   C     0.03574   0.13071   0.97568   0.00000  Uiso   1.00
C623   C     0.08085   0.14129   0.50608   0.00000  Uiso   1.00
Cu624  Cu    0.10710   0.16105   0.74435   0.00000  Uiso   1.00
Cu625  Cu    0.22623   0.17228   0.75564   0.00000  Uiso   1.00
H626   H     0.10018   0.32014   0.74033   0.00000  Uiso   1.00
H627   H     0.33317   0.20070   0.79487   0.00000  Uiso   1.00
H628   H     0.30187   0.26146   0.93988   0.00000  Uiso   1.00
H629   H     0.00032   0.25930   0.51667   0.00000  Uiso   1.00
H630   H     0.13918   0.13361   0.58091   0.00000  Uiso   1.00
H631   H     0.01719   0.13466   0.90204   0.00000  Uiso   1.00
H632   H     0.06489   0.13121   0.54516   0.00000  Uiso   1.00
N633   N     0.31574   0.18074   0.76416   0.00000  Uiso   1.00
N634   N     0.01759   0.15259   0.73584   0.00000  Uiso   1.00
O635   O     0.12797   0.23807   0.74633   0.00000  Uiso   1.00
O636   O     0.22858   0.24755   0.75586   0.00000  Uiso   1.00
O637   O     0.09181   0.15960   0.81839   0.00000  Uiso   1.00
O638   O     0.19242   0.16908   0.82793   0.00000  Uiso   1.00
O639   O     0.10476   0.08578   0.74413   0.00000  Uiso   1.00
O640   O     0.20536   0.09526   0.75367   0.00000  Uiso   1.00
O641   O     0.14092   0.16425   0.67207   0.00000  Uiso   1.00
O642   O     0.24152   0.17373   0.68160   0.00000  Uiso   1.00
C643   C     0.31815   0.25134   0.61674   0.00000  Uiso   1.00
H644   H     0.28949   0.26889   0.65048   0.00000  Uiso   1.00
H645   H     0.01149   0.22661   0.62907   0.00000  Uiso   1.00
H646   H     0.01936   0.28395   0.59748   0.00000  Uiso   1.00
C647   C     0.00407   0.12680   0.68793   0.00000  Uiso   1.00
H648   H     0.01549   0.15506   0.65850   0.00000  Uiso   1.00
H649   H     0.03498   0.09860   0.67451   0.00000  Uiso   1.00
H650   H     0.29007   0.10337   0.69073   0.00000  Uiso   1.00
O651   O     0.30738   0.11033   0.99622   0.00000  Uiso   1.00
C652   C     0.29894   0.05576   0.99657   0.00000  Uiso   1.00
H653   H     0.32683   0.04551   0.52193   0.00000  Uiso   1.00
H654   H     0.31234   0.03770   0.95724   0.00000  Uiso   1.00
C655   C     0.23035   0.03311   0.51685   0.00000  Uiso   1.00
H656   H     0.20134   0.04182   0.99172   0.00000  Uiso   1.00
H657   H     0.22284   0.32353   0.51791   0.00000  Uiso   1.00
H658   H     0.21559   0.05030   0.55613   0.00000  Uiso   1.00
C659   C     0.22104   0.26181   0.88446   0.00000  Uiso   1.00
H660   H     0.25806   0.25400   0.85163   0.00000  Uiso   1.00
H661   H     0.17702   0.26130   0.87208   0.00000  Uiso   1.00
H662   H     0.23579   0.30186   0.90176   0.00000  Uiso   1.00
O663   O     0.24912   0.02011   0.75756   0.00000  Uiso   1.00
C664   C     0.25662   0.01790   0.80794   0.00000  Uiso   1.00
H665   H     0.28728   0.32360   0.80710   0.00000  Uiso   1.00
H666   H     0.21142   0.00711   0.83539   0.00000  Uiso   1.00
C667   C     0.28865   0.07026   0.82863   0.00000  Uiso   1.00
H668   H     0.25990   0.09975   0.83110   0.00000  Uiso   1.00
H669   H     0.29457   0.06574   0.86756   0.00000  Uiso   1.00
H670   H     0.00158   0.08292   0.80419   0.00000  Uiso   1.00
C671   C     0.51542   0.26659   0.75101   0.00000  Uiso   1.00
C672   C     0.47613   0.16754   0.98710   0.00000  Uiso   1.00
C673   C     0.49050   0.18540   0.93703   0.00000  Uiso   1.00
C674   C     0.52279   0.18026   0.51768   0.00000  Uiso   1.00
C675   C     0.58063   0.21353   0.99942   0.00000  Uiso   1.00
C676   C     0.59229   0.23328   0.95204   0.00000  Uiso   1.00
C677   C     0.54635   0.22319   0.92301   0.00000  Uiso   1.00
C678   C     0.51334   0.16242   0.56657   0.00000  Uiso   1.00
C679   C     0.61030   0.22001   0.58171   0.00000  Uiso   1.00
C680   C     0.44707   0.16692   0.90399   0.00000  Uiso   1.00
C681   C     0.52499   0.32271   0.75130   0.00000  Uiso   1.00
C682   C     0.46669   0.16582   0.84738   0.00000  Uiso   1.00
C683   C     0.47832   0.01074   0.74550   0.00000  Uiso   1.00
C684   C     0.48532   0.06666   0.74765   0.00000  Uiso   1.00
C685   C     0.53398   0.17200   0.65339   0.00000  Uiso   1.00
C686   C     0.62414   0.23196   0.53080   0.00000  Uiso   1.00
C687   C     0.55507   0.18319   0.59934   0.00000  Uiso   1.00
C688   C     0.38566   0.14366   0.92510   0.00000  Uiso   1.00
C689   C     0.36907   0.13071   0.97568   0.00000  Uiso   1.00
C690   C     0.41418   0.14129   0.50608   0.00000  Uiso   1.00
Cu691  Cu    0.44043   0.16105   0.74435   0.00000  Uiso   1.00
Cu692  Cu    0.55957   0.17228   0.75564   0.00000  Uiso   1.00
H693   H     0.43351   0.32014   0.74033   0.00000  Uiso   1.00
H694   H     0.66651   0.20070   0.79487   0.00000  Uiso   1.00
H695   H     0.63520   0.26146   0.93988   0.00000  Uiso   1.00
H696   H     0.33365   0.25930   0.51667   0.00000  Uiso   1.00
H697   H     0.47252   0.13361   0.58091   0.00000  Uiso   1.00
H698   H     0.35053   0.13466   0.90204   0.00000  Uiso   1.00
H699   H     0.39823   0.13121   0.54516   0.00000  Uiso   1.00
N700   N     0.64908   0.18074   0.76416   0.00000  Uiso   1.00
N701   N     0.35092   0.15259   0.73584   0.00000  Uiso   1.00
O702   O     0.46131   0.23807   0.74633   0.00000  Uiso   1.00
O703   O     0.56191   0.24755   0.75586   0.00000  Uiso   1.00
O704   O     0.42515   0.15960   0.81839   0.00000  Uiso   1.00
O705   O     0.52575   0.16908   0.82793   0.00000  Uiso   1.00
O706   O     0.43809   0.08578   0.74413   0.00000  Uiso   1.00
O707   O     0.53869   0.09526   0.75367   0.00000  Uiso   1.00
O708   O     0.47425   0.16425   0.67207   0.00000  Uiso   1.00
O709   O     0.57485   0.17373   0.68160   0.00000  Uiso   1.00
C710   C     0.65148   0.25134   0.61674   0.00000  Uiso   1.00
H711   H     0.62283   0.26889   0.65048   0.00000  Uiso   1.00
H712   H     0.34482   0.22661   0.62907   0.00000  Uiso   1.00
H713   H     0.35269   0.28395   0.59748   0.00000  Uiso   1.00
C714   C     0.33740   0.12680   0.68793   0.00000  Uiso   1.00
H715   H     0.34882   0.15506   0.65850   0.00000  Uiso   1.00
H716   H     0.36831   0.09860   0.67451   0.00000  Uiso   1.00
H717   H     0.62341   0.10337   0.69073   0.00000  Uiso   1.00
O718   O     0.64072   0.11033   0.99622   0.00000  Uiso   1.00
C719   C     0.63227   0.05576   0.99657   0.00000  Uiso   1.00
H720   H     0.66016   0.04551   0.52193   0.00000  Uiso   1.00
H721   H     0.64567   0.03770   0.95724   0.00000  Uiso   1.00
C722   C     0.56368   0.03311   0.51685   0.00000  Uiso   1.00
H723   H     0.53467   0.04182   0.99172   0.00000  Uiso   1.00
H724   H     0.55618   0.32353   0.51791   0.00000  Uiso   1.00
H725   H     0.54892   0.05030   0.55613   0.00000  Uiso   1.00
C726   C     0.55437   0.26181   0.88446   0.00000  Uiso   1.00
H727   H     0.59139   0.25400   0.85163   0.00000  Uiso   1.00
H728   H     0.51035   0.26130   0.87208   0.00000  Uiso   1.00
H729   H     0.56913   0.30186   0.90176   0.00000  Uiso   1.00
O730   O     0.58245   0.02011   0.75756   0.00000  Uiso   1.00
C731   C     0.58995   0.01790   0.80794   0.00000  Uiso   1.00
H732   H     0.62062   0.32360   0.80710   0.00000  Uiso   1.00
H733   H     0.54476   0.00711   0.83539   0.00000  Uiso   1.00
C734   C     0.62198   0.07026   0.82863   0.00000  Uiso   1.00
H735   H     0.59323   0.09975   0.83110   0.00000  Uiso   1.00
H736   H     0.62790   0.06574   0.86756   0.00000  Uiso   1.00
H737   H     0.33491   0.08292   0.80419   0.00000  Uiso   1.00
C738   C     0.84875   0.26659   0.75101   0.00000  Uiso   1.00
C739   C     0.80946   0.16754   0.98710   0.00000  Uiso   1.00
C740   C     0.82383   0.18540   0.93703   0.00000  Uiso   1.00
C741   C     0.85613   0.18026   0.51768   0.00000  Uiso   1.00
C742   C     0.91396   0.21353   0.99942   0.00000  Uiso   1.00
C743   C     0.92563   0.23328   0.95204   0.00000  Uiso   1.00
C744   C     0.87968   0.22319   0.92301   0.00000  Uiso   1.00
C745   C     0.84667   0.16242   0.56657   0.00000  Uiso   1.00
C746   C     0.94363   0.22001   0.58171   0.00000  Uiso   1.00
C747   C     0.78041   0.16692   0.90399   0.00000  Uiso   1.00
C748   C     0.85832   0.32271   0.75130   0.00000  Uiso   1.00
C749   C     0.80002   0.16582   0.84738   0.00000  Uiso   1.00
C750   C     0.81166   0.01074   0.74550   0.00000  Uiso   1.00
C751   C     0.81865   0.06666   0.74765   0.00000  Uiso   1.00
C752   C     0.86732   0.17200   0.65339   0.00000  Uiso   1.00
C753   C     0.95747   0.23196   0.53080   0.00000  Uiso   1.00
C754   C     0.88840   0.18319   0.59934   0.00000  Uiso   1.00
C755   C     0.71899   0.14366   0.92510   0.00000  Uiso   1.00
C756   C     0.70241   0.13071   0.97568   0.00000  Uiso   1.00
C757   C     0.74751   0.14129   0.50608   0.00000  Uiso   1.00
Cu758  Cu    0.77377   0.16105   0.74435   0.00000  Uiso   1.00
Cu759  Cu    0.89290   0.17228   0.75564   0.00000  Uiso   1.00
H760   H     0.76684   0.32014   0.74033   0.00000  Uiso   1.00
H761   H     0.99984   0.20070   0.79487   0.00000  Uiso   1.00
H762   H     0.96854   0.26146   0.93988   0.00000  Uiso   1.00
H763   H     0.66698   0.25930   0.51667   0.00000  Uiso   1.00
H764   H     0.80585   0.13361   0.58091   0.00000  Uiso   1.00
H765   H     0.68386   0.13466   0.90204   0.00000  Uiso   1.00
H766   H     0.73156   0.13121   0.54516   0.00000  Uiso   1.00
N767   N     0.98241   0.18074   0.76416   0.00000  Uiso   1.00
N768   N     0.68426   0.15259   0.73584   0.00000  Uiso   1.00
O769   O     0.79464   0.23807   0.74633   0.00000  Uiso   1.00
O770   O     0.89524   0.24755   0.75586   0.00000  Uiso   1.00
O771   O     0.75848   0.15960   0.81839   0.00000  Uiso   1.00
O772   O     0.85908   0.16908   0.82793   0.00000  Uiso   1.00
O773   O     0.77142   0.08578   0.74413   0.00000  Uiso   1.00
O774   O     0.87203   0.09526   0.75367   0.00000  Uiso   1.00
O775   O     0.80758   0.16425   0.67207   0.00000  Uiso   1.00
O776   O     0.90819   0.17373   0.68160   0.00000  Uiso   1.00
C777   C     0.98482   0.25134   0.61674   0.00000  Uiso   1.00
H778   H     0.95616   0.26889   0.65048   0.00000  Uiso   1.00
H779   H     0.67816   0.22661   0.62907   0.00000  Uiso   1.00
H780   H     0.68603   0.28395   0.59748   0.00000  Uiso   1.00
C781   C     0.67074   0.12680   0.68793   0.00000  Uiso   1.00
H782   H     0.68215   0.15506   0.65850   0.00000  Uiso   1.00
H783   H     0.70165   0.09860   0.67451   0.00000  Uiso   1.00
H784   H     0.95674   0.10337   0.69073   0.00000  Uiso   1.00
O785   O     0.97405   0.11033   0.99622   0.00000  Uiso   1.00
C786   C     0.96560   0.05576   0.99657   0.00000  Uiso   1.00
H787   H     0.99350   0.04551   0.52193   0.00000  Uiso   1.00
H788   H     0.97900   0.03770   0.95724   0.00000  Uiso   1.00
C789   C     0.89701   0.03311   0.51685   0.00000  Uiso   1.00
H790   H     0.86801   0.04182   0.99172   0.00000  Uiso   1.00
H791   H     0.88951   0.32353   0.51791   0.00000  Uiso   1.00
H792   H     0.88226   0.05030   0.55613   0.00000  Uiso   1.00
C793   C     0.88771   0.26181   0.88446   0.00000  Uiso   1.00
H794   H     0.92473   0.25400   0.85163   0.00000  Uiso   1.00
H795   H     0.84368   0.26130   0.87208   0.00000  Uiso   1.00
H796   H     0.90246   0.30186   0.90176   0.00000  Uiso   1.00
O797   O     0.91578   0.02011   0.75756   0.00000  Uiso   1.00
C798   C     0.92329   0.01790   0.80794   0.00000  Uiso   1.00
H799   H     0.95395   0.32360   0.80710   0.00000  Uiso   1.00
H800   H     0.87809   0.00711   0.83539   0.00000  Uiso   1.00
C801   C     0.95531   0.07026   0.82863   0.00000  Uiso   1.00
H802   H     0.92657   0.09975   0.83110   0.00000  Uiso   1.00
H803   H     0.96123   0.06574   0.86756   0.00000  Uiso   1.00
H804   H     0.66824   0.08292   0.80419   0.00000  Uiso   1.00
C805   C     0.18209   0.59992   0.75101   0.00000  Uiso   1.00
C806   C     0.14279   0.50087   0.98710   0.00000  Uiso   1.00
C807   C     0.15716   0.51874   0.93703   0.00000  Uiso   1.00
C808   C     0.18946   0.51359   0.51768   0.00000  Uiso   1.00
C809   C     0.24730   0.54687   0.99942   0.00000  Uiso   1.00
C810   C     0.25896   0.56661   0.95204   0.00000  Uiso   1.00
C811   C     0.21301   0.55652   0.92301   0.00000  Uiso   1.00
C812   C     0.18001   0.49575   0.56657   0.00000  Uiso   1.00
C813   C     0.27696   0.55334   0.58171   0.00000  Uiso   1.00
C814   C     0.11374   0.50025   0.90399   0.00000  Uiso   1.00
C815   C     0.19166   0.65604   0.75130   0.00000  Uiso   1.00
C816   C     0.13335   0.49916   0.84738   0.00000  Uiso   1.00
C817   C     0.14499   0.34407   0.74550   0.00000  Uiso   1.00
C818   C     0.15198   0.40000   0.74765   0.00000  Uiso   1.00
C819   C     0.20065   0.50534   0.65339   0.00000  Uiso   1.00
C820   C     0.29081   0.56530   0.53080   0.00000  Uiso   1.00
C821   C     0.22174   0.51653   0.59934   0.00000  Uiso   1.00
C822   C     0.05233   0.47699   0.92510   0.00000  Uiso   1.00
C823   C     0.03574   0.46404   0.97568   0.00000  Uiso   1.00
C824   C     0.08085   0.47462   0.50608   0.00000  Uiso   1.00
Cu825  Cu    0.10710   0.49439   0.74435   0.00000  Uiso   1.00
Cu826  Cu    0.22623   0.50561   0.75564   0.00000  Uiso   1.00
H827   H     0.10018   0.65347   0.74033   0.00000  Uiso   1.00
H828   H     0.33317   0.53404   0.79487   0.00000  Uiso   1.00
H829   H     0.30187   0.59479   0.93988   0.00000  Uiso   1.00
H830   H     0.00032   0.59263   0.51667   0.00000  Uiso   1.00
H831   H     0.13918   0.46694   0.58091   0.00000  Uiso   1.00
H832   H     0.01719   0.46799   0.90204   0.00000  Uiso   1.00
H833   H     0.06489   0.46454   0.54516   0.00000  Uiso   1.00
N834   N     0.31574   0.51407   0.76416   0.00000  Uiso   1.00
N835   N     0.01759   0.48593   0.73584   0.00000  Uiso   1.00
O836   O     0.12797   0.57141   0.74633   0.00000  Uiso   1.00
O837   O     0.22858   0.58089   0.75586   0.00000  Uiso   1.00
O838   O     0.09181   0.49293   0.81839   0.00000  Uiso   1.00
O839   O     0.19242   0.50241   0.82793   0.00000  Uiso   1.00
O840   O     0.10476   0.41911   0.74413   0.00000  Uiso   1.00
O841   O     0.20536   0.42859   0.75367   0.00000  Uiso   1.00
O842   O     0.14092   0.49759   0.67207   0.00000  Uiso   1.00
O843   O     0.24152   0.50707   0.68160   0.00000  Uiso   1.00
C844   C     0.31815   0.58468   0.61674   0.00000  Uiso   1.00
H845   H     0.28949   0.60222   0.65048   0.00000  Uiso   1.00
H846   H     0.01149   0.55994   0.62907   0.00000  Uiso   1.00
H847   H     0.01936   0.61728   0.59748   0.00000  Uiso   1.00
C848   C     0.00407   0.46013   0.68793   0.00000  Uiso   1.00
H849   H     0.01549   0.48839   0.65850   0.00000  Uiso   1.00
H850   H     0.03498   0.43193   0.67451   0.00000  Uiso   1.00
H851   H     0.29007   0.43670   0.69073   0.00000  Uiso   1.00
O852   O     0.30738   0.44366   0.99622   0.00000  Uiso   1.00
C853   C     0.29894   0.38909   0.99657   0.00000  Uiso   1.00
H854   H     0.32683   0.37884   0.52193   0.00000  Uiso   1.00
H855   H     0.31234   0.37104   0.95724   0.00000  Uiso   1.00
C856   C     0.23035   0.36644   0.51685   0.00000  Uiso   1.00
H857   H     0.20134   0.37515   0.99172   0.00000  Uiso   1.00
H858   H     0.22284   0.65686   0.51791   0.00000  Uiso   1.00
H859   H     0.21559   0.38364   0.55613   0.00000  Uiso   1.00
C860   C     0.22104   0.59515   0.88446   0.00000  Uiso   1.00
H861   H     0.25806   0.58733   0.85163   0.00000  Uiso   1.00
H862   H     0.17702   0.59463   0.87208   0.00000  Uiso   1.00
H863   H     0.23579   0.63520   0.90176   0.00000  Uiso   1.00
O864   O     0.24912   0.35344   0.75756   0.00000  Uiso   1.00
C865   C     0.25662   0.35123   0.80794   0.00000  Uiso   1.00
H866   H     0.28728   0.65694   0.80710   0.00000  Uiso   1.00
H867   H     0.21142   0.34045   0.83539   0.00000  Uiso   1.00
C868   C     0.28865   0.40360   0.82863   0.00000  Uiso   1.00
H869   H     0.25990   0.43309   0.83110   0.00000  Uiso   1.00
H870   H     0.29457   0.39908   0.86756   0.00000  Uiso   1.00
H871   H     0.00158   0.41625   0.80419   0.00000  Uiso   1.00
C872   C     0.51542   0.59992   0.75101   0.00000  Uiso   1.00
C873   C     0.47613   0.50087   0.98710   0.00000  Uiso   1.00
C874   C     0.49050   0.51874   0.93703   0.00000  Uiso   1.00
C875   C     0.52279   0.51359   0.51768   0.00000  Uiso   1.00
C876   C     0.58063   0.54687   0.99942   0.00000  Uiso   1.00
C877   C     0.59229   0.56661   0.95204   0.00000  Uiso   1.00
C878   C     0.54635   0.55652   0.92301   0.00000  Uiso   1.00
C879   C     0.51334   0.49575   0.56657   0.00000  Uiso   1.00
C880   C     0.61030   0.55334   0.58171   0.00000  Uiso   1.00
C881   C     0.44707   0.50025   0.90399   0.00000  Uiso   1.00
C882   C     0.52499   0.65604   0.75130   0.00000  Uiso   1.00
C883   C     0.46669   0.49916   0.84738   0.00000  Uiso   1.00
C884   C     0.47832   0.34407   0.74550   0.00000  Uiso   1.00
C885   C     0.48532   0.40000   0.74765   0.00000  Uiso   1.00
C886   C     0.53398   0.50534   0.65339   0.00000  Uiso   1.00
C887   C     0.62414   0.56530   0.53080   0.00000  Uiso   1.00
C888   C     0.55507   0.51653   0.59934   0.00000  Uiso   1.00
C889   C     0.38566   0.47699   0.92510   0.00000  Uiso   1.00
C890   C     0.36907   0.46404   0.97568   0.00000  Uiso   1.00
C891   C     0.41418   0.47462   0.50608   0.00000  Uiso   1.00
Cu892  Cu    0.44043   0.49439   0.74435   0.00000  Uiso   1.00
Cu893  Cu    0.55957   0.50561   0.75564   0.00000  Uiso   1.00
H894   H     0.43351   0.65347   0.74033   0.00000  Uiso   1.00
H895   H     0.66651   0.53404   0.79487   0.00000  Uiso   1.00
H896   H     0.63520   0.59479   0.93988   0.00000  Uiso   1.00
H897   H     0.33365   0.59263   0.51667   0.00000  Uiso   1.00
H898   H     0.47252   0.46694   0.58091   0.00000  Uiso   1.00
H899   H     0.35053   0.46799   0.90204   0.00000  Uiso   1.00
H900   H     0.39823   0.46454   0.54516   0.00000  Uiso   1.00
N901   N     0.64908   0.51407   0.76416   0.00000  Uiso   1.00
N902   N     0.35092   0.48593   0.73584   0.00000  Uiso   1.00
O903   O     0.46131   0.57141   0.74633   0.00000  Uiso   1.00
O904   O     0.56191   0.58089   0.75586   0.00000  Uiso   1.00
O905   O     0.42515   0.49293   0.81839   0.00000  Uiso   1.00
O906   O     0.52575   0.50241   0.82793   0.00000  Uiso   1.00
O907   O     0.43809   0.41911   0.74413   0.00000  Uiso   1.00
O908   O     0.53869   0.42859   0.75367   0.00000  Uiso   1.00
O909   O     0.47425   0.49759   0.67207   0.00000  Uiso   1.00
O910   O     0.57485   0.50707   0.68160   0.00000  Uiso   1.00
C911   C     0.65148   0.58468   0.61674   0.00000  Uiso   1.00
H912   H     0.62283   0.60222   0.65048   0.00000  Uiso   1.00
H913   H     0.34482   0.55994   0.62907   0.00000  Uiso   1.00
H914   H     0.35269   0.61728   0.59748   0.00000  Uiso   1.00
C915   C     0.33740   0.46013   0.68793   0.00000  Uiso   1.00
H916   H     0.34882   0.48839   0.65850   0.00000  Uiso   1.00
H917   H     0.36831   0.43193   0.67451   0.00000  Uiso   1.00
H918   H     0.62341   0.43670   0.69073   0.00000  Uiso   1.00
O919   O     0.64072   0.44366   0.99622   0.00000  Uiso   1.00
C920   C     0.63227   0.38909   0.99657   0.00000  Uiso   1.00
H921   H     0.66016   0.37884   0.52193   0.00000  Uiso   1.00
H922   H     0.64567   0.37104   0.95724   0.00000  Uiso   1.00
C923   C     0.56368   0.36644   0.51685   0.00000  Uiso   1.00
H924   H     0.53467   0.37515   0.99172   0.00000  Uiso   1.00
H925   H     0.55618   0.65686   0.51791   0.00000  Uiso   1.00
H926   H     0.54892   0.38364   0.55613   0.00000  Uiso   1.00
C927   C     0.55437   0.59515   0.88446   0.00000  Uiso   1.00
H928   H     0.59139   0.58733   0.85163   0.00000  Uiso   1.00
H929   H     0.51035   0.59463   0.87208   0.00000  Uiso   1.00
H930   H     0.56913   0.63520   0.90176   0.00000  Uiso   1.00
O931   O     0.58245   0.35344   0.75756   0.00000  Uiso   1.00
C932   C     0.58995   0.35123   0.80794   0.00000  Uiso   1.00
H933   H     0.62062   0.65694   0.80710   0.00000  Uiso   1.00
H934   H     0.54476   0.34045   0.83539   0.00000  Uiso   1.00
C935   C     0.62198   0.40360   0.82863   0.00000  Uiso   1.00
H936   H     0.59323   0.43309   0.83110   0.00000  Uiso   1.00
H937   H     0.62790   0.39908   0.86756   0.00000  Uiso   1.00
H938   H     0.33491   0.41625   0.80419   0.00000  Uiso   1.00
C939   C     0.84875   0.59992   0.75101   0.00000  Uiso   1.00
C940   C     0.80946   0.50087   0.98710   0.00000  Uiso   1.00
C941   C     0.82383   0.51874   0.93703   0.00000  Uiso   1.00
C942   C     0.85613   0.51359   0.51768   0.00000  Uiso   1.00
C943   C     0.91396   0.54687   0.99942   0.00000  Uiso   1.00
C944   C     0.92563   0.56661   0.95204   0.00000  Uiso   1.00
C945   C     0.87968   0.55652   0.92301   0.00000  Uiso   1.00
C946   C     0.84667   0.49575   0.56657   0.00000  Uiso   1.00
C947   C     0.94363   0.55334   0.58171   0.00000  Uiso   1.00
C948   C     0.78041   0.50025   0.90399   0.00000  Uiso   1.00
C949   C     0.85832   0.65604   0.75130   0.00000  Uiso   1.00
C950   C     0.80002   0.49916   0.84738   0.00000  Uiso   1.00
C951   C     0.81166   0.34407   0.74550   0.00000  Uiso   1.00
C952   C     0.81865   0.40000   0.74765   0.00000  Uiso   1.00
C953   C     0.86732   0.50534   0.65339   0.00000  Uiso   1.00
C954   C     0.95747   0.56530   0.53080   0.00000  Uiso   1.00
C955   C     0.88840   0.51653   0.59934   0.00000  Uiso   1.00
C956   C     0.71899   0.47699   0.92510   0.00000  Uiso   1.00
C957   C     0.70241   0.46404   0.97568   0.00000  Uiso   1.00
C958   C     0.74751   0.47462   0.50608   0.00000  Uiso   1.00
Cu959  Cu    0.77377   0.49439   0.74435   0.00000  Uiso   1.00
Cu960  Cu    0.89290   0.50561   0.75564   0.00000  Uiso   1.00
H961   H     0.76684   0.65347   0.74033   0.00000  Uiso   1.00
H962   H     0.99984   0.53404   0.79487   0.00000  Uiso   1.00
H963   H     0.96854   0.59479   0.93988   0.00000  Uiso   1.00
H964   H     0.66698   0.59263   0.51667   0.00000  Uiso   1.00
H965   H     0.80585   0.46694   0.58091   0.00000  Uiso   1.00
H966   H     0.68386   0.46799   0.90204   0.00000  Uiso   1.00
H967   H     0.73156   0.46454   0.54516   0.00000  Uiso   1.00
N968   N     0.98241   0.51407   0.76416   0.00000  Uiso   1.00
N969   N     0.68426   0.48593   0.73584   0.00000  Uiso   1.00
O970   O     0.79464   0.57141   0.74633   0.00000  Uiso   1.00
O971   O     0.89524   0.58089   0.75586   0.00000  Uiso   1.00
O972   O     0.75848   0.49293   0.81839   0.00000  Uiso   1.00
O973   O     0.85908   0.50241   0.82793   0.00000  Uiso   1.00
O974   O     0.77142   0.41911   0.74413   0.00000  Uiso   1.00
O975   O     0.87203   0.42859   0.75367   0.00000  Uiso   1.00
O976   O     0.80758   0.49759   0.67207   0.00000  Uiso   1.00
O977   O     0.90819   0.50707   0.68160   0.00000  Uiso   1.00
C978   C     0.98482   0.58468   0.61674   0.00000  Uiso   1.00
H979   H     0.95616   0.60222   0.65048   0.00000  Uiso   1.00
H980   H     0.67816   0.55994   0.62907   0.00000  Uiso   1.00
H981   H     0.68603   0.61728   0.59748   0.00000  Uiso   1.00
C982   C     0.67074   0.46013   0.68793   0.00000  Uiso   1.00
H983   H     0.68215   0.48839   0.65850   0.00000  Uiso   1.00
H984   H     0.70165   0.43193   0.67451   0.00000  Uiso   1.00
H985   H     0.95674   0.43670   0.69073   0.00000  Uiso   1.00
O986   O     0.97405   0.44366   0.99622   0.00000  Uiso   1.00
C987   C     0.96560   0.38909   0.99657   0.00000  Uiso   1.00
H988   H     0.99350   0.37884   0.52193   0.00000  Uiso   1.00
H989   H     0.97900   0.37104   0.95724   0.00000  Uiso   1.00
C990   C     0.89701   0.36644   0.51685   0.00000  Uiso   1.00
H991   H     0.86801   0.37515   0.99172   0.00000  Uiso   1.00
H992   H     0.88951   0.65686   0.51791   0.00000  Uiso   1.00
H993   H     0.88226   0.38364   0.55613   0.00000  Uiso   1.00
C994   C     0.88771   0.59515   0.88446   0.00000  Uiso   1.00
H995   H     0.92473   0.58733   0.85163   0.00000  Uiso   1.00
H996   H     0.84368   0.59463   0.87208   0.00000  Uiso   1.00
H997   H     0.90246   0.63520   0.90176   0.00000  Uiso   1.00
O998   O     0.91578   0.35344   0.75756   0.00000  Uiso   1.00
C999   C     0.92329   0.35123   0.80794   0.00000  Uiso   1.00
H1000  H     0.95395   0.65694   0.80710   0.00000  Uiso   1.00
H1001  H     0.87809   0.34045   0.83539   0.00000  Uiso   1.00
C1002  C     0.95531   0.40360   0.82863   0.00000  Uiso   1.00
H1003  H     0.92657   0.43309   0.83110   0.00000  Uiso   1.00
H1004  H     0.96123   0.39908   0.86756   0.00000  Uiso   1.00
H1005  H     0.66824   0.41625   0.80419   0.00000  Uiso   1.00
C1006  C     0.18209   0.93326   0.75101   0.00000  Uiso   1.00
C1007  C     0.14279   0.83420   0.98710   0.00000  Uiso   1.00
C1008  C     0.15716   0.85207   0.93703   0.00000  Uiso   1.00
C1009  C     0.18946   0.84692   0.51768   0.00000  Uiso   1.00
C1010  C     0.24730   0.88020   0.99942   0.00000  Uiso   1.00
C1011  C     0.25896   0.89995   0.95204   0.00000  Uiso   1.00
C1012  C     0.21301   0.88986   0.92301   0.00000  Uiso   1.00
C1013  C     0.18001   0.82909   0.56657   0.00000  Uiso   1.00
C1014  C     0.27696   0.88668   0.58171   0.00000  Uiso   1.00
C1015  C     0.11374   0.83359   0.90399   0.00000  Uiso   1.00
C1016  C     0.19166   0.98937   0.75130   0.00000  Uiso   1.00
C1017  C     0.13335   0.83249   0.84738   0.00000  Uiso   1.00
C1018  C     0.14499   0.67741   0.74550   0.00000  Uiso   1.00
C1019  C     0.15198   0.73333   0.74765   0.00000  Uiso   1.00
C1020  C     0.20065   0.83867   0.65339   0.00000  Uiso   1.00
C1021  C     0.29081   0.89863   0.53080   0.00000  Uiso   1.00
C1022  C     0.22174   0.84986   0.59934   0.00000  Uiso   1.00
C1023  C     0.05233   0.81032   0.92510   0.00000  Uiso   1.00
C1024  C     0.03574   0.79738   0.97568   0.00000  Uiso   1.00
C1025  C     0.08085   0.80795   0.50608   0.00000  Uiso   1.00
Cu1026 Cu    0.10710   0.82772   0.74435   0.00000  Uiso   1.00
Cu1027 Cu    0.22623   0.83895   0.75564   0.00000  Uiso   1.00
H1028  H     0.10018   0.98680   0.74033   0.00000  Uiso   1.00
H1029  H     0.33317   0.86737   0.79487   0.00000  Uiso   1.00
H1030  H     0.30187   0.92813   0.93988   0.00000  Uiso   1.00
H1031  H     0.00032   0.92597   0.51667   0.00000  Uiso   1.00
H1032  H     0.13918   0.80028   0.58091   0.00000  Uiso   1.00
H1033  H     0.01719   0.80132   0.90204   0.00000  Uiso   1.00
H1034  H     0.06489   0.79787   0.54516   0.00000  Uiso   1.00
N1035  N     0.31574   0.84741   0.76416   0.00000  Uiso   1.00
N1036  N     0.01759   0.81926   0.73584   0.00000  Uiso   1.00
O1037  O     0.12797   0.90474   0.74633   0.00000  Uiso   1.00
O1038  O     0.22858   0.91422   0.75586   0.00000  Uiso   1.00
O1039  O     0.09181   0.82627   0.81839   0.00000  Uiso   1.00
O1040  O     0.19242   0.83575   0.82793   0.00000  Uiso   1.00
O1041  O     0.10476   0.75245   0.74413   0.00000  Uiso   1.00
O1042  O     0.20536   0.76193   0.75367   0.00000  Uiso   1.00
O1043  O     0.14092   0.83092   0.67207   0.00000  Uiso   1.00
O1044  O     0.24152   0.84040   0.68160   0.00000  Uiso   1.00
C1045  C     0.31815   0.91801   0.61674   0.00000  Uiso   1.00
H1046  H     0.28949   0.93556   0.65048   0.00000  Uiso   1.00
H1047  H     0.01149   0.89327   0.62907   0.00000  Uiso   1.00
H1048  H     0.01936   0.95061   0.59748   0.00000  Uiso   1.00
C1049  C     0.00407   0.79346   0.68793   0.00000  Uiso   1.00
H1050  H     0.01549   0.82172   0.65850   0.00000  Uiso   1.00
H1051  H     0.03498   0.76527   0.67451   0.00000  Uiso   1.00
H1052  H     0.29007   0.77004   0.69073   0.00000  Uiso   1.00
O1053  O     0.30738   0.77699   0.99622   0.00000  Uiso   1.00
C1054  C     0.29894   0.72243   0.99657   0.00000  Uiso   1.00
H1055  H     0.32683   0.71218   0.52193   0.00000  Uiso   1.00
H1056  H     0.31234   0.70437   0.95724   0.00000  Uiso   1.00
C1057  C     0.23035   0.69977   0.51685   0.00000  Uiso   1.00
H1058  H     0.20134   0.70849   0.99172   0.00000  Uiso   1.00
H1059  H     0.22284   0.99020   0.51791   0.00000  Uiso   1.00
H1060  H     0.21559   0.71697   0.55613   0.00000  Uiso   1.00
C1061  C     0.22104   0.92848   0.88446   0.00000  Uiso   1.00
H1062  H     0.25806   0.92066   0.85163   0.00000  Uiso   1.00
H1063  H     0.17702   0.92796   0.87208   0.00000  Uiso   1.00
H1064  H     0.23579   0.96853   0.90176   0.00000  Uiso   1.00
O1065  O     0.24912   0.68678   0.75756   0.00000  Uiso   1.00
C1066  C     0.25662   0.68456   0.80794   0.00000  Uiso   1.00
H1067  H     0.28728   0.99027   0.80710   0.00000  Uiso   1.00
H1068  H     0.21142   0.67378   0.83539   0.00000  Uiso   1.00
C1069  C     0.28865   0.73693   0.82863   0.00000  Uiso   1.00
H1070  H     0.25990   0.76642   0.83110   0.00000  Uiso   1.00
H1071  H     0.29457   0.73241   0.86756   0.00000  Uiso   1.00
H1072  H     0.00158   0.74959   0.80419   0.00000  Uiso   1.00
C1073  C     0.51542   0.93326   0.75101   0.00000  Uiso   1.00
C1074  C     0.47613   0.83420   0.98710   0.00000  Uiso   1.00
C1075  C     0.49050   0.85207   0.93703   0.00000  Uiso   1.00
C1076  C     0.52279   0.84692   0.51768   0.00000  Uiso   1.00
C1077  C     0.58063   0.88020   0.99942   0.00000  Uiso   1.00
C1078  C     0.59229   0.89995   0.95204   0.00000  Uiso   1.00
C1079  C     0.54635   0.88986   0.92301   0.00000  Uiso   1.00
C1080  C     0.51334   0.82909   0.56657   0.00000  Uiso   1.00
C1081  C     0.61030   0.88668   0.58171   0.00000  Uiso   1.00
C1082  C     0.44707   0.83359   0.90399   0.00000  Uiso   1.00
C1083  C     0.52499   0.98937   0.75130   0.00000  Uiso   1.00
C1084  C     0.46669   0.83249   0.84738   0.00000  Uiso   1.00
C1085  C     0.47832   0.67741   0.74550   0.00000  Uiso   1.00
C1086  C     0.48532   0.73333   0.74765   0.00000  Uiso   1.00
C1087  C     0.53398   0.83867   0.65339   0.00000  Uiso   1.00
C1088  C     0.62414   0.89863   0.53080   0.00000  Uiso   1.00
C1089  C     0.55507   0.84986   0.59934   0.00000  Uiso   1.00
C1090  C     0.38566   0.81032   0.92510   0.00000  Uiso   1.00
C1091  C     0.36907   0.79738   0.97568   0.00000  Uiso   1.00
C1092  C     0.41418   0.80795   0.50608   0.00000  Uiso   1.00
Cu1093 Cu    0.44043   0.82772   0.74435   0.00000  Uiso   1.00
Cu1094 Cu    0.55957   0.83895   0.75564   0.00000  Uiso   1.00
H1095  H     0.43351   0.98680   0.74033   0.00000  Uiso   1.00
H1096  H     0.66651   0.86737   0.79487   0.00000  Uiso   1.00
H1097  H     0.63520   0.92813   0.93988   0.00000  Uiso   1.00
H1098  H     0.33365   0.92597   0.51667   0.00000  Uiso   1.00
H1099  H     0.47252   0.80028   0.58091   0.00000  Uiso   1.00
H1100  H     0.35053   0.80132   0.90204   0.00000  Uiso   1.00
H1101  H     0.39823   0.79787   0.54516   0.00000  Uiso   1.00
N1102  N     0.64908   0.84741   0.76416   0.00000  Uiso   1.00
N1103  N     0.35092   0.81926   0.73584   0.00000  Uiso   1.00
O1104  O     0.46131   0.90474   0.74633   0.00000  Uiso   1.00
O1105  O     0.56191   0.91422   0.75586   0.00000  Uiso   1.00
O1106  O     0.42515   0.82627   0.81839   0.00000  Uiso   1.00
O1107  O     0.52575   0.83575   0.82793   0.00000  Uiso   1.00
O1108  O     0.43809   0.75245   0.74413   0.00000  Uiso   1.00
O1109  O     0.53869   0.76193   0.75367   0.00000  Uiso   1.00
O1110  O     0.47425   0.83092   0.67207   0.00000  Uiso   1.00
O1111  O     0.57485   0.84040   0.68160   0.00000  Uiso   1.00
C1112  C     0.65148   0.91801   0.61674   0.00000  Uiso   1.00
H1113  H     0.62283   0.93556   0.65048   0.00000  Uiso   1.00
H1114  H     0.34482   0.89327   0.62907   0.00000  Uiso   1.00
H1115  H     0.35269   0.95061   0.59748   0.00000  Uiso   1.00
C1116  C     0.33740   0.79346   0.68793   0.00000  Uiso   1.00
H1117  H     0.34882   0.82172   0.65850   0.00000  Uiso   1.00
H1118  H     0.36831   0.76527   0.67451   0.00000  Uiso   1.00
H1119  H     0.62341   0.77004   0.69073   0.00000  Uiso   1.00
O1120  O     0.64072   0.77699   0.99622   0.00000  Uiso   1.00
C1121  C     0.63227   0.72243   0.99657   0.00000  Uiso   1.00
H1122  H     0.66016   0.71218   0.52193   0.00000  Uiso   1.00
H1123  H     0.64567   0.70437   0.95724   0.00000  Uiso   1.00
C1124  C     0.56368   0.69977   0.51685   0.00000  Uiso   1.00
H1125  H     0.53467   0.70849   0.99172   0.00000  Uiso   1.00
H1126  H     0.55618   0.99020   0.51791   0.00000  Uiso   1.00
H1127  H     0.54892   0.71697   0.55613   0.00000  Uiso   1.00
C1128  C     0.55437   0.92848   0.88446   0.00000  Uiso   1.00
H1129  H     0.59139   0.92066   0.85163   0.00000  Uiso   1.00
H1130  H     0.51035   0.92796   0.87208   0.00000  Uiso   1.00
H1131  H     0.56913   0.96853   0.90176   0.00000  Uiso   1.00
O1132  O     0.58245   0.68678   0.75756   0.00000  Uiso   1.00
C1133  C     0.58995   0.68456   0.80794   0.00000  Uiso   1.00
H1134  H     0.62062   0.99027   0.80710   0.00000  Uiso   1.00
H1135  H     0.54476   0.67378   0.83539   0.00000  Uiso   1.00
C1136  C     0.62198   0.73693   0.82863   0.00000  Uiso   1.00
H1137  H     0.59323   0.76642   0.83110   0.00000  Uiso   1.00
H1138  H     0.62790   0.73241   0.86756   0.00000  Uiso   1.00
H1139  H     0.33491   0.74959   0.80419   0.00000  Uiso   1.00
C1140  C     0.84875   0.93326   0.75101   0.00000  Uiso   1.00
C1141  C     0.80946   0.83420   0.98710   0.00000  Uiso   1.00
C1142  C     0.82383   0.85207   0.93703   0.00000  Uiso   1.00
C1143  C     0.85613   0.84692   0.51768   0.00000  Uiso   1.00
C1144  C     0.91396   0.88020   0.99942   0.00000  Uiso   1.00
C1145  C     0.92563   0.89995   0.95204   0.00000  Uiso   1.00
C1146  C     0.87968   0.88986   0.92301   0.00000  Uiso   1.00
C1147  C     0.84667   0.82909   0.56657   0.00000  Uiso   1.00
C1148  C     0.94363   0.88668   0.58171   0.00000  Uiso   1.00
C1149  C     0.78041   0.83359   0.90399   0.00000  Uiso   1.00
C1150  C     0.85832   0.98937   0.75130   0.00000  Uiso   1.00
C1151  C     0.80002   0.83249   0.84738   0.00000  Uiso   1.00
C1152  C     0.81166   0.67741   0.74550   0.00000  Uiso   1.00
C1153  C     0.81865   0.73333   0.74765   0.00000  Uiso   1.00
C1154  C     0.86732   0.83867   0.65339   0.00000  Uiso   1.00
C1155  C     0.95747   0.89863   0.53080   0.00000  Uiso   1.00
C1156  C     0.88840   0.84986   0.59934   0.00000  Uiso   1.00
C1157  C     0.71899   0.81032   0.92510   0.00000  Uiso   1.00
C1158  C     0.70241   0.79738   0.97568   0.00000  Uiso   1.00
C1159  C     0.74751   0.80795   0.50608   0.00000  Uiso   1.00
Cu1160 Cu    0.77377   0.82772   0.74435   0.00000  Uiso   1.00
Cu1161 Cu    0.89290   0.83895   0.75564   0.00000  Uiso   1.00
H1162  H     0.76684   0.98680   0.74033   0.00000  Uiso   1.00
H1163  H     0.99984   0.86737   0.79487   0.00000  Uiso   1.00
H1164  H     0.96854   0.92813   0.93988   0.00000  Uiso   1.00
H1165  H     0.66698   0.92597   0.51667   0.00000  Uiso   1.00
H1166  H     0.80585   0.80028   0.58091   0.00000  Uiso   1.00
H1167  H     0.68386   0.80132   0.90204   0.00000  Uiso   1.00
H1168  H     0.73156   0.79787   0.54516   0.00000  Uiso   1.00
N1169  N     0.98241   0.84741   0.76416   0.00000  Uiso   1.00
N1170  N     0.68426   0.81926   0.73584   0.00000  Uiso   1.00
O1171  O     0.79464   0.90474   0.74633   0.00000  Uiso   1.00
O1172  O     0.89524   0.91422   0.75586   0.00000  Uiso   1.00
O1173  O     0.75848   0.82627   0.81839   0.00000  Uiso   1.00
O1174  O     0.85908   0.83575   0.82793   0.00000  Uiso   1.00
O1175  O     0.77142   0.75245   0.74413   0.00000  Uiso   1.00
O1176  O     0.87203   0.76193   0.75367   0.00000  Uiso   1.00
O1177  O     0.80758   0.83092   0.67207   0.00000  Uiso   1.00
O1178  O     0.90819   0.84040   0.68160   0.00000  Uiso   1.00
C1179  C     0.98482   0.91801   0.61674   0.00000  Uiso   1.00
H1180  H     0.95616   0.93556   0.65048   0.00000  Uiso   1.00
H1181  H     0.67816   0.89327   0.62907   0.00000  Uiso   1.00
H1182  H     0.68603   0.95061   0.59748   0.00000  Uiso   1.00
C1183  C     0.67074   0.79346   0.68793   0.00000  Uiso   1.00
H1184  H     0.68215   0.82172   0.65850   0.00000  Uiso   1.00
H1185  H     0.70165   0.76527   0.67451   0.00000  Uiso   1.00
H1186  H     0.95674   0.77004   0.69073   0.00000  Uiso   1.00
O1187  O     0.97405   0.77699   0.99622   0.00000  Uiso   1.00
C1188  C     0.96560   0.72243   0.99657   0.00000  Uiso   1.00
H1189  H     0.99350   0.71218   0.52193   0.00000  Uiso   1.00
H1190  H     0.97900   0.70437   0.95724   0.00000  Uiso   1.00
C1191  C     0.89701   0.69977   0.51685   0.00000  Uiso   1.00
H1192  H     0.86801   0.70849   0.99172   0.00000  Uiso   1.00
H1193  H     0.88951   0.99020   0.51791   0.00000  Uiso   1.00
H1194  H     0.88226   0.71697   0.55613   0.00000  Uiso   1.00
C1195  C     0.88771   0.92848   0.88446   0.00000  Uiso   1.00
H1196  H     0.92473   0.92066   0.85163   0.00000  Uiso   1.00
H1197  H     0.84368   0.92796   0.87208   0.00000  Uiso   1.00
H1198  H     0.90246   0.96853   0.90176   0.00000  Uiso   1.00
O1199  O     0.91578   0.68678   0.75756   0.00000  Uiso   1.00
C1200  C     0.92329   0.68456   0.80794   0.00000  Uiso   1.00
H1201  H     0.95395   0.99027   0.80710   0.00000  Uiso   1.00
H1202  H     0.87809   0.67378   0.83539   0.00000  Uiso   1.00
C1203  C     0.95531   0.73693   0.82863   0.00000  Uiso   1.00
H1204  H     0.92657   0.76642   0.83110   0.00000  Uiso   1.00
H1205  H     0.96123   0.73241   0.86756   0.00000  Uiso   1.00
H1206  H     0.66824   0.74959   0.80419   0.00000  Uiso   1.00
loop_
_geom_bond_atom_site_label_1
_geom_bond_atom_site_label_2
_geom_bond_distance
_geom_bond_site_symmetry_2
_ccdc_geom_bond_type
C1     C11     1.447   .     S
C1     O33     1.294   .     A
C1     O32     1.299   .     A
C2     C3      1.425   .     A
C2     C607    1.429   .     S
C2     C623    1.417   .     S
C3     C7      1.421   .     A
C3     C10     1.429   .     A
C4     C8      1.405   .     A
C4     C605    1.429   1_554 S
C4     C608    1.414   1_554 S
C5     C6      1.383   .     A
C5     C607    1.414   .     S
C5     C619    1.398   .     S
C6     C7      1.388   .     A
C6     H25     1.086   .     S
C7     C56     1.494   .     S
C8     H27     1.078   .     S
C8     C17     1.404   .     A
C9     C40     1.509   .     S
C9     C17     1.417   .     A
C9     C16     1.394   .     A
C10    C12     1.488   .     S
C10    C18     1.397   .     A
C11    C214    1.343   .     S
C11    O261    1.392   .     S
C12    O35     1.301   .     A
C12    O34     1.314   .     A
C13    C14     1.444   .     S
C13    C413    1.343   1_545 S
C13    H425    1.087   1_545 S
C14    O36     1.300   .     A
C14    O37     1.295   .     A
C15    O38     1.302   .     A
C15    O39     1.304   .     A
C15    C17     1.470   .     S
C16    C608    1.398   1_554 S
C16    H93     1.085   .     S
C18    C19     1.392   .     A
C18    H28     1.077   .     S
C19    C623    1.398   .     S
C19    O182    1.381   1_455 S
C20    H29     1.078   .     S
C20    C622    1.398   1_554 S
C20    C605    1.417   1_554 S
Cu21   O36     1.976   .     S
Cu21   Cu22    2.704   .     S
Cu21   N31     2.032   .     S
Cu21   O32     1.977   .     S
Cu21   O34     1.949   .     S
Cu21   O38     1.930   .     S
Cu22   O35     1.930   .     S
Cu22   O39     1.949   .     S
Cu22   N30     2.032   .     S
Cu22   O37     1.977   .     S
Cu22   O33     1.976   .     S
H23    C214    1.087   .     S
H24    N30     1.029   .     S
H26    C150    1.085   1_455 S
N30    N98     1.275   .     S
N31    C44     1.445   .     S
N31    N164    1.275   1_455 S
C40    H41     1.110   .     S
C40    H109    1.102   .     S
C40    H110    1.111   .     S
H42    C174    1.102   1_455 S
H43    C174    1.111   1_455 S
C44    H45     1.101   .     S
C44    H46     1.109   .     S
C44    H181    1.092   1_455 S
H47    C111    1.092   .     S
O48    C49     1.411   .     S
O48    C86     1.381   .     S
C49    H51     1.115   .     S
C49    H653    1.114   .     S
C49    C655    1.521   .     S
H50    C652    1.114   1_554 S
C52    H55     1.111   .     S
C52    C652    1.521   1_554 S
C52    H656    1.111   1_554 S
C52    H456    1.110   1_545 S
H53    C655    1.111   .     S
H54    C253    1.110   .     S
C56    H59     1.112   .     S
C56    H57     1.107   .     S
C56    H58     1.107   .     S
O60    C61     1.412   .     S
O60    C413    1.392   1_545 S
C61    C64     1.510   .     S
C61    H63     1.116   .     S
C61    H464    1.107   1_545 S
H62    C262    1.107   .     S
C64    H65     1.107   .     S
C64    H66     1.108   .     S
C64    H134    1.103   .     S
H67    C198    1.103   1_455 S
C68    C78     1.447   .     S
C68    O100    1.294   .     A
C68    O99     1.299   .     A
C69    C70     1.425   .     A
C69    C674    1.429   .     S
C69    C690    1.417   .     S
C70    C74     1.421   .     A
C70    C77     1.429   .     A
C71    C75     1.405   .     A
C71    C672    1.429   1_554 S
C71    C675    1.414   1_554 S
C72    C73     1.383   .     A
C72    C674    1.414   .     S
C72    C686    1.398   .     S
C73    C74     1.388   .     A
C73    H92     1.086   .     S
C74    C123    1.494   .     S
C75    H94     1.078   .     S
C75    C84     1.404   .     A
C76    C107    1.509   .     S
C76    C84     1.417   .     A
C76    C83     1.394   .     A
C77    C79     1.488   .     S
C77    C85     1.397   .     A
C78    C281    1.343   .     S
C78    O328    1.392   .     S
C79    O102    1.301   .     A
C79    O101    1.314   .     A
C80    C81     1.444   .     S
C80    C480    1.343   1_545 S
C80    H492    1.087   1_545 S
C81    O103    1.300   .     A
C81    O104    1.295   .     A
C82    O105    1.302   .     A
C82    O106    1.304   .     A
C82    C84     1.470   .     S
C83    C675    1.398   1_554 S
C83    H160    1.085   .     S
C85    C86     1.392   .     A
C85    H95     1.077   .     S
C86    C690    1.398   .     S
C87    H96     1.078   .     S
C87    C689    1.398   1_554 S
C87    C672    1.417   1_554 S
Cu88   O103    1.976   .     S
Cu88   Cu89    2.704   .     S
Cu88   N98     2.032   .     S
Cu88   O99     1.977   .     S
Cu88   O101    1.949   .     S
Cu88   O105    1.930   .     S
Cu89   O102    1.930   .     S
Cu89   O106    1.949   .     S
Cu89   N97     2.032   .     S
Cu89   O104    1.977   .     S
Cu89   O100    1.976   .     S
H90    C281    1.087   .     S
H91    N97     1.029   .     S
N97    N165    1.275   .     S
N98    C111    1.445   .     S
C107   H108    1.110   .     S
C107   H176    1.102   .     S
C107   H177    1.111   .     S
C111   H112    1.101   .     S
C111   H113    1.109   .     S
H114   C178    1.092   .     S
O115   C116    1.411   .     S
O115   C153    1.381   .     S
C116   H118    1.115   .     S
C116   H720    1.114   .     S
C116   C722    1.521   .     S
H117   C719    1.114   1_554 S
C119   H122    1.111   .     S
C119   C719    1.521   1_554 S
C119   H723    1.111   1_554 S
C119   H523    1.110   1_545 S
H120   C722    1.111   .     S
H121   C320    1.110   .     S
C123   H126    1.112   .     S
C123   H124    1.107   .     S
C123   H125    1.107   .     S
O127   C128    1.412   .     S
O127   C480    1.392   1_545 S
C128   C131    1.510   .     S
C128   H130    1.116   .     S
C128   H531    1.107   1_545 S
H129   C329    1.107   .     S
C131   H132    1.107   .     S
C131   H133    1.108   .     S
C131   H201    1.103   .     S
C135   C145    1.447   .     S
C135   O167    1.294   .     A
C135   O166    1.299   .     A
C136   C137    1.425   .     A
C136   C741    1.429   .     S
C136   C757    1.417   .     S
C137   C141    1.421   .     A
C137   C144    1.429   .     A
C138   C142    1.405   .     A
C138   C739    1.429   1_554 S
C138   C742    1.414   1_554 S
C139   C140    1.383   .     A
C139   C741    1.414   .     S
C139   C753    1.398   .     S
C140   C141    1.388   .     A
C140   H159    1.086   .     S
C141   C190    1.494   .     S
C142   H161    1.078   .     S
C142   C151    1.404   .     A
C143   C174    1.509   .     S
C143   C151    1.417   .     A
C143   C150    1.394   .     A
C144   C146    1.488   .     S
C144   C152    1.397   .     A
C145   C348    1.343   .     S
C145   O395    1.392   .     S
C146   O169    1.301   .     A
C146   O168    1.314   .     A
C147   C148    1.444   .     S
C147   C547    1.343   1_545 S
C147   H559    1.087   1_545 S
C148   O170    1.300   .     A
C148   O171    1.295   .     A
C149   O172    1.302   .     A
C149   O173    1.304   .     A
C149   C151    1.470   .     S
C150   C742    1.398   1_554 S
C150   H26     1.085   1_655 S
C152   C153    1.392   .     A
C152   H162    1.077   .     S
C153   C757    1.398   .     S
C154   H163    1.078   .     S
C154   C756    1.398   1_554 S
C154   C739    1.417   1_554 S
Cu155  O170    1.976   .     S
Cu155  Cu156   2.704   .     S
Cu155  N165    2.032   .     S
Cu155  O166    1.977   .     S
Cu155  O168    1.949   .     S
Cu155  O172    1.930   .     S
Cu156  O169    1.930   .     S
Cu156  O173    1.949   .     S
Cu156  N164    2.032   .     S
Cu156  O171    1.977   .     S
Cu156  O167    1.976   .     S
H157   C348    1.087   .     S
H158   N164    1.029   .     S
N164   N31     1.275   1_655 S
N165   C178    1.445   .     S
C174   H175    1.110   .     S
C174   H42     1.102   1_655 S
C174   H43     1.111   1_655 S
C178   H179    1.101   .     S
C178   H180    1.109   .     S
H181   C44     1.092   1_655 S
O182   C183    1.411   .     S
O182   C19     1.381   1_655 S
C183   H185    1.115   .     S
C183   H787    1.114   .     S
C183   C789    1.521   .     S
H184   C786    1.114   1_554 S
C186   H189    1.111   .     S
C186   C786    1.521   1_554 S
C186   H790    1.111   1_554 S
C186   H590    1.110   1_545 S
H187   C789    1.111   .     S
H188   C387    1.110   .     S
C190   H193    1.112   .     S
C190   H191    1.107   .     S
C190   H192    1.107   .     S
O194   C195    1.412   .     S
O194   C547    1.392   1_545 S
C195   C198    1.510   .     S
C195   H197    1.116   .     S
C195   H598    1.107   1_545 S
H196   C396    1.107   .     S
C198   H199    1.107   .     S
C198   H200    1.108   .     S
C198   H67     1.103   1_655 S
C202   C212    1.447   .     S
C202   O234    1.294   .     A
C202   O233    1.299   .     A
C203   C204    1.425   .     A
C203   C808    1.429   .     S
C203   C824    1.417   .     S
C204   C208    1.421   .     A
C204   C211    1.429   .     A
C205   C209    1.405   .     A
C205   C806    1.429   1_554 S
C205   C809    1.414   1_554 S
C206   C207    1.383   .     A
C206   C808    1.414   .     S
C206   C820    1.398   .     S
C207   C208    1.388   .     A
C207   H226    1.086   .     S
C208   C257    1.494   .     S
C209   H228    1.078   .     S
C209   C218    1.404   .     A
C210   C241    1.509   .     S
C210   C218    1.417   .     A
C210   C217    1.394   .     A
C211   C213    1.488   .     S
C211   C219    1.397   .     A
C212   C415    1.343   .     S
C212   O462    1.392   .     S
C213   O236    1.301   .     A
C213   O235    1.314   .     A
C214   C215    1.444   .     S
C215   O237    1.300   .     A
C215   O238    1.295   .     A
C216   O239    1.302   .     A
C216   O240    1.304   .     A
C216   C218    1.470   .     S
C217   C809    1.398   1_554 S
C217   H294    1.085   .     S
C219   C220    1.392   .     A
C219   H229    1.077   .     S
C220   C824    1.398   .     S
C220   O383    1.381   1_455 S
C221   H230    1.078   .     S
C221   C823    1.398   1_554 S
C221   C806    1.417   1_554 S
Cu222  O237    1.976   .     S
Cu222  Cu223   2.704   .     S
Cu222  N232    2.032   .     S
Cu222  O233    1.977   .     S
Cu222  O235    1.949   .     S
Cu222  O239    1.930   .     S
Cu223  O236    1.930   .     S
Cu223  O240    1.949   .     S
Cu223  N231    2.032   .     S
Cu223  O238    1.977   .     S
Cu223  O234    1.976   .     S
H224   C415    1.087   .     S
H225   N231    1.029   .     S
H227   C351    1.085   1_455 S
N231   N299    1.275   .     S
N232   C245    1.445   .     S
N232   N365    1.275   1_455 S
C241   H242    1.110   .     S
C241   H310    1.102   .     S
C241   H311    1.111   .     S
H243   C375    1.102   1_455 S
H244   C375    1.111   1_455 S
C245   H246    1.101   .     S
C245   H247    1.109   .     S
C245   H382    1.092   1_455 S
H248   C312    1.092   .     S
O249   C250    1.411   .     S
O249   C287    1.381   .     S
C250   H252    1.115   .     S
C250   H854    1.114   .     S
C250   C856    1.521   .     S
H251   C853    1.114   1_554 S
C253   H256    1.111   .     S
C253   C853    1.521   1_554 S
C253   H857    1.111   1_554 S
H254   C856    1.111   .     S
H255   C454    1.110   .     S
C257   H260    1.112   .     S
C257   H258    1.107   .     S
C257   H259    1.107   .     S
O261   C262    1.412   .     S
C262   C265    1.510   .     S
C262   H264    1.116   .     S
H263   C463    1.107   .     S
C265   H266    1.107   .     S
C265   H267    1.108   .     S
C265   H335    1.103   .     S
H268   C399    1.103   1_455 S
C269   C279    1.447   .     S
C269   O301    1.294   .     A
C269   O300    1.299   .     A
C270   C271    1.425   .     A
C270   C875    1.429   .     S
C270   C891    1.417   .     S
C271   C275    1.421   .     A
C271   C278    1.429   .     A
C272   C276    1.405   .     A
C272   C873    1.429   1_554 S
C272   C876    1.414   1_554 S
C273   C274    1.383   .     A
C273   C875    1.414   .     S
C273   C887    1.398   .     S
C274   C275    1.388   .     A
C274   H293    1.086   .     S
C275   C324    1.494   .     S
C276   H295    1.078   .     S
C276   C285    1.404   .     A
C277   C308    1.509   .     S
C277   C285    1.417   .     A
C277   C284    1.394   .     A
C278   C280    1.488   .     S
C278   C286    1.397   .     A
C279   C482    1.343   .     S
C279   O529    1.392   .     S
C280   O303    1.301   .     A
C280   O302    1.314   .     A
C281   C282    1.444   .     S
C282   O304    1.300   .     A
C282   O305    1.295   .     A
C283   O306    1.302   .     A
C283   O307    1.304   .     A
C283   C285    1.470   .     S
C284   C876    1.398   1_554 S
C284   H361    1.085   .     S
C286   C287    1.392   .     A
C286   H296    1.077   .     S
C287   C891    1.398   .     S
C288   H297    1.078   .     S
C288   C890    1.398   1_554 S
C288   C873    1.417   1_554 S
Cu289  O304    1.976   .     S
Cu289  Cu290   2.704   .     S
Cu289  N299    2.032   .     S
Cu289  O300    1.977   .     S
Cu289  O302    1.949   .     S
Cu289  O306    1.930   .     S
Cu290  O303    1.930   .     S
Cu290  O307    1.949   .     S
Cu290  N298    2.032   .     S
Cu290  O305    1.977   .     S
Cu290  O301    1.976   .     S
H291   C482    1.087   .     S
H292   N298    1.029   .     S
N298   N366    1.275   .     S
N299   C312    1.445   .     S
C308   H309    1.110   .     S
C308   H377    1.102   .     S
C308   H378    1.111   .     S
C312   H313    1.101   .     S
C312   H314    1.109   .     S
H315   C379    1.092   .     S
O316   C317    1.411   .     S
O316   C354    1.381   .     S
C317   H319    1.115   .     S
C317   H921    1.114   .     S
C317   C923    1.521   .     S
H318   C920    1.114   1_554 S
C320   H323    1.111   .     S
C320   C920    1.521   1_554 S
C320   H924    1.111   1_554 S
H321   C923    1.111   .     S
H322   C521    1.110   .     S
C324   H327    1.112   .     S
C324   H325    1.107   .     S
C324   H326    1.107   .     S
O328   C329    1.412   .     S
C329   C332    1.510   .     S
C329   H331    1.116   .     S
H330   C530    1.107   .     S
C332   H333    1.107   .     S
C332   H334    1.108   .     S
C332   H402    1.103   .     S
C336   C346    1.447   .     S
C336   O368    1.294   .     A
C336   O367    1.299   .     A
C337   C338    1.425   .     A
C337   C942    1.429   .     S
C337   C958    1.417   .     S
C338   C342    1.421   .     A
C338   C345    1.429   .     A
C339   C343    1.405   .     A
C339   C940    1.429   1_554 S
C339   C943    1.414   1_554 S
C340   C341    1.383   .     A
C340   C942    1.414   .     S
C340   C954    1.398   .     S
C341   C342    1.388   .     A
C341   H360    1.086   .     S
C342   C391    1.494   .     S
C343   H362    1.078   .     S
C343   C352    1.404   .     A
C344   C375    1.509   .     S
C344   C352    1.417   .     A
C344   C351    1.394   .     A
C345   C347    1.488   .     S
C345   C353    1.397   .     A
C346   C549    1.343   .     S
C346   O596    1.392   .     S
C347   O370    1.301   .     A
C347   O369    1.314   .     A
C348   C349    1.444   .     S
C349   O371    1.300   .     A
C349   O372    1.295   .     A
C350   O373    1.302   .     A
C350   O374    1.304   .     A
C350   C352    1.470   .     S
C351   C943    1.398   1_554 S
C351   H227    1.085   1_655 S
C353   C354    1.392   .     A
C353   H363    1.077   .     S
C354   C958    1.398   .     S
C355   H364    1.078   .     S
C355   C957    1.398   1_554 S
C355   C940    1.417   1_554 S
Cu356  O371    1.976   .     S
Cu356  Cu357   2.704   .     S
Cu356  N366    2.032   .     S
Cu356  O367    1.977   .     S
Cu356  O369    1.949   .     S
Cu356  O373    1.930   .     S
Cu357  O370    1.930   .     S
Cu357  O374    1.949   .     S
Cu357  N365    2.032   .     S
Cu357  O372    1.977   .     S
Cu357  O368    1.976   .     S
H358   C549    1.087   .     S
H359   N365    1.029   .     S
N365   N232    1.275   1_655 S
N366   C379    1.445   .     S
C375   H376    1.110   .     S
C375   H243    1.102   1_655 S
C375   H244    1.111   1_655 S
C379   H380    1.101   .     S
C379   H381    1.109   .     S
H382   C245    1.092   1_655 S
O383   C384    1.411   .     S
O383   C220    1.381   1_655 S
C384   H386    1.115   .     S
C384   H988    1.114   .     S
C384   C990    1.521   .     S
H385   C987    1.114   1_554 S
C387   H390    1.111   .     S
C387   C987    1.521   1_554 S
C387   H991    1.111   1_554 S
H388   C990    1.111   .     S
H389   C588    1.110   .     S
C391   H394    1.112   .     S
C391   H392    1.107   .     S
C391   H393    1.107   .     S
O395   C396    1.412   .     S
C396   C399    1.510   .     S
C396   H398    1.116   .     S
H397   C597    1.107   .     S
C399   H400    1.107   .     S
C399   H401    1.108   .     S
C399   H268    1.103   1_655 S
C403   C413    1.447   .     S
C403   O435    1.294   .     A
C403   O434    1.299   .     A
C404   C405    1.425   .     A
C404   C1009   1.429   .     S
C404   C1025   1.417   .     S
C405   C409    1.421   .     A
C405   C412    1.429   .     A
C406   C410    1.405   .     A
C406   C1007   1.429   1_554 S
C406   C1010   1.414   1_554 S
C407   C408    1.383   .     A
C407   C1009   1.414   .     S
C407   C1021   1.398   .     S
C408   C409    1.388   .     A
C408   H427    1.086   .     S
C409   C458    1.494   .     S
C410   H429    1.078   .     S
C410   C419    1.404   .     A
C411   C442    1.509   .     S
C411   C419    1.417   .     A
C411   C418    1.394   .     A
C412   C414    1.488   .     S
C412   C420    1.397   .     A
C413   C13     1.343   1_565 S
C413   O60     1.392   1_565 S
C414   O437    1.301   .     A
C414   O436    1.314   .     A
C415   C416    1.444   .     S
C416   O438    1.300   .     A
C416   O439    1.295   .     A
C417   O440    1.302   .     A
C417   O441    1.304   .     A
C417   C419    1.470   .     S
C418   C1010   1.398   1_554 S
C418   H495    1.085   .     S
C420   C421    1.392   .     A
C420   H430    1.077   .     S
C421   C1025   1.398   .     S
C421   O584    1.381   1_455 S
C422   H431    1.078   .     S
C422   C1024   1.398   1_554 S
C422   C1007   1.417   1_554 S
Cu423  O438    1.976   .     S
Cu423  Cu424   2.704   .     S
Cu423  N433    2.032   .     S
Cu423  O434    1.977   .     S
Cu423  O436    1.949   .     S
Cu423  O440    1.930   .     S
Cu424  O437    1.930   .     S
Cu424  O441    1.949   .     S
Cu424  N432    2.032   .     S
Cu424  O439    1.977   .     S
Cu424  O435    1.976   .     S
H425   C13     1.087   1_565 S
H426   N432    1.029   .     S
H428   C552    1.085   1_455 S
N432   N500    1.275   .     S
N433   C446    1.445   .     S
N433   N566    1.275   1_455 S
C442   H443    1.110   .     S
C442   H511    1.102   .     S
C442   H512    1.111   .     S
H444   C576    1.102   1_455 S
H445   C576    1.111   1_455 S
C446   H447    1.101   .     S
C446   H448    1.109   .     S
C446   H583    1.092   1_455 S
H449   C513    1.092   .     S
O450   C451    1.411   .     S
O450   C488    1.381   .     S
C451   H453    1.115   .     S
C451   H1055   1.114   .     S
C451   C1057   1.521   .     S
H452   C1054   1.114   1_554 S
C454   H457    1.111   .     S
C454   C1054   1.521   1_554 S
C454   H1058   1.111   1_554 S
H455   C1057   1.111   .     S
H456   C52     1.110   1_565 S
C458   H461    1.112   .     S
C458   H459    1.107   .     S
C458   H460    1.107   .     S
O462   C463    1.412   .     S
C463   C466    1.510   .     S
C463   H465    1.116   .     S
H464   C61     1.107   1_565 S
C466   H467    1.107   .     S
C466   H468    1.108   .     S
C466   H536    1.103   .     S
H469   C600    1.103   1_455 S
C470   C480    1.447   .     S
C470   O502    1.294   .     A
C470   O501    1.299   .     A
C471   C472    1.425   .     A
C471   C1076   1.429   .     S
C471   C1092   1.417   .     S
C472   C476    1.421   .     A
C472   C479    1.429   .     A
C473   C477    1.405   .     A
C473   C1074   1.429   1_554 S
C473   C1077   1.414   1_554 S
C474   C475    1.383   .     A
C474   C1076   1.414   .     S
C474   C1088   1.398   .     S
C475   C476    1.388   .     A
C475   H494    1.086   .     S
C476   C525    1.494   .     S
C477   H496    1.078   .     S
C477   C486    1.404   .     A
C478   C509    1.509   .     S
C478   C486    1.417   .     A
C478   C485    1.394   .     A
C479   C481    1.488   .     S
C479   C487    1.397   .     A
C480   C80     1.343   1_565 S
C480   O127    1.392   1_565 S
C481   O504    1.301   .     A
C481   O503    1.314   .     A
C482   C483    1.444   .     S
C483   O505    1.300   .     A
C483   O506    1.295   .     A
C484   O507    1.302   .     A
C484   O508    1.304   .     A
C484   C486    1.470   .     S
C485   C1077   1.398   1_554 S
C485   H562    1.085   .     S
C487   C488    1.392   .     A
C487   H497    1.077   .     S
C488   C1092   1.398   .     S
C489   H498    1.078   .     S
C489   C1091   1.398   1_554 S
C489   C1074   1.417   1_554 S
Cu490  O505    1.976   .     S
Cu490  Cu491   2.704   .     S
Cu490  N500    2.032   .     S
Cu490  O501    1.977   .     S
Cu490  O503    1.949   .     S
Cu490  O507    1.930   .     S
Cu491  O504    1.930   .     S
Cu491  O508    1.949   .     S
Cu491  N499    2.032   .     S
Cu491  O506    1.977   .     S
Cu491  O502    1.976   .     S
H492   C80     1.087   1_565 S
H493   N499    1.029   .     S
N499   N567    1.275   .     S
N500   C513    1.445   .     S
C509   H510    1.110   .     S
C509   H578    1.102   .     S
C509   H579    1.111   .     S
C513   H514    1.101   .     S
C513   H515    1.109   .     S
H516   C580    1.092   .     S
O517   C518    1.411   .     S
O517   C555    1.381   .     S
C518   H520    1.115   .     S
C518   H1122   1.114   .     S
C518   C1124   1.521   .     S
H519   C1121   1.114   1_554 S
C521   H524    1.111   .     S
C521   C1121   1.521   1_554 S
C521   H1125   1.111   1_554 S
H522   C1124   1.111   .     S
H523   C119    1.110   1_565 S
C525   H528    1.112   .     S
C525   H526    1.107   .     S
C525   H527    1.107   .     S
O529   C530    1.412   .     S
C530   C533    1.510   .     S
C530   H532    1.116   .     S
H531   C128    1.107   1_565 S
C533   H534    1.107   .     S
C533   H535    1.108   .     S
C533   H603    1.103   .     S
C537   C547    1.447   .     S
C537   O569    1.294   .     A
C537   O568    1.299   .     A
C538   C539    1.425   .     A
C538   C1143   1.429   .     S
C538   C1159   1.417   .     S
C539   C543    1.421   .     A
C539   C546    1.429   .     A
C540   C544    1.405   .     A
C540   C1141   1.429   1_554 S
C540   C1144   1.414   1_554 S
C541   C542    1.383   .     A
C541   C1143   1.414   .     S
C541   C1155   1.398   .     S
C542   C543    1.388   .     A
C542   H561    1.086   .     S
C543   C592    1.494   .     S
C544   H563    1.078   .     S
C544   C553    1.404   .     A
C545   C576    1.509   .     S
C545   C553    1.417   .     A
C545   C552    1.394   .     A
C546   C548    1.488   .     S
C546   C554    1.397   .     A
C547   C147    1.343   1_565 S
C547   O194    1.392   1_565 S
C548   O571    1.301   .     A
C548   O570    1.314   .     A
C549   C550    1.444   .     S
C550   O572    1.300   .     A
C550   O573    1.295   .     A
C551   O574    1.302   .     A
C551   O575    1.304   .     A
C551   C553    1.470   .     S
C552   C1144   1.398   1_554 S
C552   H428    1.085   1_655 S
C554   C555    1.392   .     A
C554   H564    1.077   .     S
C555   C1159   1.398   .     S
C556   H565    1.078   .     S
C556   C1158   1.398   1_554 S
C556   C1141   1.417   1_554 S
Cu557  O572    1.976   .     S
Cu557  Cu558   2.704   .     S
Cu557  N567    2.032   .     S
Cu557  O568    1.977   .     S
Cu557  O570    1.949   .     S
Cu557  O574    1.930   .     S
Cu558  O571    1.930   .     S
Cu558  O575    1.949   .     S
Cu558  N566    2.032   .     S
Cu558  O573    1.977   .     S
Cu558  O569    1.976   .     S
H559   C147    1.087   1_565 S
H560   N566    1.029   .     S
N566   N433    1.275   1_655 S
N567   C580    1.445   .     S
C576   H577    1.110   .     S
C576   H444    1.102   1_655 S
C576   H445    1.111   1_655 S
C580   H581    1.101   .     S
C580   H582    1.109   .     S
H583   C446    1.092   1_655 S
O584   C585    1.411   .     S
O584   C421    1.381   1_655 S
C585   H587    1.115   .     S
C585   H1189   1.114   .     S
C585   C1191   1.521   .     S
H586   C1188   1.114   1_554 S
C588   H591    1.111   .     S
C588   C1188   1.521   1_554 S
C588   H1192   1.111   1_554 S
H589   C1191   1.111   .     S
H590   C186    1.110   1_565 S
C592   H595    1.112   .     S
C592   H593    1.107   .     S
C592   H594    1.107   .     S
O596   C597    1.412   .     S
C597   C600    1.510   .     S
C597   H599    1.116   .     S
H598   C195    1.107   1_565 S
C600   H601    1.107   .     S
C600   H602    1.108   .     S
C600   H469    1.103   1_655 S
C604   C614    1.447   .     S
C604   O636    1.294   .     A
C604   O635    1.299   .     A
C605   C606    1.425   .     A
C605   C4      1.429   1_556 S
C605   C20     1.417   1_556 S
C606   C610    1.421   .     A
C606   C613    1.429   .     A
C607   C611    1.405   .     A
C608   C609    1.383   .     A
C608   C4      1.414   1_556 S
C608   C16     1.398   1_556 S
C609   C610    1.388   .     A
C609   H628    1.086   .     S
C610   C659    1.494   .     S
C611   H630    1.078   .     S
C611   C620    1.404   .     A
C612   C643    1.509   .     S
C612   C620    1.417   .     A
C612   C619    1.394   .     A
C613   C615    1.488   .     S
C613   C621    1.397   .     A
C614   C817    1.343   .     S
C614   O864    1.392   .     S
C615   O638    1.301   .     A
C615   O637    1.314   .     A
C616   C617    1.444   .     S
C616   C1016   1.343   1_545 S
C616   H1028   1.087   1_545 S
C617   O639    1.300   .     A
C617   O640    1.295   .     A
C618   O641    1.302   .     A
C618   O642    1.304   .     A
C618   C620    1.470   .     S
C619   H696    1.085   .     S
C621   C622    1.392   .     A
C621   H631    1.077   .     S
C622   C20     1.398   1_556 S
C622   O785    1.381   1_455 S
C623   H632    1.078   .     S
Cu624  O639    1.976   .     S
Cu624  Cu625   2.704   .     S
Cu624  N634    2.032   .     S
Cu624  O635    1.977   .     S
Cu624  O637    1.949   .     S
Cu624  O641    1.930   .     S
Cu625  O638    1.930   .     S
Cu625  O642    1.949   .     S
Cu625  N633    2.032   .     S
Cu625  O640    1.977   .     S
Cu625  O636    1.976   .     S
H626   C817    1.087   .     S
H627   N633    1.029   .     S
H629   C753    1.085   1_455 S
N633   N701    1.275   .     S
N634   C647    1.445   .     S
N634   N767    1.275   1_455 S
C643   H644    1.110   .     S
C643   H712    1.102   .     S
C643   H713    1.111   .     S
H645   C777    1.102   1_455 S
H646   C777    1.111   1_455 S
C647   H648    1.101   .     S
C647   H649    1.109   .     S
C647   H784    1.092   1_455 S
H650   C714    1.092   .     S
O651   C652    1.411   .     S
O651   C689    1.381   .     S
C652   H654    1.115   .     S
C652   H50     1.114   1_556 S
C652   C52     1.521   1_556 S
C655   H658    1.111   .     S
C655   H1059   1.110   1_545 S
H656   C52     1.111   1_556 S
H657   C856    1.110   .     S
C659   H662    1.112   .     S
C659   H660    1.107   .     S
C659   H661    1.107   .     S
O663   C664    1.412   .     S
O663   C1016   1.392   1_545 S
C664   C667    1.510   .     S
C664   H666    1.116   .     S
C664   H1067   1.107   1_545 S
H665   C865    1.107   .     S
C667   H668    1.107   .     S
C667   H669    1.108   .     S
C667   H737    1.103   .     S
H670   C801    1.103   1_455 S
C671   C681    1.447   .     S
C671   O703    1.294   .     A
C671   O702    1.299   .     A
C672   C673    1.425   .     A
C672   C71     1.429   1_556 S
C672   C87     1.417   1_556 S
C673   C677    1.421   .     A
C673   C680    1.429   .     A
C674   C678    1.405   .     A
C675   C676    1.383   .     A
C675   C71     1.414   1_556 S
C675   C83     1.398   1_556 S
C676   C677    1.388   .     A
C676   H695    1.086   .     S
C677   C726    1.494   .     S
C678   H697    1.078   .     S
C678   C687    1.404   .     A
C679   C710    1.509   .     S
C679   C687    1.417   .     A
C679   C686    1.394   .     A
C680   C682    1.488   .     S
C680   C688    1.397   .     A
C681   C884    1.343   .     S
C681   O931    1.392   .     S
C682   O705    1.301   .     A
C682   O704    1.314   .     A
C683   C684    1.444   .     S
C683   C1083   1.343   1_545 S
C683   H1095   1.087   1_545 S
C684   O706    1.300   .     A
C684   O707    1.295   .     A
C685   O708    1.302   .     A
C685   O709    1.304   .     A
C685   C687    1.470   .     S
C686   H763    1.085   .     S
C688   C689    1.392   .     A
C688   H698    1.077   .     S
C689   C87     1.398   1_556 S
C690   H699    1.078   .     S
Cu691  O706    1.976   .     S
Cu691  Cu692   2.704   .     S
Cu691  N701    2.032   .     S
Cu691  O702    1.977   .     S
Cu691  O704    1.949   .     S
Cu691  O708    1.930   .     S
Cu692  O705    1.930   .     S
Cu692  O709    1.949   .     S
Cu692  N700    2.032   .     S
Cu692  O707    1.977   .     S
Cu692  O703    1.976   .     S
H693   C884    1.087   .     S
H694   N700    1.029   .     S
N700   N768    1.275   .     S
N701   C714    1.445   .     S
C710   H711    1.110   .     S
C710   H779    1.102   .     S
C710   H780    1.111   .     S
C714   H715    1.101   .     S
C714   H716    1.109   .     S
H717   C781    1.092   .     S
O718   C719    1.411   .     S
O718   C756    1.381   .     S
C719   H721    1.115   .     S
C719   H117    1.114   1_556 S
C719   C119    1.521   1_556 S
C722   H725    1.111   .     S
C722   H1126   1.110   1_545 S
H723   C119    1.111   1_556 S
H724   C923    1.110   .     S
C726   H729    1.112   .     S
C726   H727    1.107   .     S
C726   H728    1.107   .     S
O730   C731    1.412   .     S
O730   C1083   1.392   1_545 S
C731   C734    1.510   .     S
C731   H733    1.116   .     S
C731   H1134   1.107   1_545 S
H732   C932    1.107   .     S
C734   H735    1.107   .     S
C734   H736    1.108   .     S
C734   H804    1.103   .     S
C738   C748    1.447   .     S
C738   O770    1.294   .     A
C738   O769    1.299   .     A
C739   C740    1.425   .     A
C739   C138    1.429   1_556 S
C739   C154    1.417   1_556 S
C740   C744    1.421   .     A
C740   C747    1.429   .     A
C741   C745    1.405   .     A
C742   C743    1.383   .     A
C742   C138    1.414   1_556 S
C742   C150    1.398   1_556 S
C743   C744    1.388   .     A
C743   H762    1.086   .     S
C744   C793    1.494   .     S
C745   H764    1.078   .     S
C745   C754    1.404   .     A
C746   C777    1.509   .     S
C746   C754    1.417   .     A
C746   C753    1.394   .     A
C747   C749    1.488   .     S
C747   C755    1.397   .     A
C748   C951    1.343   .     S
C748   O998    1.392   .     S
C749   O772    1.301   .     A
C749   O771    1.314   .     A
C750   C751    1.444   .     S
C750   C1150   1.343   1_545 S
C750   H1162   1.087   1_545 S
C751   O773    1.300   .     A
C751   O774    1.295   .     A
C752   O775    1.302   .     A
C752   O776    1.304   .     A
C752   C754    1.470   .     S
C753   H629    1.085   1_655 S
C755   C756    1.392   .     A
C755   H765    1.077   .     S
C756   C154    1.398   1_556 S
C757   H766    1.078   .     S
Cu758  O773    1.976   .     S
Cu758  Cu759   2.704   .     S
Cu758  N768    2.032   .     S
Cu758  O769    1.977   .     S
Cu758  O771    1.949   .     S
Cu758  O775    1.930   .     S
Cu759  O772    1.930   .     S
Cu759  O776    1.949   .     S
Cu759  N767    2.032   .     S
Cu759  O774    1.977   .     S
Cu759  O770    1.976   .     S
H760   C951    1.087   .     S
H761   N767    1.029   .     S
N767   N634    1.275   1_655 S
N768   C781    1.445   .     S
C777   H778    1.110   .     S
C777   H645    1.102   1_655 S
C777   H646    1.111   1_655 S
C781   H782    1.101   .     S
C781   H783    1.109   .     S
H784   C647    1.092   1_655 S
O785   C786    1.411   .     S
O785   C622    1.381   1_655 S
C786   H788    1.115   .     S
C786   H184    1.114   1_556 S
C786   C186    1.521   1_556 S
C789   H792    1.111   .     S
C789   H1193   1.110   1_545 S
H790   C186    1.111   1_556 S
H791   C990    1.110   .     S
C793   H796    1.112   .     S
C793   H794    1.107   .     S
C793   H795    1.107   .     S
O797   C798    1.412   .     S
O797   C1150   1.392   1_545 S
C798   C801    1.510   .     S
C798   H800    1.116   .     S
C798   H1201   1.107   1_545 S
H799   C999    1.107   .     S
C801   H802    1.107   .     S
C801   H803    1.108   .     S
C801   H670    1.103   1_655 S
C805   C815    1.447   .     S
C805   O837    1.294   .     A
C805   O836    1.299   .     A
C806   C807    1.425   .     A
C806   C205    1.429   1_556 S
C806   C221    1.417   1_556 S
C807   C811    1.421   .     A
C807   C814    1.429   .     A
C808   C812    1.405   .     A
C809   C810    1.383   .     A
C809   C205    1.414   1_556 S
C809   C217    1.398   1_556 S
C810   C811    1.388   .     A
C810   H829    1.086   .     S
C811   C860    1.494   .     S
C812   H831    1.078   .     S
C812   C821    1.404   .     A
C813   C844    1.509   .     S
C813   C821    1.417   .     A
C813   C820    1.394   .     A
C814   C816    1.488   .     S
C814   C822    1.397   .     A
C815   C1018   1.343   .     S
C815   O1065   1.392   .     S
C816   O839    1.301   .     A
C816   O838    1.314   .     A
C817   C818    1.444   .     S
C818   O840    1.300   .     A
C818   O841    1.295   .     A
C819   O842    1.302   .     A
C819   O843    1.304   .     A
C819   C821    1.470   .     S
C820   H897    1.085   .     S
C822   C823    1.392   .     A
C822   H832    1.077   .     S
C823   C221    1.398   1_556 S
C823   O986    1.381   1_455 S
C824   H833    1.078   .     S
Cu825  O840    1.976   .     S
Cu825  Cu826   2.704   .     S
Cu825  N835    2.032   .     S
Cu825  O836    1.977   .     S
Cu825  O838    1.949   .     S
Cu825  O842    1.930   .     S
Cu826  O839    1.930   .     S
Cu826  O843    1.949   .     S
Cu826  N834    2.032   .     S
Cu826  O841    1.977   .     S
Cu826  O837    1.976   .     S
H827   C1018   1.087   .     S
H828   N834    1.029   .     S
H830   C954    1.085   1_455 S
N834   N902    1.275   .     S
N835   C848    1.445   .     S
N835   N968    1.275   1_455 S
C844   H845    1.110   .     S
C844   H913    1.102   .     S
C844   H914    1.111   .     S
H846   C978    1.102   1_455 S
H847   C978    1.111   1_455 S
C848   H849    1.101   .     S
C848   H850    1.109   .     S
C848   H985    1.092   1_455 S
H851   C915    1.092   .     S
O852   C853    1.411   .     S
O852   C890    1.381   .     S
C853   H855    1.115   .     S
C853   H251    1.114   1_556 S
C853   C253    1.521   1_556 S
C856   H859    1.111   .     S
H857   C253    1.111   1_556 S
H858   C1057   1.110   .     S
C860   H863    1.112   .     S
C860   H861    1.107   .     S
C860   H862    1.107   .     S
O864   C865    1.412   .     S
C865   C868    1.510   .     S
C865   H867    1.116   .     S
H866   C1066   1.107   .     S
C868   H869    1.107   .     S
C868   H870    1.108   .     S
C868   H938    1.103   .     S
H871   C1002   1.103   1_455 S
C872   C882    1.447   .     S
C872   O904    1.294   .     A
C872   O903    1.299   .     A
C873   C874    1.425   .     A
C873   C272    1.429   1_556 S
C873   C288    1.417   1_556 S
C874   C878    1.421   .     A
C874   C881    1.429   .     A
C875   C879    1.405   .     A
C876   C877    1.383   .     A
C876   C272    1.414   1_556 S
C876   C284    1.398   1_556 S
C877   C878    1.388   .     A
C877   H896    1.086   .     S
C878   C927    1.494   .     S
C879   H898    1.078   .     S
C879   C888    1.404   .     A
C880   C911    1.509   .     S
C880   C888    1.417   .     A
C880   C887    1.394   .     A
C881   C883    1.488   .     S
C881   C889    1.397   .     A
C882   C1085   1.343   .     S
C882   O1132   1.392   .     S
C883   O906    1.301   .     A
C883   O905    1.314   .     A
C884   C885    1.444   .     S
C885   O907    1.300   .     A
C885   O908    1.295   .     A
C886   O909    1.302   .     A
C886   O910    1.304   .     A
C886   C888    1.470   .     S
C887   H964    1.085   .     S
C889   C890    1.392   .     A
C889   H899    1.077   .     S
C890   C288    1.398   1_556 S
C891   H900    1.078   .     S
Cu892  O907    1.976   .     S
Cu892  Cu893   2.704   .     S
Cu892  N902    2.032   .     S
Cu892  O903    1.977   .     S
Cu892  O905    1.949   .     S
Cu892  O909    1.930   .     S
Cu893  O906    1.930   .     S
Cu893  O910    1.949   .     S
Cu893  N901    2.032   .     S
Cu893  O908    1.977   .     S
Cu893  O904    1.976   .     S
H894   C1085   1.087   .     S
H895   N901    1.029   .     S
N901   N969    1.275   .     S
N902   C915    1.445   .     S
C911   H912    1.110   .     S
C911   H980    1.102   .     S
C911   H981    1.111   .     S
C915   H916    1.101   .     S
C915   H917    1.109   .     S
H918   C982    1.092   .     S
O919   C920    1.411   .     S
O919   C957    1.381   .     S
C920   H922    1.115   .     S
C920   H318    1.114   1_556 S
C920   C320    1.521   1_556 S
C923   H926    1.111   .     S
H924   C320    1.111   1_556 S
H925   C1124   1.110   .     S
C927   H930    1.112   .     S
C927   H928    1.107   .     S
C927   H929    1.107   .     S
O931   C932    1.412   .     S
C932   C935    1.510   .     S
C932   H934    1.116   .     S
H933   C1133   1.107   .     S
C935   H936    1.107   .     S
C935   H937    1.108   .     S
C935   H1005   1.103   .     S
C939   C949    1.447   .     S
C939   O971    1.294   .     A
C939   O970    1.299   .     A
C940   C941    1.425   .     A
C940   C339    1.429   1_556 S
C940   C355    1.417   1_556 S
C941   C945    1.421   .     A
C941   C948    1.429   .     A
C942   C946    1.405   .     A
C943   C944    1.383   .     A
C943   C339    1.414   1_556 S
C943   C351    1.398   1_556 S
C944   C945    1.388   .     A
C944   H963    1.086   .     S
C945   C994    1.494   .     S
C946   H965    1.078   .     S
C946   C955    1.404   .     A
C947   C978    1.509   .     S
C947   C955    1.417   .     A
C947   C954    1.394   .     A
C948   C950    1.488   .     S
C948   C956    1.397   .     A
C949   C1152   1.343   .     S
C949   O1199   1.392   .     S
C950   O973    1.301   .     A
C950   O972    1.314   .     A
C951   C952    1.444   .     S
C952   O974    1.300   .     A
C952   O975    1.295   .     A
C953   O976    1.302   .     A
C953   O977    1.304   .     A
C953   C955    1.470   .     S
C954   H830    1.085   1_655 S
C956   C957    1.392   .     A
C956   H966    1.077   .     S
C957   C355    1.398   1_556 S
C958   H967    1.078   .     S
Cu959  O974    1.976   .     S
Cu959  Cu960   2.704   .     S
Cu959  N969    2.032   .     S
Cu959  O970    1.977   .     S
Cu959  O972    1.949   .     S
Cu959  O976    1.930   .     S
Cu960  O973    1.930   .     S
Cu960  O977    1.949   .     S
Cu960  N968    2.032   .     S
Cu960  O975    1.977   .     S
Cu960  O971    1.976   .     S
H961   C1152   1.087   .     S
H962   N968    1.029   .     S
N968   N835    1.275   1_655 S
N969   C982    1.445   .     S
C978   H979    1.110   .     S
C978   H846    1.102   1_655 S
C978   H847    1.111   1_655 S
C982   H983    1.101   .     S
C982   H984    1.109   .     S
H985   C848    1.092   1_655 S
O986   C987    1.411   .     S
O986   C823    1.381   1_655 S
C987   H989    1.115   .     S
C987   H385    1.114   1_556 S
C987   C387    1.521   1_556 S
C990   H993    1.111   .     S
H991   C387    1.111   1_556 S
H992   C1191   1.110   .     S
C994   H997    1.112   .     S
C994   H995    1.107   .     S
C994   H996    1.107   .     S
O998   C999    1.412   .     S
C999   C1002   1.510   .     S
C999   H1001   1.116   .     S
H1000  C1200   1.107   .     S
C1002  H1003   1.107   .     S
C1002  H1004   1.108   .     S
C1002  H871    1.103   1_655 S
C1006  C1016   1.447   .     S
C1006  O1038   1.294   .     A
C1006  O1037   1.299   .     A
C1007  C1008   1.425   .     A
C1007  C406    1.429   1_556 S
C1007  C422    1.417   1_556 S
C1008  C1012   1.421   .     A
C1008  C1015   1.429   .     A
C1009  C1013   1.405   .     A
C1010  C1011   1.383   .     A
C1010  C406    1.414   1_556 S
C1010  C418    1.398   1_556 S
C1011  C1012   1.388   .     A
C1011  H1030   1.086   .     S
C1012  C1061   1.494   .     S
C1013  H1032   1.078   .     S
C1013  C1022   1.404   .     A
C1014  C1045   1.509   .     S
C1014  C1022   1.417   .     A
C1014  C1021   1.394   .     A
C1015  C1017   1.488   .     S
C1015  C1023   1.397   .     A
C1016  C616    1.343   1_565 S
C1016  O663    1.392   1_565 S
C1017  O1040   1.301   .     A
C1017  O1039   1.314   .     A
C1018  C1019   1.444   .     S
C1019  O1041   1.300   .     A
C1019  O1042   1.295   .     A
C1020  O1043   1.302   .     A
C1020  O1044   1.304   .     A
C1020  C1022   1.470   .     S
C1021  H1098   1.085   .     S
C1023  C1024   1.392   .     A
C1023  H1033   1.077   .     S
C1024  C422    1.398   1_556 S
C1024  O1187   1.381   1_455 S
C1025  H1034   1.078   .     S
Cu1026 O1041   1.976   .     S
Cu1026 Cu1027  2.704   .     S
Cu1026 N1036   2.032   .     S
Cu1026 O1037   1.977   .     S
Cu1026 O1039   1.949   .     S
Cu1026 O1043   1.930   .     S
Cu1027 O1040   1.930   .     S
Cu1027 O1044   1.949   .     S
Cu1027 N1035   2.032   .     S
Cu1027 O1042   1.977   .     S
Cu1027 O1038   1.976   .     S
H1028  C616    1.087   1_565 S
H1029  N1035   1.029   .     S
H1031  C1155   1.085   1_455 S
N1035  N1103   1.275   .     S
N1036  C1049   1.445   .     S
N1036  N1169   1.275   1_455 S
C1045  H1046   1.110   .     S
C1045  H1114   1.102   .     S
C1045  H1115   1.111   .     S
H1047  C1179   1.102   1_455 S
H1048  C1179   1.111   1_455 S
C1049  H1050   1.101   .     S
C1049  H1051   1.109   .     S
C1049  H1186   1.092   1_455 S
H1052  C1116   1.092   .     S
O1053  C1054   1.411   .     S
O1053  C1091   1.381   .     S
C1054  H1056   1.115   .     S
C1054  H452    1.114   1_556 S
C1054  C454    1.521   1_556 S
C1057  H1060   1.111   .     S
H1058  C454    1.111   1_556 S
H1059  C655    1.110   1_565 S
C1061  H1064   1.112   .     S
C1061  H1062   1.107   .     S
C1061  H1063   1.107   .     S
O1065  C1066   1.412   .     S
C1066  C1069   1.510   .     S
C1066  H1068   1.116   .     S
H1067  C664    1.107   1_565 S
C1069  H1070   1.107   .     S
C1069  H1071   1.108   .     S
C1069  H1139   1.103   .     S
H1072  C1203   1.103   1_455 S
C1073  C1083   1.447   .     S
C1073  O1105   1.294   .     A
C1073  O1104   1.299   .     A
C1074  C1075   1.425   .     A
C1074  C473    1.429   1_556 S
C1074  C489    1.417   1_556 S
C1075  C1079   1.421   .     A
C1075  C1082   1.429   .     A
C1076  C1080   1.405   .     A
C1077  C1078   1.383   .     A
C1077  C473    1.414   1_556 S
C1077  C485    1.398   1_556 S
C1078  C1079   1.388   .     A
C1078  H1097   1.086   .     S
C1079  C1128   1.494   .     S
C1080  H1099   1.078   .     S
C1080  C1089   1.404   .     A
C1081  C1112   1.509   .     S
C1081  C1089   1.417   .     A
C1081  C1088   1.394   .     A
C1082  C1084   1.488   .     S
C1082  C1090   1.397   .     A
C1083  C683    1.343   1_565 S
C1083  O730    1.392   1_565 S
C1084  O1107   1.301   .     A
C1084  O1106   1.314   .     A
C1085  C1086   1.444   .     S
C1086  O1108   1.300   .     A
C1086  O1109   1.295   .     A
C1087  O1110   1.302   .     A
C1087  O1111   1.304   .     A
C1087  C1089   1.470   .     S
C1088  H1165   1.085   .     S
C1090  C1091   1.392   .     A
C1090  H1100   1.077   .     S
C1091  C489    1.398   1_556 S
C1092  H1101   1.078   .     S
Cu1093 O1108   1.976   .     S
Cu1093 Cu1094  2.704   .     S
Cu1093 N1103   2.032   .     S
Cu1093 O1104   1.977   .     S
Cu1093 O1106   1.949   .     S
Cu1093 O1110   1.930   .     S
Cu1094 O1107   1.930   .     S
Cu1094 O1111   1.949   .     S
Cu1094 N1102   2.032   .     S
Cu1094 O1109   1.977   .     S
Cu1094 O1105   1.976   .     S
H1095  C683    1.087   1_565 S
H1096  N1102   1.029   .     S
N1102  N1170   1.275   .     S
N1103  C1116   1.445   .     S
C1112  H1113   1.110   .     S
C1112  H1181   1.102   .     S
C1112  H1182   1.111   .     S
C1116  H1117   1.101   .     S
C1116  H1118   1.109   .     S
H1119  C1183   1.092   .     S
O1120  C1121   1.411   .     S
O1120  C1158   1.381   .     S
C1121  H1123   1.115   .     S
C1121  H519    1.114   1_556 S
C1121  C521    1.521   1_556 S
C1124  H1127   1.111   .     S
H1125  C521    1.111   1_556 S
H1126  C722    1.110   1_565 S
C1128  H1131   1.112   .     S
C1128  H1129   1.107   .     S
C1128  H1130   1.107   .     S
O1132  C1133   1.412   .     S
C1133  C1136   1.510   .     S
C1133  H1135   1.116   .     S
H1134  C731    1.107   1_565 S
C1136  H1137   1.107   .     S
C1136  H1138   1.108   .     S
C1136  H1206   1.103   .     S
C1140  C1150   1.447   .     S
C1140  O1172   1.294   .     A
C1140  O1171   1.299   .     A
C1141  C1142   1.425   .     A
C1141  C540    1.429   1_556 S
C1141  C556    1.417   1_556 S
C1142  C1146   1.421   .     A
C1142  C1149   1.429   .     A
C1143  C1147   1.405   .     A
C1144  C1145   1.383   .     A
C1144  C540    1.414   1_556 S
C1144  C552    1.398   1_556 S
C1145  C1146   1.388   .     A
C1145  H1164   1.086   .     S
C1146  C1195   1.494   .     S
C1147  H1166   1.078   .     S
C1147  C1156   1.404   .     A
C1148  C1179   1.509   .     S
C1148  C1156   1.417   .     A
C1148  C1155   1.394   .     A
C1149  C1151   1.488   .     S
C1149  C1157   1.397   .     A
C1150  C750    1.343   1_565 S
C1150  O797    1.392   1_565 S
C1151  O1174   1.301   .     A
C1151  O1173   1.314   .     A
C1152  C1153   1.444   .     S
C1153  O1175   1.300   .     A
C1153  O1176   1.295   .     A
C1154  O1177   1.302   .     A
C1154  O1178   1.304   .     A
C1154  C1156   1.470   .     S
C1155  H1031   1.085   1_655 S
C1157  C1158   1.392   .     A
C1157  H1167   1.077   .     S
C1158  C556    1.398   1_556 S
C1159  H1168   1.078   .     S
Cu1160 O1175   1.976   .     S
Cu1160 Cu1161  2.704   .     S
Cu1160 N1170   2.032   .     S
Cu1160 O1171   1.977   .     S
Cu1160 O1173   1.949   .     S
Cu1160 O1177   1.930   .     S
Cu1161 O1174   1.930   .     S
Cu1161 O1178   1.949   .     S
Cu1161 N1169   2.032   .     S
Cu1161 O1176   1.977   .     S
Cu1161 O1172   1.976   .     S
H1162  C750    1.087   1_565 S
H1163  N1169   1.029   .     S
N1169  N1036   1.275   1_655 S
N1170  C1183   1.445   .     S
C1179  H1180   1.110   .     S
C1179  H1047   1.102   1_655 S
C1179  H1048   1.111   1_655 S
C1183  H1184   1.101   .     S
C1183  H1185   1.109   .     S
H1186  C1049   1.092   1_655 S
O1187  C1188   1.411   .     S
O1187  C1024   1.381   1_655 S
C1188  H1190   1.115   .     S
C1188  H586    1.114   1_556 S
C1188  C588    1.521   1_556 S
C1191  H1194   1.111   .     S
H1192  C588    1.111   1_556 S
H1193  C789    1.110   1_565 S
C1195  H1198   1.112   .     S
C1195  H1196   1.107   .     S
C1195  H1197   1.107   .     S
O1199  C1200   1.412   .     S
C1200  C1203   1.510   .     S
C1200  H1202   1.116   .     S
H1201  C798    1.107   1_565 S
C1203  H1204   1.107   .     S
C1203  H1205   1.108   .     S
C1203  H1072   1.103   1_655 S
