data_str_m2_o10_o16_pcu_sym.68
_audit_creation_date              2020-01-03
_audit_creation_method            'Materials Studio'
_symmetry_space_group_name_H-M    'P1'
_symmetry_Int_Tables_number       1
_symmetry_cell_setting            triclinic
loop_
_symmetry_equiv_pos_as_xyz
  x,y,z
_cell_length_a                    22.2427
_cell_length_b                    26.1873
_cell_length_c                    26.7235
_cell_angle_alpha                 94.0185
_cell_angle_beta                  76.7696
_cell_angle_gamma                 103.2386
loop_
_atom_site_label
_atom_site_type_symbol
_atom_site_fract_x
_atom_site_fract_y
_atom_site_fract_z
_atom_site_U_iso_or_equiv
_atom_site_adp_type
_atom_site_occupancy
C1     C     0.18180   0.26671   0.25099   0.00000  Uiso   1.00
C2     C     0.11004   0.16508   0.40423   0.00000  Uiso   1.00
C3     C     0.18878   0.32252   0.25252   0.00000  Uiso   1.00
C4     C     0.13251   0.16559   0.34751   0.00000  Uiso   1.00
C5     C     0.14575   0.01082   0.23936   0.00000  Uiso   1.00
C6     C     0.15243   0.06673   0.24603   0.00000  Uiso   1.00
C7     C     0.20122   0.17053   0.15253   0.00000  Uiso   1.00
C8     C     0.29257   0.22886   0.02442   0.00000  Uiso   1.00
C9     C     0.22297   0.17896   0.09654   0.00000  Uiso   1.00
C10    C     0.04850   0.13641   0.42596   0.00000  Uiso   1.00
C11    C     0.03196   0.12612   0.47856   0.00000  Uiso   1.00
C12    C     0.13815   0.16977   0.48830   0.00000  Uiso   1.00
C13    C     0.07635   0.14084   0.00881   0.00000  Uiso   1.00
C14    C     0.15230   0.18722   0.43688   0.00000  Uiso   1.00
C15    C     0.18593   0.18271   0.01749   0.00000  Uiso   1.00
C16    C     0.24452   0.21653   0.49669   0.00000  Uiso   1.00
C17    C     0.25402   0.23937   0.44919   0.00000  Uiso   1.00
C18    C     0.20755   0.22687   0.42000   0.00000  Uiso   1.00
C19    C     0.17723   0.16317   0.06690   0.00000  Uiso   1.00
C20    C     0.28302   0.20966   0.07368   0.00000  Uiso   1.00
Cu21   Cu    0.10710   0.16105   0.24435   0.00000  Uiso   1.00
Cu22   Cu    0.22623   0.17228   0.25564   0.00000  Uiso   1.00
H23    H     0.00352   0.20568   0.28976   0.00000  Uiso   1.00
H24    H     0.07309   0.00345   0.20715   0.00000  Uiso   1.00
H25    H     0.29847   0.09896   0.41654   0.00000  Uiso   1.00
H26    H     0.25373   0.28216   0.37124   0.00000  Uiso   1.00
H27    H     0.32980   0.12766   0.21024   0.00000  Uiso   1.00
H28    H     0.29735   0.26807   0.43520   0.00000  Uiso   1.00
H29    H     0.00455   0.25395   0.00789   0.00000  Uiso   1.00
H30    H     0.13418   0.13637   0.08421   0.00000  Uiso   1.00
H31    H     0.05987   0.13019   0.04860   0.00000  Uiso   1.00
H32    H     0.31820   0.10469   0.49605   0.00000  Uiso   1.00
H33    H     0.22907   0.01272   0.26622   0.00000  Uiso   1.00
H34    H     0.00011   0.19273   0.11709   0.00000  Uiso   1.00
N35    N     0.31574   0.18074   0.26416   0.00000  Uiso   1.00
N36    N     0.01759   0.15259   0.23584   0.00000  Uiso   1.00
O37    O     0.12797   0.23807   0.24633   0.00000  Uiso   1.00
O38    O     0.09661   0.31391   0.21906   0.00000  Uiso   1.00
O39    O     0.00579   0.11761   0.39512   0.00000  Uiso   1.00
O40    O     0.21295   0.25593   0.37729   0.00000  Uiso   1.00
O41    O     0.22858   0.24755   0.25586   0.00000  Uiso   1.00
O42    O     0.09181   0.15960   0.31839   0.00000  Uiso   1.00
O43    O     0.19242   0.16908   0.32793   0.00000  Uiso   1.00
O44    O     0.10476   0.08578   0.24413   0.00000  Uiso   1.00
O45    O     0.20536   0.09526   0.25367   0.00000  Uiso   1.00
O46    O     0.14092   0.16425   0.17207   0.00000  Uiso   1.00
O47    O     0.24152   0.17373   0.18161   0.00000  Uiso   1.00
O48    O     0.33226   0.22381   0.09863   0.00000  Uiso   1.00
C49    C     0.51513   0.26671   0.25099   0.00000  Uiso   1.00
C50    C     0.44338   0.16508   0.40423   0.00000  Uiso   1.00
C51    C     0.52211   0.32252   0.25252   0.00000  Uiso   1.00
C52    C     0.46584   0.16559   0.34751   0.00000  Uiso   1.00
C53    C     0.47908   0.01082   0.23936   0.00000  Uiso   1.00
C54    C     0.48576   0.06673   0.24603   0.00000  Uiso   1.00
C55    C     0.53455   0.17053   0.15253   0.00000  Uiso   1.00
C56    C     0.62590   0.22886   0.02442   0.00000  Uiso   1.00
C57    C     0.55630   0.17896   0.09654   0.00000  Uiso   1.00
C58    C     0.38184   0.13641   0.42596   0.00000  Uiso   1.00
C59    C     0.36530   0.12612   0.47856   0.00000  Uiso   1.00
C60    C     0.47148   0.16977   0.48830   0.00000  Uiso   1.00
C61    C     0.40969   0.14084   0.00881   0.00000  Uiso   1.00
C62    C     0.48563   0.18722   0.43688   0.00000  Uiso   1.00
C63    C     0.51926   0.18271   0.01749   0.00000  Uiso   1.00
C64    C     0.57785   0.21653   0.49669   0.00000  Uiso   1.00
C65    C     0.58735   0.23937   0.44919   0.00000  Uiso   1.00
C66    C     0.54088   0.22687   0.42000   0.00000  Uiso   1.00
C67    C     0.51056   0.16317   0.06690   0.00000  Uiso   1.00
C68    C     0.61636   0.20966   0.07368   0.00000  Uiso   1.00
Cu69   Cu    0.44043   0.16105   0.24435   0.00000  Uiso   1.00
Cu70   Cu    0.55957   0.17228   0.25564   0.00000  Uiso   1.00
H71    H     0.33686   0.20568   0.28976   0.00000  Uiso   1.00
H72    H     0.40642   0.00345   0.20715   0.00000  Uiso   1.00
H73    H     0.63180   0.09896   0.41654   0.00000  Uiso   1.00
H74    H     0.58706   0.28216   0.37124   0.00000  Uiso   1.00
H75    H     0.66313   0.12766   0.21024   0.00000  Uiso   1.00
H76    H     0.63069   0.26807   0.43520   0.00000  Uiso   1.00
H77    H     0.33788   0.25395   0.00789   0.00000  Uiso   1.00
H78    H     0.46752   0.13637   0.08421   0.00000  Uiso   1.00
H79    H     0.39320   0.13019   0.04860   0.00000  Uiso   1.00
H80    H     0.65154   0.10469   0.49605   0.00000  Uiso   1.00
H81    H     0.56240   0.01272   0.26622   0.00000  Uiso   1.00
H82    H     0.33345   0.19273   0.11709   0.00000  Uiso   1.00
N83    N     0.64908   0.18074   0.26416   0.00000  Uiso   1.00
N84    N     0.35092   0.15259   0.23584   0.00000  Uiso   1.00
O85    O     0.46131   0.23807   0.24633   0.00000  Uiso   1.00
O86    O     0.42994   0.31391   0.21906   0.00000  Uiso   1.00
O87    O     0.33912   0.11761   0.39512   0.00000  Uiso   1.00
O88    O     0.54629   0.25593   0.37729   0.00000  Uiso   1.00
O89    O     0.56191   0.24755   0.25586   0.00000  Uiso   1.00
O90    O     0.42515   0.15960   0.31839   0.00000  Uiso   1.00
O91    O     0.52575   0.16908   0.32793   0.00000  Uiso   1.00
O92    O     0.43809   0.08578   0.24413   0.00000  Uiso   1.00
O93    O     0.53869   0.09526   0.25367   0.00000  Uiso   1.00
O94    O     0.47425   0.16425   0.17207   0.00000  Uiso   1.00
O95    O     0.57485   0.17373   0.18161   0.00000  Uiso   1.00
O96    O     0.66559   0.22381   0.09863   0.00000  Uiso   1.00
C97    C     0.84846   0.26671   0.25099   0.00000  Uiso   1.00
C98    C     0.77671   0.16508   0.40423   0.00000  Uiso   1.00
C99    C     0.85544   0.32252   0.25252   0.00000  Uiso   1.00
C100   C     0.79918   0.16559   0.34751   0.00000  Uiso   1.00
C101   C     0.81242   0.01082   0.23936   0.00000  Uiso   1.00
C102   C     0.81910   0.06673   0.24603   0.00000  Uiso   1.00
C103   C     0.86789   0.17053   0.15253   0.00000  Uiso   1.00
C104   C     0.95924   0.22886   0.02442   0.00000  Uiso   1.00
C105   C     0.88963   0.17896   0.09654   0.00000  Uiso   1.00
C106   C     0.71517   0.13641   0.42596   0.00000  Uiso   1.00
C107   C     0.69863   0.12612   0.47856   0.00000  Uiso   1.00
C108   C     0.80481   0.16977   0.48830   0.00000  Uiso   1.00
C109   C     0.74302   0.14084   0.00881   0.00000  Uiso   1.00
C110   C     0.81897   0.18722   0.43688   0.00000  Uiso   1.00
C111   C     0.85259   0.18271   0.01749   0.00000  Uiso   1.00
C112   C     0.91118   0.21653   0.49669   0.00000  Uiso   1.00
C113   C     0.92069   0.23937   0.44919   0.00000  Uiso   1.00
C114   C     0.87421   0.22687   0.42000   0.00000  Uiso   1.00
C115   C     0.84389   0.16317   0.06690   0.00000  Uiso   1.00
C116   C     0.94969   0.20966   0.07368   0.00000  Uiso   1.00
Cu117  Cu    0.77377   0.16105   0.24435   0.00000  Uiso   1.00
Cu118  Cu    0.89290   0.17228   0.25564   0.00000  Uiso   1.00
H119   H     0.67019   0.20568   0.28976   0.00000  Uiso   1.00
H120   H     0.73976   0.00345   0.20715   0.00000  Uiso   1.00
H121   H     0.96513   0.09896   0.41654   0.00000  Uiso   1.00
H122   H     0.92039   0.28216   0.37124   0.00000  Uiso   1.00
H123   H     0.99646   0.12766   0.21024   0.00000  Uiso   1.00
H124   H     0.96402   0.26807   0.43520   0.00000  Uiso   1.00
H125   H     0.67121   0.25395   0.00789   0.00000  Uiso   1.00
H126   H     0.80085   0.13637   0.08421   0.00000  Uiso   1.00
H127   H     0.72654   0.13019   0.04860   0.00000  Uiso   1.00
H128   H     0.98487   0.10469   0.49605   0.00000  Uiso   1.00
H129   H     0.89573   0.01272   0.26622   0.00000  Uiso   1.00
H130   H     0.66678   0.19273   0.11709   0.00000  Uiso   1.00
N131   N     0.98241   0.18074   0.26416   0.00000  Uiso   1.00
N132   N     0.68426   0.15259   0.23584   0.00000  Uiso   1.00
O133   O     0.79464   0.23807   0.24633   0.00000  Uiso   1.00
O134   O     0.76327   0.31391   0.21906   0.00000  Uiso   1.00
O135   O     0.67245   0.11761   0.39512   0.00000  Uiso   1.00
O136   O     0.87962   0.25593   0.37729   0.00000  Uiso   1.00
O137   O     0.89524   0.24755   0.25586   0.00000  Uiso   1.00
O138   O     0.75848   0.15960   0.31839   0.00000  Uiso   1.00
O139   O     0.85908   0.16908   0.32793   0.00000  Uiso   1.00
O140   O     0.77142   0.08578   0.24413   0.00000  Uiso   1.00
O141   O     0.87203   0.09526   0.25367   0.00000  Uiso   1.00
O142   O     0.80758   0.16425   0.17207   0.00000  Uiso   1.00
O143   O     0.90819   0.17373   0.18161   0.00000  Uiso   1.00
O144   O     0.99893   0.22381   0.09863   0.00000  Uiso   1.00
C145   C     0.18180   0.60005   0.25099   0.00000  Uiso   1.00
C146   C     0.11004   0.49841   0.40423   0.00000  Uiso   1.00
C147   C     0.18878   0.65585   0.25252   0.00000  Uiso   1.00
C148   C     0.13251   0.49892   0.34751   0.00000  Uiso   1.00
C149   C     0.14575   0.34416   0.23936   0.00000  Uiso   1.00
C150   C     0.15243   0.40006   0.24603   0.00000  Uiso   1.00
C151   C     0.20122   0.50386   0.15253   0.00000  Uiso   1.00
C152   C     0.29257   0.56219   0.02442   0.00000  Uiso   1.00
C153   C     0.22297   0.51229   0.09654   0.00000  Uiso   1.00
C154   C     0.04850   0.46974   0.42596   0.00000  Uiso   1.00
C155   C     0.03196   0.45945   0.47856   0.00000  Uiso   1.00
C156   C     0.13815   0.50310   0.48830   0.00000  Uiso   1.00
C157   C     0.07635   0.47418   0.00881   0.00000  Uiso   1.00
C158   C     0.15230   0.52055   0.43688   0.00000  Uiso   1.00
C159   C     0.18593   0.51605   0.01749   0.00000  Uiso   1.00
C160   C     0.24452   0.54986   0.49669   0.00000  Uiso   1.00
C161   C     0.25402   0.57271   0.44919   0.00000  Uiso   1.00
C162   C     0.20755   0.56020   0.42000   0.00000  Uiso   1.00
C163   C     0.17723   0.49651   0.06690   0.00000  Uiso   1.00
C164   C     0.28302   0.54299   0.07368   0.00000  Uiso   1.00
Cu165  Cu    0.10710   0.49439   0.24435   0.00000  Uiso   1.00
Cu166  Cu    0.22623   0.50561   0.25564   0.00000  Uiso   1.00
H167   H     0.00352   0.53901   0.28976   0.00000  Uiso   1.00
H168   H     0.07309   0.33678   0.20715   0.00000  Uiso   1.00
H169   H     0.29847   0.43230   0.41654   0.00000  Uiso   1.00
H170   H     0.25373   0.61550   0.37124   0.00000  Uiso   1.00
H171   H     0.32980   0.46100   0.21024   0.00000  Uiso   1.00
H172   H     0.29735   0.60140   0.43520   0.00000  Uiso   1.00
H173   H     0.00455   0.58728   0.00789   0.00000  Uiso   1.00
H174   H     0.13418   0.46971   0.08421   0.00000  Uiso   1.00
H175   H     0.05987   0.46352   0.04860   0.00000  Uiso   1.00
H176   H     0.31820   0.43803   0.49605   0.00000  Uiso   1.00
H177   H     0.22907   0.34606   0.26622   0.00000  Uiso   1.00
H178   H     0.00011   0.52606   0.11709   0.00000  Uiso   1.00
N179   N     0.31574   0.51407   0.26416   0.00000  Uiso   1.00
N180   N     0.01759   0.48593   0.23584   0.00000  Uiso   1.00
O181   O     0.12797   0.57141   0.24633   0.00000  Uiso   1.00
O182   O     0.09661   0.64724   0.21906   0.00000  Uiso   1.00
O183   O     0.00579   0.45094   0.39512   0.00000  Uiso   1.00
O184   O     0.21295   0.58926   0.37729   0.00000  Uiso   1.00
O185   O     0.22858   0.58089   0.25586   0.00000  Uiso   1.00
O186   O     0.09181   0.49293   0.31839   0.00000  Uiso   1.00
O187   O     0.19242   0.50241   0.32793   0.00000  Uiso   1.00
O188   O     0.10476   0.41911   0.24413   0.00000  Uiso   1.00
O189   O     0.20536   0.42859   0.25367   0.00000  Uiso   1.00
O190   O     0.14092   0.49759   0.17207   0.00000  Uiso   1.00
O191   O     0.24152   0.50707   0.18161   0.00000  Uiso   1.00
O192   O     0.33226   0.55715   0.09863   0.00000  Uiso   1.00
C193   C     0.51513   0.60005   0.25099   0.00000  Uiso   1.00
C194   C     0.44338   0.49841   0.40423   0.00000  Uiso   1.00
C195   C     0.52211   0.65585   0.25252   0.00000  Uiso   1.00
C196   C     0.46584   0.49892   0.34751   0.00000  Uiso   1.00
C197   C     0.47908   0.34416   0.23936   0.00000  Uiso   1.00
C198   C     0.48576   0.40006   0.24603   0.00000  Uiso   1.00
C199   C     0.53455   0.50386   0.15253   0.00000  Uiso   1.00
C200   C     0.62590   0.56219   0.02442   0.00000  Uiso   1.00
C201   C     0.55630   0.51229   0.09654   0.00000  Uiso   1.00
C202   C     0.38184   0.46974   0.42596   0.00000  Uiso   1.00
C203   C     0.36530   0.45945   0.47856   0.00000  Uiso   1.00
C204   C     0.47148   0.50310   0.48830   0.00000  Uiso   1.00
C205   C     0.40969   0.47418   0.00881   0.00000  Uiso   1.00
C206   C     0.48563   0.52055   0.43688   0.00000  Uiso   1.00
C207   C     0.51926   0.51605   0.01749   0.00000  Uiso   1.00
C208   C     0.57785   0.54986   0.49669   0.00000  Uiso   1.00
C209   C     0.58735   0.57271   0.44919   0.00000  Uiso   1.00
C210   C     0.54088   0.56020   0.42000   0.00000  Uiso   1.00
C211   C     0.51056   0.49651   0.06690   0.00000  Uiso   1.00
C212   C     0.61636   0.54299   0.07368   0.00000  Uiso   1.00
Cu213  Cu    0.44043   0.49439   0.24435   0.00000  Uiso   1.00
Cu214  Cu    0.55957   0.50561   0.25564   0.00000  Uiso   1.00
H215   H     0.33686   0.53901   0.28976   0.00000  Uiso   1.00
H216   H     0.40642   0.33678   0.20715   0.00000  Uiso   1.00
H217   H     0.63180   0.43230   0.41654   0.00000  Uiso   1.00
H218   H     0.58706   0.61550   0.37124   0.00000  Uiso   1.00
H219   H     0.66313   0.46100   0.21024   0.00000  Uiso   1.00
H220   H     0.63069   0.60140   0.43520   0.00000  Uiso   1.00
H221   H     0.33788   0.58728   0.00789   0.00000  Uiso   1.00
H222   H     0.46752   0.46971   0.08421   0.00000  Uiso   1.00
H223   H     0.39320   0.46352   0.04860   0.00000  Uiso   1.00
H224   H     0.65154   0.43803   0.49605   0.00000  Uiso   1.00
H225   H     0.56240   0.34606   0.26622   0.00000  Uiso   1.00
H226   H     0.33345   0.52606   0.11709   0.00000  Uiso   1.00
N227   N     0.64908   0.51407   0.26416   0.00000  Uiso   1.00
N228   N     0.35092   0.48593   0.23584   0.00000  Uiso   1.00
O229   O     0.46131   0.57141   0.24633   0.00000  Uiso   1.00
O230   O     0.42994   0.64724   0.21906   0.00000  Uiso   1.00
O231   O     0.33912   0.45094   0.39512   0.00000  Uiso   1.00
O232   O     0.54629   0.58926   0.37729   0.00000  Uiso   1.00
O233   O     0.56191   0.58089   0.25586   0.00000  Uiso   1.00
O234   O     0.42515   0.49293   0.31839   0.00000  Uiso   1.00
O235   O     0.52575   0.50241   0.32793   0.00000  Uiso   1.00
O236   O     0.43809   0.41911   0.24413   0.00000  Uiso   1.00
O237   O     0.53869   0.42859   0.25367   0.00000  Uiso   1.00
O238   O     0.47425   0.49759   0.17207   0.00000  Uiso   1.00
O239   O     0.57485   0.50707   0.18161   0.00000  Uiso   1.00
O240   O     0.66559   0.55715   0.09863   0.00000  Uiso   1.00
C241   C     0.84846   0.60005   0.25099   0.00000  Uiso   1.00
C242   C     0.77671   0.49841   0.40423   0.00000  Uiso   1.00
C243   C     0.85544   0.65585   0.25252   0.00000  Uiso   1.00
C244   C     0.79918   0.49892   0.34751   0.00000  Uiso   1.00
C245   C     0.81242   0.34416   0.23936   0.00000  Uiso   1.00
C246   C     0.81910   0.40006   0.24603   0.00000  Uiso   1.00
C247   C     0.86789   0.50386   0.15253   0.00000  Uiso   1.00
C248   C     0.95924   0.56219   0.02442   0.00000  Uiso   1.00
C249   C     0.88963   0.51229   0.09654   0.00000  Uiso   1.00
C250   C     0.71517   0.46974   0.42596   0.00000  Uiso   1.00
C251   C     0.69863   0.45945   0.47856   0.00000  Uiso   1.00
C252   C     0.80481   0.50310   0.48830   0.00000  Uiso   1.00
C253   C     0.74302   0.47418   0.00881   0.00000  Uiso   1.00
C254   C     0.81897   0.52055   0.43688   0.00000  Uiso   1.00
C255   C     0.85259   0.51605   0.01749   0.00000  Uiso   1.00
C256   C     0.91118   0.54986   0.49669   0.00000  Uiso   1.00
C257   C     0.92069   0.57271   0.44919   0.00000  Uiso   1.00
C258   C     0.87421   0.56020   0.42000   0.00000  Uiso   1.00
C259   C     0.84389   0.49651   0.06690   0.00000  Uiso   1.00
C260   C     0.94969   0.54299   0.07368   0.00000  Uiso   1.00
Cu261  Cu    0.77377   0.49439   0.24435   0.00000  Uiso   1.00
Cu262  Cu    0.89290   0.50561   0.25564   0.00000  Uiso   1.00
H263   H     0.67019   0.53901   0.28976   0.00000  Uiso   1.00
H264   H     0.73976   0.33678   0.20715   0.00000  Uiso   1.00
H265   H     0.96513   0.43230   0.41654   0.00000  Uiso   1.00
H266   H     0.92039   0.61550   0.37124   0.00000  Uiso   1.00
H267   H     0.99646   0.46100   0.21024   0.00000  Uiso   1.00
H268   H     0.96402   0.60140   0.43520   0.00000  Uiso   1.00
H269   H     0.67121   0.58728   0.00789   0.00000  Uiso   1.00
H270   H     0.80085   0.46971   0.08421   0.00000  Uiso   1.00
H271   H     0.72654   0.46352   0.04860   0.00000  Uiso   1.00
H272   H     0.98487   0.43803   0.49605   0.00000  Uiso   1.00
H273   H     0.89573   0.34606   0.26622   0.00000  Uiso   1.00
H274   H     0.66678   0.52606   0.11709   0.00000  Uiso   1.00
N275   N     0.98241   0.51407   0.26416   0.00000  Uiso   1.00
N276   N     0.68426   0.48593   0.23584   0.00000  Uiso   1.00
O277   O     0.79464   0.57141   0.24633   0.00000  Uiso   1.00
O278   O     0.76327   0.64724   0.21906   0.00000  Uiso   1.00
O279   O     0.67245   0.45094   0.39512   0.00000  Uiso   1.00
O280   O     0.87962   0.58926   0.37729   0.00000  Uiso   1.00
O281   O     0.89524   0.58089   0.25586   0.00000  Uiso   1.00
O282   O     0.75848   0.49293   0.31839   0.00000  Uiso   1.00
O283   O     0.85908   0.50241   0.32793   0.00000  Uiso   1.00
O284   O     0.77142   0.41911   0.24413   0.00000  Uiso   1.00
O285   O     0.87203   0.42859   0.25367   0.00000  Uiso   1.00
O286   O     0.80758   0.49759   0.17207   0.00000  Uiso   1.00
O287   O     0.90819   0.50707   0.18161   0.00000  Uiso   1.00
O288   O     0.99893   0.55715   0.09863   0.00000  Uiso   1.00
C289   C     0.18180   0.93338   0.25099   0.00000  Uiso   1.00
C290   C     0.11004   0.83175   0.40423   0.00000  Uiso   1.00
C291   C     0.18878   0.98918   0.25252   0.00000  Uiso   1.00
C292   C     0.13251   0.83225   0.34751   0.00000  Uiso   1.00
C293   C     0.14575   0.67749   0.23936   0.00000  Uiso   1.00
C294   C     0.15243   0.73339   0.24603   0.00000  Uiso   1.00
C295   C     0.20122   0.83719   0.15253   0.00000  Uiso   1.00
C296   C     0.29257   0.89552   0.02442   0.00000  Uiso   1.00
C297   C     0.22297   0.84563   0.09654   0.00000  Uiso   1.00
C298   C     0.04850   0.80307   0.42596   0.00000  Uiso   1.00
C299   C     0.03196   0.79279   0.47856   0.00000  Uiso   1.00
C300   C     0.13815   0.83643   0.48830   0.00000  Uiso   1.00
C301   C     0.07635   0.80751   0.00881   0.00000  Uiso   1.00
C302   C     0.15230   0.85388   0.43688   0.00000  Uiso   1.00
C303   C     0.18593   0.84938   0.01749   0.00000  Uiso   1.00
C304   C     0.24452   0.88320   0.49669   0.00000  Uiso   1.00
C305   C     0.25402   0.90604   0.44919   0.00000  Uiso   1.00
C306   C     0.20755   0.89353   0.42000   0.00000  Uiso   1.00
C307   C     0.17723   0.82984   0.06690   0.00000  Uiso   1.00
C308   C     0.28302   0.87632   0.07368   0.00000  Uiso   1.00
Cu309  Cu    0.10710   0.82772   0.24435   0.00000  Uiso   1.00
Cu310  Cu    0.22623   0.83895   0.25564   0.00000  Uiso   1.00
H311   H     0.00352   0.87234   0.28976   0.00000  Uiso   1.00
H312   H     0.07309   0.67012   0.20715   0.00000  Uiso   1.00
H313   H     0.29847   0.76563   0.41654   0.00000  Uiso   1.00
H314   H     0.25373   0.94883   0.37124   0.00000  Uiso   1.00
H315   H     0.32980   0.79433   0.21024   0.00000  Uiso   1.00
H316   H     0.29735   0.93473   0.43520   0.00000  Uiso   1.00
H317   H     0.00455   0.92061   0.00789   0.00000  Uiso   1.00
H318   H     0.13418   0.80304   0.08421   0.00000  Uiso   1.00
H319   H     0.05987   0.79686   0.04860   0.00000  Uiso   1.00
H320   H     0.31820   0.77136   0.49605   0.00000  Uiso   1.00
H321   H     0.22907   0.67939   0.26622   0.00000  Uiso   1.00
H322   H     0.00011   0.85940   0.11709   0.00000  Uiso   1.00
N323   N     0.31574   0.84741   0.26416   0.00000  Uiso   1.00
N324   N     0.01759   0.81926   0.23584   0.00000  Uiso   1.00
O325   O     0.12797   0.90474   0.24633   0.00000  Uiso   1.00
O326   O     0.09661   0.98058   0.21906   0.00000  Uiso   1.00
O327   O     0.00579   0.78428   0.39512   0.00000  Uiso   1.00
O328   O     0.21295   0.92260   0.37729   0.00000  Uiso   1.00
O329   O     0.22858   0.91422   0.25586   0.00000  Uiso   1.00
O330   O     0.09181   0.82627   0.31839   0.00000  Uiso   1.00
O331   O     0.19242   0.83575   0.32793   0.00000  Uiso   1.00
O332   O     0.10476   0.75245   0.24413   0.00000  Uiso   1.00
O333   O     0.20536   0.76193   0.25367   0.00000  Uiso   1.00
O334   O     0.14092   0.83092   0.17207   0.00000  Uiso   1.00
O335   O     0.24152   0.84040   0.18161   0.00000  Uiso   1.00
O336   O     0.33226   0.89048   0.09863   0.00000  Uiso   1.00
C337   C     0.51513   0.93338   0.25099   0.00000  Uiso   1.00
C338   C     0.44338   0.83175   0.40423   0.00000  Uiso   1.00
C339   C     0.52211   0.98918   0.25252   0.00000  Uiso   1.00
C340   C     0.46584   0.83225   0.34751   0.00000  Uiso   1.00
C341   C     0.47908   0.67749   0.23936   0.00000  Uiso   1.00
C342   C     0.48576   0.73339   0.24603   0.00000  Uiso   1.00
C343   C     0.53455   0.83719   0.15253   0.00000  Uiso   1.00
C344   C     0.62590   0.89552   0.02442   0.00000  Uiso   1.00
C345   C     0.55630   0.84563   0.09654   0.00000  Uiso   1.00
C346   C     0.38184   0.80307   0.42596   0.00000  Uiso   1.00
C347   C     0.36530   0.79279   0.47856   0.00000  Uiso   1.00
C348   C     0.47148   0.83643   0.48830   0.00000  Uiso   1.00
C349   C     0.40969   0.80751   0.00881   0.00000  Uiso   1.00
C350   C     0.48563   0.85388   0.43688   0.00000  Uiso   1.00
C351   C     0.51926   0.84938   0.01749   0.00000  Uiso   1.00
C352   C     0.57785   0.88320   0.49669   0.00000  Uiso   1.00
C353   C     0.58735   0.90604   0.44919   0.00000  Uiso   1.00
C354   C     0.54088   0.89353   0.42000   0.00000  Uiso   1.00
C355   C     0.51056   0.82984   0.06690   0.00000  Uiso   1.00
C356   C     0.61636   0.87632   0.07368   0.00000  Uiso   1.00
Cu357  Cu    0.44043   0.82772   0.24435   0.00000  Uiso   1.00
Cu358  Cu    0.55957   0.83895   0.25564   0.00000  Uiso   1.00
H359   H     0.33686   0.87234   0.28976   0.00000  Uiso   1.00
H360   H     0.40642   0.67012   0.20715   0.00000  Uiso   1.00
H361   H     0.63180   0.76563   0.41654   0.00000  Uiso   1.00
H362   H     0.58706   0.94883   0.37124   0.00000  Uiso   1.00
H363   H     0.66313   0.79433   0.21024   0.00000  Uiso   1.00
H364   H     0.63069   0.93473   0.43520   0.00000  Uiso   1.00
H365   H     0.33788   0.92061   0.00789   0.00000  Uiso   1.00
H366   H     0.46752   0.80304   0.08421   0.00000  Uiso   1.00
H367   H     0.39320   0.79686   0.04860   0.00000  Uiso   1.00
H368   H     0.65154   0.77136   0.49605   0.00000  Uiso   1.00
H369   H     0.56240   0.67939   0.26622   0.00000  Uiso   1.00
H370   H     0.33345   0.85940   0.11709   0.00000  Uiso   1.00
N371   N     0.64908   0.84741   0.26416   0.00000  Uiso   1.00
N372   N     0.35092   0.81926   0.23584   0.00000  Uiso   1.00
O373   O     0.46131   0.90474   0.24633   0.00000  Uiso   1.00
O374   O     0.42994   0.98058   0.21906   0.00000  Uiso   1.00
O375   O     0.33912   0.78428   0.39512   0.00000  Uiso   1.00
O376   O     0.54629   0.92260   0.37729   0.00000  Uiso   1.00
O377   O     0.56191   0.91422   0.25586   0.00000  Uiso   1.00
O378   O     0.42515   0.82627   0.31839   0.00000  Uiso   1.00
O379   O     0.52575   0.83575   0.32793   0.00000  Uiso   1.00
O380   O     0.43809   0.75245   0.24413   0.00000  Uiso   1.00
O381   O     0.53869   0.76193   0.25367   0.00000  Uiso   1.00
O382   O     0.47425   0.83092   0.17207   0.00000  Uiso   1.00
O383   O     0.57485   0.84040   0.18161   0.00000  Uiso   1.00
O384   O     0.66559   0.89048   0.09863   0.00000  Uiso   1.00
C385   C     0.84846   0.93338   0.25099   0.00000  Uiso   1.00
C386   C     0.77671   0.83175   0.40423   0.00000  Uiso   1.00
C387   C     0.85544   0.98918   0.25252   0.00000  Uiso   1.00
C388   C     0.79918   0.83225   0.34751   0.00000  Uiso   1.00
C389   C     0.81242   0.67749   0.23936   0.00000  Uiso   1.00
C390   C     0.81910   0.73339   0.24603   0.00000  Uiso   1.00
C391   C     0.86789   0.83719   0.15253   0.00000  Uiso   1.00
C392   C     0.95924   0.89552   0.02442   0.00000  Uiso   1.00
C393   C     0.88963   0.84563   0.09654   0.00000  Uiso   1.00
C394   C     0.71517   0.80307   0.42596   0.00000  Uiso   1.00
C395   C     0.69863   0.79279   0.47856   0.00000  Uiso   1.00
C396   C     0.80481   0.83643   0.48830   0.00000  Uiso   1.00
C397   C     0.74302   0.80751   0.00881   0.00000  Uiso   1.00
C398   C     0.81897   0.85388   0.43688   0.00000  Uiso   1.00
C399   C     0.85259   0.84938   0.01749   0.00000  Uiso   1.00
C400   C     0.91118   0.88320   0.49669   0.00000  Uiso   1.00
C401   C     0.92069   0.90604   0.44919   0.00000  Uiso   1.00
C402   C     0.87421   0.89353   0.42000   0.00000  Uiso   1.00
C403   C     0.84389   0.82984   0.06690   0.00000  Uiso   1.00
C404   C     0.94969   0.87632   0.07368   0.00000  Uiso   1.00
Cu405  Cu    0.77377   0.82772   0.24435   0.00000  Uiso   1.00
Cu406  Cu    0.89290   0.83895   0.25564   0.00000  Uiso   1.00
H407   H     0.67019   0.87234   0.28976   0.00000  Uiso   1.00
H408   H     0.73976   0.67012   0.20715   0.00000  Uiso   1.00
H409   H     0.96513   0.76563   0.41654   0.00000  Uiso   1.00
H410   H     0.92039   0.94883   0.37124   0.00000  Uiso   1.00
H411   H     0.99646   0.79433   0.21024   0.00000  Uiso   1.00
H412   H     0.96402   0.93473   0.43520   0.00000  Uiso   1.00
H413   H     0.67121   0.92061   0.00789   0.00000  Uiso   1.00
H414   H     0.80085   0.80304   0.08421   0.00000  Uiso   1.00
H415   H     0.72654   0.79686   0.04860   0.00000  Uiso   1.00
H416   H     0.98487   0.77136   0.49605   0.00000  Uiso   1.00
H417   H     0.89573   0.67939   0.26622   0.00000  Uiso   1.00
H418   H     0.66678   0.85940   0.11709   0.00000  Uiso   1.00
N419   N     0.98241   0.84741   0.26416   0.00000  Uiso   1.00
N420   N     0.68426   0.81926   0.23584   0.00000  Uiso   1.00
O421   O     0.79464   0.90474   0.24633   0.00000  Uiso   1.00
O422   O     0.76327   0.98058   0.21906   0.00000  Uiso   1.00
O423   O     0.67245   0.78428   0.39512   0.00000  Uiso   1.00
O424   O     0.87962   0.92260   0.37729   0.00000  Uiso   1.00
O425   O     0.89524   0.91422   0.25586   0.00000  Uiso   1.00
O426   O     0.75848   0.82627   0.31839   0.00000  Uiso   1.00
O427   O     0.85908   0.83575   0.32793   0.00000  Uiso   1.00
O428   O     0.77142   0.75245   0.24413   0.00000  Uiso   1.00
O429   O     0.87203   0.76193   0.25367   0.00000  Uiso   1.00
O430   O     0.80758   0.83092   0.17207   0.00000  Uiso   1.00
O431   O     0.90819   0.84040   0.18161   0.00000  Uiso   1.00
O432   O     0.99893   0.89048   0.09863   0.00000  Uiso   1.00
C433   C     0.18180   0.26671   0.75099   0.00000  Uiso   1.00
C434   C     0.11004   0.16508   0.90423   0.00000  Uiso   1.00
C435   C     0.18878   0.32252   0.75252   0.00000  Uiso   1.00
C436   C     0.13251   0.16559   0.84751   0.00000  Uiso   1.00
C437   C     0.14575   0.01082   0.73936   0.00000  Uiso   1.00
C438   C     0.15243   0.06673   0.74603   0.00000  Uiso   1.00
C439   C     0.20122   0.17053   0.65253   0.00000  Uiso   1.00
C440   C     0.29257   0.22886   0.52442   0.00000  Uiso   1.00
C441   C     0.22297   0.17896   0.59654   0.00000  Uiso   1.00
C442   C     0.04850   0.13641   0.92596   0.00000  Uiso   1.00
C443   C     0.03196   0.12612   0.97856   0.00000  Uiso   1.00
C444   C     0.13815   0.16977   0.98830   0.00000  Uiso   1.00
C445   C     0.07635   0.14084   0.50881   0.00000  Uiso   1.00
C446   C     0.15230   0.18722   0.93688   0.00000  Uiso   1.00
C447   C     0.18593   0.18271   0.51749   0.00000  Uiso   1.00
C448   C     0.24452   0.21653   0.99669   0.00000  Uiso   1.00
C449   C     0.25402   0.23937   0.94919   0.00000  Uiso   1.00
C450   C     0.20755   0.22687   0.92000   0.00000  Uiso   1.00
C451   C     0.17723   0.16317   0.56690   0.00000  Uiso   1.00
C452   C     0.28302   0.20966   0.57368   0.00000  Uiso   1.00
Cu453  Cu    0.10710   0.16105   0.74435   0.00000  Uiso   1.00
Cu454  Cu    0.22623   0.17228   0.75564   0.00000  Uiso   1.00
H455   H     0.00352   0.20568   0.78976   0.00000  Uiso   1.00
H456   H     0.07309   0.00345   0.70715   0.00000  Uiso   1.00
H457   H     0.29847   0.09896   0.91654   0.00000  Uiso   1.00
H458   H     0.25373   0.28216   0.87124   0.00000  Uiso   1.00
H459   H     0.32980   0.12766   0.71024   0.00000  Uiso   1.00
H460   H     0.29735   0.26807   0.93520   0.00000  Uiso   1.00
H461   H     0.00455   0.25395   0.50789   0.00000  Uiso   1.00
H462   H     0.13418   0.13637   0.58421   0.00000  Uiso   1.00
H463   H     0.05987   0.13019   0.54860   0.00000  Uiso   1.00
H464   H     0.31820   0.10469   0.99605   0.00000  Uiso   1.00
H465   H     0.22907   0.01272   0.76622   0.00000  Uiso   1.00
H466   H     0.00011   0.19273   0.61709   0.00000  Uiso   1.00
N467   N     0.31574   0.18074   0.76416   0.00000  Uiso   1.00
N468   N     0.01759   0.15259   0.73584   0.00000  Uiso   1.00
O469   O     0.12797   0.23807   0.74633   0.00000  Uiso   1.00
O470   O     0.09661   0.31391   0.71906   0.00000  Uiso   1.00
O471   O     0.00579   0.11761   0.89512   0.00000  Uiso   1.00
O472   O     0.21295   0.25593   0.87729   0.00000  Uiso   1.00
O473   O     0.22858   0.24755   0.75586   0.00000  Uiso   1.00
O474   O     0.09181   0.15960   0.81839   0.00000  Uiso   1.00
O475   O     0.19242   0.16908   0.82793   0.00000  Uiso   1.00
O476   O     0.10476   0.08578   0.74413   0.00000  Uiso   1.00
O477   O     0.20536   0.09526   0.75367   0.00000  Uiso   1.00
O478   O     0.14092   0.16425   0.67207   0.00000  Uiso   1.00
O479   O     0.24152   0.17373   0.68161   0.00000  Uiso   1.00
O480   O     0.33226   0.22381   0.59863   0.00000  Uiso   1.00
C481   C     0.51513   0.26671   0.75099   0.00000  Uiso   1.00
C482   C     0.44338   0.16508   0.90423   0.00000  Uiso   1.00
C483   C     0.52211   0.32252   0.75252   0.00000  Uiso   1.00
C484   C     0.46584   0.16559   0.84751   0.00000  Uiso   1.00
C485   C     0.47908   0.01082   0.73936   0.00000  Uiso   1.00
C486   C     0.48576   0.06673   0.74603   0.00000  Uiso   1.00
C487   C     0.53455   0.17053   0.65253   0.00000  Uiso   1.00
C488   C     0.62590   0.22886   0.52442   0.00000  Uiso   1.00
C489   C     0.55630   0.17896   0.59654   0.00000  Uiso   1.00
C490   C     0.38184   0.13641   0.92596   0.00000  Uiso   1.00
C491   C     0.36530   0.12612   0.97856   0.00000  Uiso   1.00
C492   C     0.47148   0.16977   0.98830   0.00000  Uiso   1.00
C493   C     0.40969   0.14084   0.50881   0.00000  Uiso   1.00
C494   C     0.48563   0.18722   0.93688   0.00000  Uiso   1.00
C495   C     0.51926   0.18271   0.51749   0.00000  Uiso   1.00
C496   C     0.57785   0.21653   0.99669   0.00000  Uiso   1.00
C497   C     0.58735   0.23937   0.94919   0.00000  Uiso   1.00
C498   C     0.54088   0.22687   0.92000   0.00000  Uiso   1.00
C499   C     0.51056   0.16317   0.56690   0.00000  Uiso   1.00
C500   C     0.61636   0.20966   0.57368   0.00000  Uiso   1.00
Cu501  Cu    0.44043   0.16105   0.74435   0.00000  Uiso   1.00
Cu502  Cu    0.55957   0.17228   0.75564   0.00000  Uiso   1.00
H503   H     0.33686   0.20568   0.78976   0.00000  Uiso   1.00
H504   H     0.40642   0.00345   0.70715   0.00000  Uiso   1.00
H505   H     0.63180   0.09896   0.91654   0.00000  Uiso   1.00
H506   H     0.58706   0.28216   0.87124   0.00000  Uiso   1.00
H507   H     0.66313   0.12766   0.71024   0.00000  Uiso   1.00
H508   H     0.63069   0.26807   0.93520   0.00000  Uiso   1.00
H509   H     0.33788   0.25395   0.50789   0.00000  Uiso   1.00
H510   H     0.46752   0.13637   0.58421   0.00000  Uiso   1.00
H511   H     0.39320   0.13019   0.54860   0.00000  Uiso   1.00
H512   H     0.65154   0.10469   0.99605   0.00000  Uiso   1.00
H513   H     0.56240   0.01272   0.76622   0.00000  Uiso   1.00
H514   H     0.33345   0.19273   0.61709   0.00000  Uiso   1.00
N515   N     0.64908   0.18074   0.76416   0.00000  Uiso   1.00
N516   N     0.35092   0.15259   0.73584   0.00000  Uiso   1.00
O517   O     0.46131   0.23807   0.74633   0.00000  Uiso   1.00
O518   O     0.42994   0.31391   0.71906   0.00000  Uiso   1.00
O519   O     0.33912   0.11761   0.89512   0.00000  Uiso   1.00
O520   O     0.54629   0.25593   0.87729   0.00000  Uiso   1.00
O521   O     0.56191   0.24755   0.75586   0.00000  Uiso   1.00
O522   O     0.42515   0.15960   0.81839   0.00000  Uiso   1.00
O523   O     0.52575   0.16908   0.82793   0.00000  Uiso   1.00
O524   O     0.43809   0.08578   0.74413   0.00000  Uiso   1.00
O525   O     0.53869   0.09526   0.75367   0.00000  Uiso   1.00
O526   O     0.47425   0.16425   0.67207   0.00000  Uiso   1.00
O527   O     0.57485   0.17373   0.68161   0.00000  Uiso   1.00
O528   O     0.66559   0.22381   0.59863   0.00000  Uiso   1.00
C529   C     0.84846   0.26671   0.75099   0.00000  Uiso   1.00
C530   C     0.77671   0.16508   0.90423   0.00000  Uiso   1.00
C531   C     0.85544   0.32252   0.75252   0.00000  Uiso   1.00
C532   C     0.79918   0.16559   0.84751   0.00000  Uiso   1.00
C533   C     0.81242   0.01082   0.73936   0.00000  Uiso   1.00
C534   C     0.81910   0.06673   0.74603   0.00000  Uiso   1.00
C535   C     0.86789   0.17053   0.65253   0.00000  Uiso   1.00
C536   C     0.95924   0.22886   0.52442   0.00000  Uiso   1.00
C537   C     0.88963   0.17896   0.59654   0.00000  Uiso   1.00
C538   C     0.71517   0.13641   0.92596   0.00000  Uiso   1.00
C539   C     0.69863   0.12612   0.97856   0.00000  Uiso   1.00
C540   C     0.80481   0.16977   0.98830   0.00000  Uiso   1.00
C541   C     0.74302   0.14084   0.50881   0.00000  Uiso   1.00
C542   C     0.81897   0.18722   0.93688   0.00000  Uiso   1.00
C543   C     0.85259   0.18271   0.51749   0.00000  Uiso   1.00
C544   C     0.91118   0.21653   0.99669   0.00000  Uiso   1.00
C545   C     0.92069   0.23937   0.94919   0.00000  Uiso   1.00
C546   C     0.87421   0.22687   0.92000   0.00000  Uiso   1.00
C547   C     0.84389   0.16317   0.56690   0.00000  Uiso   1.00
C548   C     0.94969   0.20966   0.57368   0.00000  Uiso   1.00
Cu549  Cu    0.77377   0.16105   0.74435   0.00000  Uiso   1.00
Cu550  Cu    0.89290   0.17228   0.75564   0.00000  Uiso   1.00
H551   H     0.67019   0.20568   0.78976   0.00000  Uiso   1.00
H552   H     0.73976   0.00345   0.70715   0.00000  Uiso   1.00
H553   H     0.96513   0.09896   0.91654   0.00000  Uiso   1.00
H554   H     0.92039   0.28216   0.87124   0.00000  Uiso   1.00
H555   H     0.99646   0.12766   0.71024   0.00000  Uiso   1.00
H556   H     0.96402   0.26807   0.93520   0.00000  Uiso   1.00
H557   H     0.67121   0.25395   0.50789   0.00000  Uiso   1.00
H558   H     0.80085   0.13637   0.58421   0.00000  Uiso   1.00
H559   H     0.72654   0.13019   0.54860   0.00000  Uiso   1.00
H560   H     0.98487   0.10469   0.99605   0.00000  Uiso   1.00
H561   H     0.89573   0.01272   0.76622   0.00000  Uiso   1.00
H562   H     0.66678   0.19273   0.61709   0.00000  Uiso   1.00
N563   N     0.98241   0.18074   0.76416   0.00000  Uiso   1.00
N564   N     0.68426   0.15259   0.73584   0.00000  Uiso   1.00
O565   O     0.79464   0.23807   0.74633   0.00000  Uiso   1.00
O566   O     0.76327   0.31391   0.71906   0.00000  Uiso   1.00
O567   O     0.67245   0.11761   0.89512   0.00000  Uiso   1.00
O568   O     0.87962   0.25593   0.87729   0.00000  Uiso   1.00
O569   O     0.89524   0.24755   0.75586   0.00000  Uiso   1.00
O570   O     0.75848   0.15960   0.81839   0.00000  Uiso   1.00
O571   O     0.85908   0.16908   0.82793   0.00000  Uiso   1.00
O572   O     0.77142   0.08578   0.74413   0.00000  Uiso   1.00
O573   O     0.87203   0.09526   0.75367   0.00000  Uiso   1.00
O574   O     0.80758   0.16425   0.67207   0.00000  Uiso   1.00
O575   O     0.90819   0.17373   0.68161   0.00000  Uiso   1.00
O576   O     0.99893   0.22381   0.59863   0.00000  Uiso   1.00
C577   C     0.18180   0.60005   0.75099   0.00000  Uiso   1.00
C578   C     0.11004   0.49841   0.90423   0.00000  Uiso   1.00
C579   C     0.18878   0.65585   0.75252   0.00000  Uiso   1.00
C580   C     0.13251   0.49892   0.84751   0.00000  Uiso   1.00
C581   C     0.14575   0.34416   0.73936   0.00000  Uiso   1.00
C582   C     0.15243   0.40006   0.74603   0.00000  Uiso   1.00
C583   C     0.20122   0.50386   0.65253   0.00000  Uiso   1.00
C584   C     0.29257   0.56219   0.52442   0.00000  Uiso   1.00
C585   C     0.22297   0.51229   0.59654   0.00000  Uiso   1.00
C586   C     0.04850   0.46974   0.92596   0.00000  Uiso   1.00
C587   C     0.03196   0.45945   0.97856   0.00000  Uiso   1.00
C588   C     0.13815   0.50310   0.98830   0.00000  Uiso   1.00
C589   C     0.07635   0.47418   0.50881   0.00000  Uiso   1.00
C590   C     0.15230   0.52055   0.93688   0.00000  Uiso   1.00
C591   C     0.18593   0.51605   0.51749   0.00000  Uiso   1.00
C592   C     0.24452   0.54986   0.99669   0.00000  Uiso   1.00
C593   C     0.25402   0.57271   0.94919   0.00000  Uiso   1.00
C594   C     0.20755   0.56020   0.92000   0.00000  Uiso   1.00
C595   C     0.17723   0.49651   0.56690   0.00000  Uiso   1.00
C596   C     0.28302   0.54299   0.57368   0.00000  Uiso   1.00
Cu597  Cu    0.10710   0.49439   0.74435   0.00000  Uiso   1.00
Cu598  Cu    0.22623   0.50561   0.75564   0.00000  Uiso   1.00
H599   H     0.00352   0.53901   0.78976   0.00000  Uiso   1.00
H600   H     0.07309   0.33678   0.70715   0.00000  Uiso   1.00
H601   H     0.29847   0.43230   0.91654   0.00000  Uiso   1.00
H602   H     0.25373   0.61550   0.87124   0.00000  Uiso   1.00
H603   H     0.32980   0.46100   0.71024   0.00000  Uiso   1.00
H604   H     0.29735   0.60140   0.93520   0.00000  Uiso   1.00
H605   H     0.00455   0.58728   0.50789   0.00000  Uiso   1.00
H606   H     0.13418   0.46971   0.58421   0.00000  Uiso   1.00
H607   H     0.05987   0.46352   0.54860   0.00000  Uiso   1.00
H608   H     0.31820   0.43803   0.99605   0.00000  Uiso   1.00
H609   H     0.22907   0.34606   0.76622   0.00000  Uiso   1.00
H610   H     0.00011   0.52606   0.61709   0.00000  Uiso   1.00
N611   N     0.31574   0.51407   0.76416   0.00000  Uiso   1.00
N612   N     0.01759   0.48593   0.73584   0.00000  Uiso   1.00
O613   O     0.12797   0.57141   0.74633   0.00000  Uiso   1.00
O614   O     0.09661   0.64724   0.71906   0.00000  Uiso   1.00
O615   O     0.00579   0.45094   0.89512   0.00000  Uiso   1.00
O616   O     0.21295   0.58926   0.87729   0.00000  Uiso   1.00
O617   O     0.22858   0.58089   0.75586   0.00000  Uiso   1.00
O618   O     0.09181   0.49293   0.81839   0.00000  Uiso   1.00
O619   O     0.19242   0.50241   0.82793   0.00000  Uiso   1.00
O620   O     0.10476   0.41911   0.74413   0.00000  Uiso   1.00
O621   O     0.20536   0.42859   0.75367   0.00000  Uiso   1.00
O622   O     0.14092   0.49759   0.67207   0.00000  Uiso   1.00
O623   O     0.24152   0.50707   0.68161   0.00000  Uiso   1.00
O624   O     0.33226   0.55715   0.59863   0.00000  Uiso   1.00
C625   C     0.51513   0.60005   0.75099   0.00000  Uiso   1.00
C626   C     0.44338   0.49841   0.90423   0.00000  Uiso   1.00
C627   C     0.52211   0.65585   0.75252   0.00000  Uiso   1.00
C628   C     0.46584   0.49892   0.84751   0.00000  Uiso   1.00
C629   C     0.47908   0.34416   0.73936   0.00000  Uiso   1.00
C630   C     0.48576   0.40006   0.74603   0.00000  Uiso   1.00
C631   C     0.53455   0.50386   0.65253   0.00000  Uiso   1.00
C632   C     0.62590   0.56219   0.52442   0.00000  Uiso   1.00
C633   C     0.55630   0.51229   0.59654   0.00000  Uiso   1.00
C634   C     0.38184   0.46974   0.92596   0.00000  Uiso   1.00
C635   C     0.36530   0.45945   0.97856   0.00000  Uiso   1.00
C636   C     0.47148   0.50310   0.98830   0.00000  Uiso   1.00
C637   C     0.40969   0.47418   0.50881   0.00000  Uiso   1.00
C638   C     0.48563   0.52055   0.93688   0.00000  Uiso   1.00
C639   C     0.51926   0.51605   0.51749   0.00000  Uiso   1.00
C640   C     0.57785   0.54986   0.99669   0.00000  Uiso   1.00
C641   C     0.58735   0.57271   0.94919   0.00000  Uiso   1.00
C642   C     0.54088   0.56020   0.92000   0.00000  Uiso   1.00
C643   C     0.51056   0.49651   0.56690   0.00000  Uiso   1.00
C644   C     0.61636   0.54299   0.57368   0.00000  Uiso   1.00
Cu645  Cu    0.44043   0.49439   0.74435   0.00000  Uiso   1.00
Cu646  Cu    0.55957   0.50561   0.75564   0.00000  Uiso   1.00
H647   H     0.33686   0.53901   0.78976   0.00000  Uiso   1.00
H648   H     0.40642   0.33678   0.70715   0.00000  Uiso   1.00
H649   H     0.63180   0.43230   0.91654   0.00000  Uiso   1.00
H650   H     0.58706   0.61550   0.87124   0.00000  Uiso   1.00
H651   H     0.66313   0.46100   0.71024   0.00000  Uiso   1.00
H652   H     0.63069   0.60140   0.93520   0.00000  Uiso   1.00
H653   H     0.33788   0.58728   0.50789   0.00000  Uiso   1.00
H654   H     0.46752   0.46971   0.58421   0.00000  Uiso   1.00
H655   H     0.39320   0.46352   0.54860   0.00000  Uiso   1.00
H656   H     0.65154   0.43803   0.99605   0.00000  Uiso   1.00
H657   H     0.56240   0.34606   0.76622   0.00000  Uiso   1.00
H658   H     0.33345   0.52606   0.61709   0.00000  Uiso   1.00
N659   N     0.64908   0.51407   0.76416   0.00000  Uiso   1.00
N660   N     0.35092   0.48593   0.73584   0.00000  Uiso   1.00
O661   O     0.46131   0.57141   0.74633   0.00000  Uiso   1.00
O662   O     0.42994   0.64724   0.71906   0.00000  Uiso   1.00
O663   O     0.33912   0.45094   0.89512   0.00000  Uiso   1.00
O664   O     0.54629   0.58926   0.87729   0.00000  Uiso   1.00
O665   O     0.56191   0.58089   0.75586   0.00000  Uiso   1.00
O666   O     0.42515   0.49293   0.81839   0.00000  Uiso   1.00
O667   O     0.52575   0.50241   0.82793   0.00000  Uiso   1.00
O668   O     0.43809   0.41911   0.74413   0.00000  Uiso   1.00
O669   O     0.53869   0.42859   0.75367   0.00000  Uiso   1.00
O670   O     0.47425   0.49759   0.67207   0.00000  Uiso   1.00
O671   O     0.57485   0.50707   0.68161   0.00000  Uiso   1.00
O672   O     0.66559   0.55715   0.59863   0.00000  Uiso   1.00
C673   C     0.84846   0.60005   0.75099   0.00000  Uiso   1.00
C674   C     0.77671   0.49841   0.90423   0.00000  Uiso   1.00
C675   C     0.85544   0.65585   0.75252   0.00000  Uiso   1.00
C676   C     0.79918   0.49892   0.84751   0.00000  Uiso   1.00
C677   C     0.81242   0.34416   0.73936   0.00000  Uiso   1.00
C678   C     0.81910   0.40006   0.74603   0.00000  Uiso   1.00
C679   C     0.86789   0.50386   0.65253   0.00000  Uiso   1.00
C680   C     0.95924   0.56219   0.52442   0.00000  Uiso   1.00
C681   C     0.88963   0.51229   0.59654   0.00000  Uiso   1.00
C682   C     0.71517   0.46974   0.92596   0.00000  Uiso   1.00
C683   C     0.69863   0.45945   0.97856   0.00000  Uiso   1.00
C684   C     0.80481   0.50310   0.98830   0.00000  Uiso   1.00
C685   C     0.74302   0.47418   0.50881   0.00000  Uiso   1.00
C686   C     0.81897   0.52055   0.93688   0.00000  Uiso   1.00
C687   C     0.85259   0.51605   0.51749   0.00000  Uiso   1.00
C688   C     0.91118   0.54986   0.99669   0.00000  Uiso   1.00
C689   C     0.92069   0.57271   0.94919   0.00000  Uiso   1.00
C690   C     0.87421   0.56020   0.92000   0.00000  Uiso   1.00
C691   C     0.84389   0.49651   0.56690   0.00000  Uiso   1.00
C692   C     0.94969   0.54299   0.57368   0.00000  Uiso   1.00
Cu693  Cu    0.77377   0.49439   0.74435   0.00000  Uiso   1.00
Cu694  Cu    0.89290   0.50561   0.75564   0.00000  Uiso   1.00
H695   H     0.67019   0.53901   0.78976   0.00000  Uiso   1.00
H696   H     0.73976   0.33678   0.70715   0.00000  Uiso   1.00
H697   H     0.96513   0.43230   0.91654   0.00000  Uiso   1.00
H698   H     0.92039   0.61550   0.87124   0.00000  Uiso   1.00
H699   H     0.99646   0.46100   0.71024   0.00000  Uiso   1.00
H700   H     0.96402   0.60140   0.93520   0.00000  Uiso   1.00
H701   H     0.67121   0.58728   0.50789   0.00000  Uiso   1.00
H702   H     0.80085   0.46971   0.58421   0.00000  Uiso   1.00
H703   H     0.72654   0.46352   0.54860   0.00000  Uiso   1.00
H704   H     0.98487   0.43803   0.99605   0.00000  Uiso   1.00
H705   H     0.89573   0.34606   0.76622   0.00000  Uiso   1.00
H706   H     0.66678   0.52606   0.61709   0.00000  Uiso   1.00
N707   N     0.98241   0.51407   0.76416   0.00000  Uiso   1.00
N708   N     0.68426   0.48593   0.73584   0.00000  Uiso   1.00
O709   O     0.79464   0.57141   0.74633   0.00000  Uiso   1.00
O710   O     0.76327   0.64724   0.71906   0.00000  Uiso   1.00
O711   O     0.67245   0.45094   0.89512   0.00000  Uiso   1.00
O712   O     0.87962   0.58926   0.87729   0.00000  Uiso   1.00
O713   O     0.89524   0.58089   0.75586   0.00000  Uiso   1.00
O714   O     0.75848   0.49293   0.81839   0.00000  Uiso   1.00
O715   O     0.85908   0.50241   0.82793   0.00000  Uiso   1.00
O716   O     0.77142   0.41911   0.74413   0.00000  Uiso   1.00
O717   O     0.87203   0.42859   0.75367   0.00000  Uiso   1.00
O718   O     0.80758   0.49759   0.67207   0.00000  Uiso   1.00
O719   O     0.90819   0.50707   0.68161   0.00000  Uiso   1.00
O720   O     0.99893   0.55715   0.59863   0.00000  Uiso   1.00
C721   C     0.18180   0.93338   0.75099   0.00000  Uiso   1.00
C722   C     0.11004   0.83175   0.90423   0.00000  Uiso   1.00
C723   C     0.18878   0.98918   0.75252   0.00000  Uiso   1.00
C724   C     0.13251   0.83225   0.84751   0.00000  Uiso   1.00
C725   C     0.14575   0.67749   0.73936   0.00000  Uiso   1.00
C726   C     0.15243   0.73339   0.74603   0.00000  Uiso   1.00
C727   C     0.20122   0.83719   0.65253   0.00000  Uiso   1.00
C728   C     0.29257   0.89552   0.52442   0.00000  Uiso   1.00
C729   C     0.22297   0.84563   0.59654   0.00000  Uiso   1.00
C730   C     0.04850   0.80307   0.92596   0.00000  Uiso   1.00
C731   C     0.03196   0.79279   0.97856   0.00000  Uiso   1.00
C732   C     0.13815   0.83643   0.98830   0.00000  Uiso   1.00
C733   C     0.07635   0.80751   0.50881   0.00000  Uiso   1.00
C734   C     0.15230   0.85388   0.93688   0.00000  Uiso   1.00
C735   C     0.18593   0.84938   0.51749   0.00000  Uiso   1.00
C736   C     0.24452   0.88320   0.99669   0.00000  Uiso   1.00
C737   C     0.25402   0.90604   0.94919   0.00000  Uiso   1.00
C738   C     0.20755   0.89353   0.92000   0.00000  Uiso   1.00
C739   C     0.17723   0.82984   0.56690   0.00000  Uiso   1.00
C740   C     0.28302   0.87632   0.57368   0.00000  Uiso   1.00
Cu741  Cu    0.10710   0.82772   0.74435   0.00000  Uiso   1.00
Cu742  Cu    0.22623   0.83895   0.75564   0.00000  Uiso   1.00
H743   H     0.00352   0.87234   0.78976   0.00000  Uiso   1.00
H744   H     0.07309   0.67012   0.70715   0.00000  Uiso   1.00
H745   H     0.29847   0.76563   0.91654   0.00000  Uiso   1.00
H746   H     0.25373   0.94883   0.87124   0.00000  Uiso   1.00
H747   H     0.32980   0.79433   0.71024   0.00000  Uiso   1.00
H748   H     0.29735   0.93473   0.93520   0.00000  Uiso   1.00
H749   H     0.00455   0.92061   0.50789   0.00000  Uiso   1.00
H750   H     0.13418   0.80304   0.58421   0.00000  Uiso   1.00
H751   H     0.05987   0.79686   0.54860   0.00000  Uiso   1.00
H752   H     0.31820   0.77136   0.99605   0.00000  Uiso   1.00
H753   H     0.22907   0.67939   0.76622   0.00000  Uiso   1.00
H754   H     0.00011   0.85940   0.61709   0.00000  Uiso   1.00
N755   N     0.31574   0.84741   0.76416   0.00000  Uiso   1.00
N756   N     0.01759   0.81926   0.73584   0.00000  Uiso   1.00
O757   O     0.12797   0.90474   0.74633   0.00000  Uiso   1.00
O758   O     0.09661   0.98058   0.71906   0.00000  Uiso   1.00
O759   O     0.00579   0.78428   0.89512   0.00000  Uiso   1.00
O760   O     0.21295   0.92260   0.87729   0.00000  Uiso   1.00
O761   O     0.22858   0.91422   0.75586   0.00000  Uiso   1.00
O762   O     0.09181   0.82627   0.81839   0.00000  Uiso   1.00
O763   O     0.19242   0.83575   0.82793   0.00000  Uiso   1.00
O764   O     0.10476   0.75245   0.74413   0.00000  Uiso   1.00
O765   O     0.20536   0.76193   0.75367   0.00000  Uiso   1.00
O766   O     0.14092   0.83092   0.67207   0.00000  Uiso   1.00
O767   O     0.24152   0.84040   0.68161   0.00000  Uiso   1.00
O768   O     0.33226   0.89048   0.59863   0.00000  Uiso   1.00
C769   C     0.51513   0.93338   0.75099   0.00000  Uiso   1.00
C770   C     0.44338   0.83175   0.90423   0.00000  Uiso   1.00
C771   C     0.52211   0.98918   0.75252   0.00000  Uiso   1.00
C772   C     0.46584   0.83225   0.84751   0.00000  Uiso   1.00
C773   C     0.47908   0.67749   0.73936   0.00000  Uiso   1.00
C774   C     0.48576   0.73339   0.74603   0.00000  Uiso   1.00
C775   C     0.53455   0.83719   0.65253   0.00000  Uiso   1.00
C776   C     0.62590   0.89552   0.52442   0.00000  Uiso   1.00
C777   C     0.55630   0.84563   0.59654   0.00000  Uiso   1.00
C778   C     0.38184   0.80307   0.92596   0.00000  Uiso   1.00
C779   C     0.36530   0.79279   0.97856   0.00000  Uiso   1.00
C780   C     0.47148   0.83643   0.98830   0.00000  Uiso   1.00
C781   C     0.40969   0.80751   0.50881   0.00000  Uiso   1.00
C782   C     0.48563   0.85388   0.93688   0.00000  Uiso   1.00
C783   C     0.51926   0.84938   0.51749   0.00000  Uiso   1.00
C784   C     0.57785   0.88320   0.99669   0.00000  Uiso   1.00
C785   C     0.58735   0.90604   0.94919   0.00000  Uiso   1.00
C786   C     0.54088   0.89353   0.92000   0.00000  Uiso   1.00
C787   C     0.51056   0.82984   0.56690   0.00000  Uiso   1.00
C788   C     0.61636   0.87632   0.57368   0.00000  Uiso   1.00
Cu789  Cu    0.44043   0.82772   0.74435   0.00000  Uiso   1.00
Cu790  Cu    0.55957   0.83895   0.75564   0.00000  Uiso   1.00
H791   H     0.33686   0.87234   0.78976   0.00000  Uiso   1.00
H792   H     0.40642   0.67012   0.70715   0.00000  Uiso   1.00
H793   H     0.63180   0.76563   0.91654   0.00000  Uiso   1.00
H794   H     0.58706   0.94883   0.87124   0.00000  Uiso   1.00
H795   H     0.66313   0.79433   0.71024   0.00000  Uiso   1.00
H796   H     0.63069   0.93473   0.93520   0.00000  Uiso   1.00
H797   H     0.33788   0.92061   0.50789   0.00000  Uiso   1.00
H798   H     0.46752   0.80304   0.58421   0.00000  Uiso   1.00
H799   H     0.39320   0.79686   0.54860   0.00000  Uiso   1.00
H800   H     0.65154   0.77136   0.99605   0.00000  Uiso   1.00
H801   H     0.56240   0.67939   0.76622   0.00000  Uiso   1.00
H802   H     0.33345   0.85940   0.61709   0.00000  Uiso   1.00
N803   N     0.64908   0.84741   0.76416   0.00000  Uiso   1.00
N804   N     0.35092   0.81926   0.73584   0.00000  Uiso   1.00
O805   O     0.46131   0.90474   0.74633   0.00000  Uiso   1.00
O806   O     0.42994   0.98058   0.71906   0.00000  Uiso   1.00
O807   O     0.33912   0.78428   0.89512   0.00000  Uiso   1.00
O808   O     0.54629   0.92260   0.87729   0.00000  Uiso   1.00
O809   O     0.56191   0.91422   0.75586   0.00000  Uiso   1.00
O810   O     0.42515   0.82627   0.81839   0.00000  Uiso   1.00
O811   O     0.52575   0.83575   0.82793   0.00000  Uiso   1.00
O812   O     0.43809   0.75245   0.74413   0.00000  Uiso   1.00
O813   O     0.53869   0.76193   0.75367   0.00000  Uiso   1.00
O814   O     0.47425   0.83092   0.67207   0.00000  Uiso   1.00
O815   O     0.57485   0.84040   0.68161   0.00000  Uiso   1.00
O816   O     0.66559   0.89048   0.59863   0.00000  Uiso   1.00
C817   C     0.84846   0.93338   0.75099   0.00000  Uiso   1.00
C818   C     0.77671   0.83175   0.90423   0.00000  Uiso   1.00
C819   C     0.85544   0.98918   0.75252   0.00000  Uiso   1.00
C820   C     0.79918   0.83225   0.84751   0.00000  Uiso   1.00
C821   C     0.81242   0.67749   0.73936   0.00000  Uiso   1.00
C822   C     0.81910   0.73339   0.74603   0.00000  Uiso   1.00
C823   C     0.86789   0.83719   0.65253   0.00000  Uiso   1.00
C824   C     0.95924   0.89552   0.52442   0.00000  Uiso   1.00
C825   C     0.88963   0.84563   0.59654   0.00000  Uiso   1.00
C826   C     0.71517   0.80307   0.92596   0.00000  Uiso   1.00
C827   C     0.69863   0.79279   0.97856   0.00000  Uiso   1.00
C828   C     0.80481   0.83643   0.98830   0.00000  Uiso   1.00
C829   C     0.74302   0.80751   0.50881   0.00000  Uiso   1.00
C830   C     0.81897   0.85388   0.93688   0.00000  Uiso   1.00
C831   C     0.85259   0.84938   0.51749   0.00000  Uiso   1.00
C832   C     0.91118   0.88320   0.99669   0.00000  Uiso   1.00
C833   C     0.92069   0.90604   0.94919   0.00000  Uiso   1.00
C834   C     0.87421   0.89353   0.92000   0.00000  Uiso   1.00
C835   C     0.84389   0.82984   0.56690   0.00000  Uiso   1.00
C836   C     0.94969   0.87632   0.57368   0.00000  Uiso   1.00
Cu837  Cu    0.77377   0.82772   0.74435   0.00000  Uiso   1.00
Cu838  Cu    0.89290   0.83895   0.75564   0.00000  Uiso   1.00
H839   H     0.67019   0.87234   0.78976   0.00000  Uiso   1.00
H840   H     0.73976   0.67012   0.70715   0.00000  Uiso   1.00
H841   H     0.96513   0.76563   0.91654   0.00000  Uiso   1.00
H842   H     0.92039   0.94883   0.87124   0.00000  Uiso   1.00
H843   H     0.99646   0.79433   0.71024   0.00000  Uiso   1.00
H844   H     0.96402   0.93473   0.93520   0.00000  Uiso   1.00
H845   H     0.67121   0.92061   0.50789   0.00000  Uiso   1.00
H846   H     0.80085   0.80304   0.58421   0.00000  Uiso   1.00
H847   H     0.72654   0.79686   0.54860   0.00000  Uiso   1.00
H848   H     0.98487   0.77136   0.99605   0.00000  Uiso   1.00
H849   H     0.89573   0.67939   0.76622   0.00000  Uiso   1.00
H850   H     0.66678   0.85940   0.61709   0.00000  Uiso   1.00
N851   N     0.98241   0.84741   0.76416   0.00000  Uiso   1.00
N852   N     0.68426   0.81926   0.73584   0.00000  Uiso   1.00
O853   O     0.79464   0.90474   0.74633   0.00000  Uiso   1.00
O854   O     0.76327   0.98058   0.71906   0.00000  Uiso   1.00
O855   O     0.67245   0.78428   0.89512   0.00000  Uiso   1.00
O856   O     0.87962   0.92260   0.87729   0.00000  Uiso   1.00
O857   O     0.89524   0.91422   0.75586   0.00000  Uiso   1.00
O858   O     0.75848   0.82627   0.81839   0.00000  Uiso   1.00
O859   O     0.85908   0.83575   0.82793   0.00000  Uiso   1.00
O860   O     0.77142   0.75245   0.74413   0.00000  Uiso   1.00
O861   O     0.87203   0.76193   0.75367   0.00000  Uiso   1.00
O862   O     0.80758   0.83092   0.67207   0.00000  Uiso   1.00
O863   O     0.90819   0.84040   0.68161   0.00000  Uiso   1.00
O864   O     0.99893   0.89048   0.59863   0.00000  Uiso   1.00
loop_
_geom_bond_atom_site_label_1
_geom_bond_atom_site_label_2
_geom_bond_distance
_geom_bond_site_symmetry_2
_ccdc_geom_bond_type
C1     O37     1.287   .     A
C1     O41     1.289   .     A
C1     C3      1.433   .     S
C2     C4      1.484   .     S
C2     C14     1.427   .     A
C2     C10     1.415   .     A
C3     C149    1.338   .     S
C3     H177    1.088   .     S
C4     O43     1.300   .     A
C4     O42     1.300   .     A
C5     C6      1.440   .     S
C5     C291    1.338   1_545 S
C5     O326    1.390   1_545 S
C6     O44     1.283   .     A
C6     O45     1.293   .     A
C7     O46     1.300   .     A
C7     C9      1.479   .     S
C7     O47     1.300   .     A
C8     C20     1.395   .     A
C8     C448    1.402   1_554 S
C8     H77     1.084   .     S
C9     C20     1.417   .     A
C9     C19     1.401   .     A
C10    C11     1.398   .     A
C10    O39     1.383   .     S
C11    C445    1.387   .     S
C11    H128    1.083   1_455 S
C12    C14     1.421   .     A
C12    C445    1.414   .     S
C12    C447    1.425   .     S
C13    H31     1.077   .     S
C13    C444    1.414   1_554 S
C13    C443    1.387   1_554 S
C14    C18     1.421   .     A
C15    C19     1.405   .     A
C15    C444    1.425   1_554 S
C15    C448    1.414   1_554 S
C16    C17     1.393   .     A
C16    C447    1.414   .     S
C16    C440    1.402   .     S
C17    H28     1.084   .     S
C17    C18     1.401   .     A
C18    O40     1.383   .     S
C19    H30     1.076   .     S
C20    O48     1.377   .     S
Cu21   O44     1.960   .     S
Cu21   N36     2.016   .     S
Cu21   O42     1.931   .     S
Cu21   O37     1.963   .     S
Cu21   O46     1.906   .     S
Cu21   Cu22    2.683   .     S
Cu22   N35     2.016   .     S
Cu22   O47     1.931   .     S
Cu22   O41     1.960   .     S
Cu22   O45     1.963   .     S
Cu22   O43     1.906   .     S
H23    N131    1.029   1_455 S
H24    O326    0.990   1_545 S
H25    O87     0.992   .     S
H26    O40     0.992   .     S
H27    N84     1.029   .     S
H29    C104    1.084   1_455 S
H32    C59     1.083   .     S
H33    C291    1.088   1_545 S
H34    O144    0.989   1_455 S
N35    H71     1.029   .     S
N35    N84     1.282   .     S
N36    N131    1.282   1_455 S
N36    H123    1.029   1_455 S
O38    C149    1.390   .     S
O38    H168    0.990   .     S
O39    H121    0.992   1_455 S
O48    H82     0.989   .     S
C49    O85     1.287   .     A
C49    O89     1.289   .     A
C49    C51     1.433   .     S
C50    C52     1.484   .     S
C50    C62     1.427   .     A
C50    C58     1.415   .     A
C51    C197    1.338   .     S
C51    H225    1.088   .     S
C52    O91     1.300   .     A
C52    O90     1.300   .     A
C53    C54     1.440   .     S
C53    C339    1.338   1_545 S
C53    O374    1.390   1_545 S
C54    O92     1.283   .     A
C54    O93     1.293   .     A
C55    O94     1.300   .     A
C55    C57     1.479   .     S
C55    O95     1.300   .     A
C56    C68     1.395   .     A
C56    C496    1.402   1_554 S
C56    H125    1.084   .     S
C57    C68     1.417   .     A
C57    C67     1.401   .     A
C58    C59     1.398   .     A
C58    O87     1.383   .     S
C59    C493    1.387   .     S
C60    C62     1.421   .     A
C60    C493    1.414   .     S
C60    C495    1.425   .     S
C61    H79     1.077   .     S
C61    C492    1.414   1_554 S
C61    C491    1.387   1_554 S
C62    C66     1.421   .     A
C63    C67     1.405   .     A
C63    C492    1.425   1_554 S
C63    C496    1.414   1_554 S
C64    C65     1.393   .     A
C64    C495    1.414   .     S
C64    C488    1.402   .     S
C65    H76     1.084   .     S
C65    C66     1.401   .     A
C66    O88     1.383   .     S
C67    H78     1.076   .     S
C68    O96     1.377   .     S
Cu69   O92     1.960   .     S
Cu69   N84     2.016   .     S
Cu69   O90     1.931   .     S
Cu69   O85     1.963   .     S
Cu69   O94     1.906   .     S
Cu69   Cu70    2.683   .     S
Cu70   N83     2.016   .     S
Cu70   O95     1.931   .     S
Cu70   O89     1.960   .     S
Cu70   O93     1.963   .     S
Cu70   O91     1.906   .     S
H72    O374    0.990   1_545 S
H73    O135    0.992   .     S
H74    O88     0.992   .     S
H75    N132    1.029   .     S
H80    C107    1.083   .     S
H81    C339    1.088   1_545 S
N83    H119    1.029   .     S
N83    N132    1.282   .     S
O86    C197    1.390   .     S
O86    H216    0.990   .     S
O96    H130    0.989   .     S
C97    O133    1.287   .     A
C97    O137    1.289   .     A
C97    C99     1.433   .     S
C98    C100    1.484   .     S
C98    C110    1.427   .     A
C98    C106    1.415   .     A
C99    C245    1.338   .     S
C99    H273    1.088   .     S
C100   O139    1.300   .     A
C100   O138    1.300   .     A
C101   C102    1.440   .     S
C101   C387    1.338   1_545 S
C101   O422    1.390   1_545 S
C102   O140    1.283   .     A
C102   O141    1.293   .     A
C103   O142    1.300   .     A
C103   C105    1.479   .     S
C103   O143    1.300   .     A
C104   C116    1.395   .     A
C104   C544    1.402   1_554 S
C104   H29     1.084   1_655 S
C105   C116    1.417   .     A
C105   C115    1.401   .     A
C106   C107    1.398   .     A
C106   O135    1.383   .     S
C107   C541    1.387   .     S
C108   C110    1.421   .     A
C108   C541    1.414   .     S
C108   C543    1.425   .     S
C109   H127    1.077   .     S
C109   C540    1.414   1_554 S
C109   C539    1.387   1_554 S
C110   C114    1.421   .     A
C111   C115    1.405   .     A
C111   C540    1.425   1_554 S
C111   C544    1.414   1_554 S
C112   C113    1.393   .     A
C112   C543    1.414   .     S
C112   C536    1.402   .     S
C113   H124    1.084   .     S
C113   C114    1.401   .     A
C114   O136    1.383   .     S
C115   H126    1.076   .     S
C116   O144    1.377   .     S
Cu117  O140    1.960   .     S
Cu117  N132    2.016   .     S
Cu117  O138    1.931   .     S
Cu117  O133    1.963   .     S
Cu117  O142    1.906   .     S
Cu117  Cu118   2.683   .     S
Cu118  N131    2.016   .     S
Cu118  O143    1.931   .     S
Cu118  O137    1.960   .     S
Cu118  O141    1.963   .     S
Cu118  O139    1.906   .     S
H120   O422    0.990   1_545 S
H121   O39     0.992   1_655 S
H122   O136    0.992   .     S
H123   N36     1.029   1_655 S
H128   C11     1.083   1_655 S
H129   C387    1.088   1_545 S
N131   H23     1.029   1_655 S
N131   N36     1.282   1_655 S
O134   C245    1.390   .     S
O134   H264    0.990   .     S
O144   H34     0.989   1_655 S
C145   O181    1.287   .     A
C145   O185    1.289   .     A
C145   C147    1.433   .     S
C146   C148    1.484   .     S
C146   C158    1.427   .     A
C146   C154    1.415   .     A
C147   C293    1.338   .     S
C147   H321    1.088   .     S
C148   O187    1.300   .     A
C148   O186    1.300   .     A
C149   C150    1.440   .     S
C150   O188    1.283   .     A
C150   O189    1.293   .     A
C151   O190    1.300   .     A
C151   C153    1.479   .     S
C151   O191    1.300   .     A
C152   C164    1.395   .     A
C152   C592    1.402   1_554 S
C152   H221    1.084   .     S
C153   C164    1.417   .     A
C153   C163    1.401   .     A
C154   C155    1.398   .     A
C154   O183    1.383   .     S
C155   C589    1.387   .     S
C155   H272    1.083   1_455 S
C156   C158    1.421   .     A
C156   C589    1.414   .     S
C156   C591    1.425   .     S
C157   H175    1.077   .     S
C157   C588    1.414   1_554 S
C157   C587    1.387   1_554 S
C158   C162    1.421   .     A
C159   C163    1.405   .     A
C159   C588    1.425   1_554 S
C159   C592    1.414   1_554 S
C160   C161    1.393   .     A
C160   C591    1.414   .     S
C160   C584    1.402   .     S
C161   H172    1.084   .     S
C161   C162    1.401   .     A
C162   O184    1.383   .     S
C163   H174    1.076   .     S
C164   O192    1.377   .     S
Cu165  O188    1.960   .     S
Cu165  N180    2.016   .     S
Cu165  O186    1.931   .     S
Cu165  O181    1.963   .     S
Cu165  O190    1.906   .     S
Cu165  Cu166   2.683   .     S
Cu166  N179    2.016   .     S
Cu166  O191    1.931   .     S
Cu166  O185    1.960   .     S
Cu166  O189    1.963   .     S
Cu166  O187    1.906   .     S
H167   N275    1.029   1_455 S
H169   O231    0.992   .     S
H170   O184    0.992   .     S
H171   N228    1.029   .     S
H173   C248    1.084   1_455 S
H176   C203    1.083   .     S
H178   O288    0.989   1_455 S
N179   H215    1.029   .     S
N179   N228    1.282   .     S
N180   N275    1.282   1_455 S
N180   H267    1.029   1_455 S
O182   C293    1.390   .     S
O182   H312    0.990   .     S
O183   H265    0.992   1_455 S
O192   H226    0.989   .     S
C193   O229    1.287   .     A
C193   O233    1.289   .     A
C193   C195    1.433   .     S
C194   C196    1.484   .     S
C194   C206    1.427   .     A
C194   C202    1.415   .     A
C195   C341    1.338   .     S
C195   H369    1.088   .     S
C196   O235    1.300   .     A
C196   O234    1.300   .     A
C197   C198    1.440   .     S
C198   O236    1.283   .     A
C198   O237    1.293   .     A
C199   O238    1.300   .     A
C199   C201    1.479   .     S
C199   O239    1.300   .     A
C200   C212    1.395   .     A
C200   C640    1.402   1_554 S
C200   H269    1.084   .     S
C201   C212    1.417   .     A
C201   C211    1.401   .     A
C202   C203    1.398   .     A
C202   O231    1.383   .     S
C203   C637    1.387   .     S
C204   C206    1.421   .     A
C204   C637    1.414   .     S
C204   C639    1.425   .     S
C205   H223    1.077   .     S
C205   C636    1.414   1_554 S
C205   C635    1.387   1_554 S
C206   C210    1.421   .     A
C207   C211    1.405   .     A
C207   C636    1.425   1_554 S
C207   C640    1.414   1_554 S
C208   C209    1.393   .     A
C208   C639    1.414   .     S
C208   C632    1.402   .     S
C209   H220    1.084   .     S
C209   C210    1.401   .     A
C210   O232    1.383   .     S
C211   H222    1.076   .     S
C212   O240    1.377   .     S
Cu213  O236    1.960   .     S
Cu213  N228    2.016   .     S
Cu213  O234    1.931   .     S
Cu213  O229    1.963   .     S
Cu213  O238    1.906   .     S
Cu213  Cu214   2.683   .     S
Cu214  N227    2.016   .     S
Cu214  O239    1.931   .     S
Cu214  O233    1.960   .     S
Cu214  O237    1.963   .     S
Cu214  O235    1.906   .     S
H217   O279    0.992   .     S
H218   O232    0.992   .     S
H219   N276    1.029   .     S
H224   C251    1.083   .     S
N227   H263    1.029   .     S
N227   N276    1.282   .     S
O230   C341    1.390   .     S
O230   H360    0.990   .     S
O240   H274    0.989   .     S
C241   O277    1.287   .     A
C241   O281    1.289   .     A
C241   C243    1.433   .     S
C242   C244    1.484   .     S
C242   C254    1.427   .     A
C242   C250    1.415   .     A
C243   C389    1.338   .     S
C243   H417    1.088   .     S
C244   O283    1.300   .     A
C244   O282    1.300   .     A
C245   C246    1.440   .     S
C246   O284    1.283   .     A
C246   O285    1.293   .     A
C247   O286    1.300   .     A
C247   C249    1.479   .     S
C247   O287    1.300   .     A
C248   C260    1.395   .     A
C248   C688    1.402   1_554 S
C248   H173    1.084   1_655 S
C249   C260    1.417   .     A
C249   C259    1.401   .     A
C250   C251    1.398   .     A
C250   O279    1.383   .     S
C251   C685    1.387   .     S
C252   C254    1.421   .     A
C252   C685    1.414   .     S
C252   C687    1.425   .     S
C253   H271    1.077   .     S
C253   C684    1.414   1_554 S
C253   C683    1.387   1_554 S
C254   C258    1.421   .     A
C255   C259    1.405   .     A
C255   C684    1.425   1_554 S
C255   C688    1.414   1_554 S
C256   C257    1.393   .     A
C256   C687    1.414   .     S
C256   C680    1.402   .     S
C257   H268    1.084   .     S
C257   C258    1.401   .     A
C258   O280    1.383   .     S
C259   H270    1.076   .     S
C260   O288    1.377   .     S
Cu261  O284    1.960   .     S
Cu261  N276    2.016   .     S
Cu261  O282    1.931   .     S
Cu261  O277    1.963   .     S
Cu261  O286    1.906   .     S
Cu261  Cu262   2.683   .     S
Cu262  N275    2.016   .     S
Cu262  O287    1.931   .     S
Cu262  O281    1.960   .     S
Cu262  O285    1.963   .     S
Cu262  O283    1.906   .     S
H265   O183    0.992   1_655 S
H266   O280    0.992   .     S
H267   N180    1.029   1_655 S
H272   C155    1.083   1_655 S
N275   H167    1.029   1_655 S
N275   N180    1.282   1_655 S
O278   C389    1.390   .     S
O278   H408    0.990   .     S
O288   H178    0.989   1_655 S
C289   O325    1.287   .     A
C289   O329    1.289   .     A
C289   C291    1.433   .     S
C290   C292    1.484   .     S
C290   C302    1.427   .     A
C290   C298    1.415   .     A
C291   C5      1.338   1_565 S
C291   H33     1.088   1_565 S
C292   O331    1.300   .     A
C292   O330    1.300   .     A
C293   C294    1.440   .     S
C294   O332    1.283   .     A
C294   O333    1.293   .     A
C295   O334    1.300   .     A
C295   C297    1.479   .     S
C295   O335    1.300   .     A
C296   C308    1.395   .     A
C296   C736    1.402   1_554 S
C296   H365    1.084   .     S
C297   C308    1.417   .     A
C297   C307    1.401   .     A
C298   C299    1.398   .     A
C298   O327    1.383   .     S
C299   C733    1.387   .     S
C299   H416    1.083   1_455 S
C300   C302    1.421   .     A
C300   C733    1.414   .     S
C300   C735    1.425   .     S
C301   H319    1.077   .     S
C301   C732    1.414   1_554 S
C301   C731    1.387   1_554 S
C302   C306    1.421   .     A
C303   C307    1.405   .     A
C303   C732    1.425   1_554 S
C303   C736    1.414   1_554 S
C304   C305    1.393   .     A
C304   C735    1.414   .     S
C304   C728    1.402   .     S
C305   H316    1.084   .     S
C305   C306    1.401   .     A
C306   O328    1.383   .     S
C307   H318    1.076   .     S
C308   O336    1.377   .     S
Cu309  O332    1.960   .     S
Cu309  N324    2.016   .     S
Cu309  O330    1.931   .     S
Cu309  O325    1.963   .     S
Cu309  O334    1.906   .     S
Cu309  Cu310   2.683   .     S
Cu310  N323    2.016   .     S
Cu310  O335    1.931   .     S
Cu310  O329    1.960   .     S
Cu310  O333    1.963   .     S
Cu310  O331    1.906   .     S
H311   N419    1.029   1_455 S
H313   O375    0.992   .     S
H314   O328    0.992   .     S
H315   N372    1.029   .     S
H317   C392    1.084   1_455 S
H320   C347    1.083   .     S
H322   O432    0.989   1_455 S
N323   H359    1.029   .     S
N323   N372    1.282   .     S
N324   N419    1.282   1_455 S
N324   H411    1.029   1_455 S
O326   C5      1.390   1_565 S
O326   H24     0.990   1_565 S
O327   H409    0.992   1_455 S
O336   H370    0.989   .     S
C337   O373    1.287   .     A
C337   O377    1.289   .     A
C337   C339    1.433   .     S
C338   C340    1.484   .     S
C338   C350    1.427   .     A
C338   C346    1.415   .     A
C339   C53     1.338   1_565 S
C339   H81     1.088   1_565 S
C340   O379    1.300   .     A
C340   O378    1.300   .     A
C341   C342    1.440   .     S
C342   O380    1.283   .     A
C342   O381    1.293   .     A
C343   O382    1.300   .     A
C343   C345    1.479   .     S
C343   O383    1.300   .     A
C344   C356    1.395   .     A
C344   C784    1.402   1_554 S
C344   H413    1.084   .     S
C345   C356    1.417   .     A
C345   C355    1.401   .     A
C346   C347    1.398   .     A
C346   O375    1.383   .     S
C347   C781    1.387   .     S
C348   C350    1.421   .     A
C348   C781    1.414   .     S
C348   C783    1.425   .     S
C349   H367    1.077   .     S
C349   C780    1.414   1_554 S
C349   C779    1.387   1_554 S
C350   C354    1.421   .     A
C351   C355    1.405   .     A
C351   C780    1.425   1_554 S
C351   C784    1.414   1_554 S
C352   C353    1.393   .     A
C352   C783    1.414   .     S
C352   C776    1.402   .     S
C353   H364    1.084   .     S
C353   C354    1.401   .     A
C354   O376    1.383   .     S
C355   H366    1.076   .     S
C356   O384    1.377   .     S
Cu357  O380    1.960   .     S
Cu357  N372    2.016   .     S
Cu357  O378    1.931   .     S
Cu357  O373    1.963   .     S
Cu357  O382    1.906   .     S
Cu357  Cu358   2.683   .     S
Cu358  N371    2.016   .     S
Cu358  O383    1.931   .     S
Cu358  O377    1.960   .     S
Cu358  O381    1.963   .     S
Cu358  O379    1.906   .     S
H361   O423    0.992   .     S
H362   O376    0.992   .     S
H363   N420    1.029   .     S
H368   C395    1.083   .     S
N371   H407    1.029   .     S
N371   N420    1.282   .     S
O374   C53     1.390   1_565 S
O374   H72     0.990   1_565 S
O384   H418    0.989   .     S
C385   O421    1.287   .     A
C385   O425    1.289   .     A
C385   C387    1.433   .     S
C386   C388    1.484   .     S
C386   C398    1.427   .     A
C386   C394    1.415   .     A
C387   C101    1.338   1_565 S
C387   H129    1.088   1_565 S
C388   O427    1.300   .     A
C388   O426    1.300   .     A
C389   C390    1.440   .     S
C390   O428    1.283   .     A
C390   O429    1.293   .     A
C391   O430    1.300   .     A
C391   C393    1.479   .     S
C391   O431    1.300   .     A
C392   C404    1.395   .     A
C392   C832    1.402   1_554 S
C392   H317    1.084   1_655 S
C393   C404    1.417   .     A
C393   C403    1.401   .     A
C394   C395    1.398   .     A
C394   O423    1.383   .     S
C395   C829    1.387   .     S
C396   C398    1.421   .     A
C396   C829    1.414   .     S
C396   C831    1.425   .     S
C397   H415    1.077   .     S
C397   C828    1.414   1_554 S
C397   C827    1.387   1_554 S
C398   C402    1.421   .     A
C399   C403    1.405   .     A
C399   C828    1.425   1_554 S
C399   C832    1.414   1_554 S
C400   C401    1.393   .     A
C400   C831    1.414   .     S
C400   C824    1.402   .     S
C401   H412    1.084   .     S
C401   C402    1.401   .     A
C402   O424    1.383   .     S
C403   H414    1.076   .     S
C404   O432    1.377   .     S
Cu405  O428    1.960   .     S
Cu405  N420    2.016   .     S
Cu405  O426    1.931   .     S
Cu405  O421    1.963   .     S
Cu405  O430    1.906   .     S
Cu405  Cu406   2.683   .     S
Cu406  N419    2.016   .     S
Cu406  O431    1.931   .     S
Cu406  O425    1.960   .     S
Cu406  O429    1.963   .     S
Cu406  O427    1.906   .     S
H409   O327    0.992   1_655 S
H410   O424    0.992   .     S
H411   N324    1.029   1_655 S
H416   C299    1.083   1_655 S
N419   H311    1.029   1_655 S
N419   N324    1.282   1_655 S
O422   C101    1.390   1_565 S
O422   H120    0.990   1_565 S
O432   H322    0.989   1_655 S
C433   O469    1.287   .     A
C433   O473    1.289   .     A
C433   C435    1.433   .     S
C434   C436    1.484   .     S
C434   C446    1.427   .     A
C434   C442    1.415   .     A
C435   C581    1.338   .     S
C435   H609    1.088   .     S
C436   O475    1.300   .     A
C436   O474    1.300   .     A
C437   C438    1.440   .     S
C437   C723    1.338   1_545 S
C437   O758    1.390   1_545 S
C438   O476    1.283   .     A
C438   O477    1.293   .     A
C439   O478    1.300   .     A
C439   C441    1.479   .     S
C439   O479    1.300   .     A
C440   C452    1.395   .     A
C440   H509    1.084   .     S
C441   C452    1.417   .     A
C441   C451    1.401   .     A
C442   C443    1.398   .     A
C442   O471    1.383   .     S
C443   C13     1.387   1_556 S
C443   H560    1.083   1_455 S
C444   C446    1.421   .     A
C444   C13     1.414   1_556 S
C444   C15     1.425   1_556 S
C445   H463    1.077   .     S
C446   C450    1.421   .     A
C447   C451    1.405   .     A
C448   C449    1.393   .     A
C448   C15     1.414   1_556 S
C448   C8      1.402   1_556 S
C449   H460    1.084   .     S
C449   C450    1.401   .     A
C450   O472    1.383   .     S
C451   H462    1.076   .     S
C452   O480    1.377   .     S
Cu453  O476    1.960   .     S
Cu453  N468    2.016   .     S
Cu453  O474    1.931   .     S
Cu453  O469    1.963   .     S
Cu453  O478    1.906   .     S
Cu453  Cu454   2.683   .     S
Cu454  N467    2.016   .     S
Cu454  O479    1.931   .     S
Cu454  O473    1.960   .     S
Cu454  O477    1.963   .     S
Cu454  O475    1.906   .     S
H455   N563    1.029   1_455 S
H456   O758    0.990   1_545 S
H457   O519    0.992   .     S
H458   O472    0.992   .     S
H459   N516    1.029   .     S
H461   C536    1.084   1_455 S
H464   C491    1.083   .     S
H465   C723    1.088   1_545 S
H466   O576    0.989   1_455 S
N467   H503    1.029   .     S
N467   N516    1.282   .     S
N468   N563    1.282   1_455 S
N468   H555    1.029   1_455 S
O470   C581    1.390   .     S
O470   H600    0.990   .     S
O471   H553    0.992   1_455 S
O480   H514    0.989   .     S
C481   O517    1.287   .     A
C481   O521    1.289   .     A
C481   C483    1.433   .     S
C482   C484    1.484   .     S
C482   C494    1.427   .     A
C482   C490    1.415   .     A
C483   C629    1.338   .     S
C483   H657    1.088   .     S
C484   O523    1.300   .     A
C484   O522    1.300   .     A
C485   C486    1.440   .     S
C485   C771    1.338   1_545 S
C485   O806    1.390   1_545 S
C486   O524    1.283   .     A
C486   O525    1.293   .     A
C487   O526    1.300   .     A
C487   C489    1.479   .     S
C487   O527    1.300   .     A
C488   C500    1.395   .     A
C488   H557    1.084   .     S
C489   C500    1.417   .     A
C489   C499    1.401   .     A
C490   C491    1.398   .     A
C490   O519    1.383   .     S
C491   C61     1.387   1_556 S
C492   C494    1.421   .     A
C492   C61     1.414   1_556 S
C492   C63     1.425   1_556 S
C493   H511    1.077   .     S
C494   C498    1.421   .     A
C495   C499    1.405   .     A
C496   C497    1.393   .     A
C496   C63     1.414   1_556 S
C496   C56     1.402   1_556 S
C497   H508    1.084   .     S
C497   C498    1.401   .     A
C498   O520    1.383   .     S
C499   H510    1.076   .     S
C500   O528    1.377   .     S
Cu501  O524    1.960   .     S
Cu501  N516    2.016   .     S
Cu501  O522    1.931   .     S
Cu501  O517    1.963   .     S
Cu501  O526    1.906   .     S
Cu501  Cu502   2.683   .     S
Cu502  N515    2.016   .     S
Cu502  O527    1.931   .     S
Cu502  O521    1.960   .     S
Cu502  O525    1.963   .     S
Cu502  O523    1.906   .     S
H504   O806    0.990   1_545 S
H505   O567    0.992   .     S
H506   O520    0.992   .     S
H507   N564    1.029   .     S
H512   C539    1.083   .     S
H513   C771    1.088   1_545 S
N515   H551    1.029   .     S
N515   N564    1.282   .     S
O518   C629    1.390   .     S
O518   H648    0.990   .     S
O528   H562    0.989   .     S
C529   O565    1.287   .     A
C529   O569    1.289   .     A
C529   C531    1.433   .     S
C530   C532    1.484   .     S
C530   C542    1.427   .     A
C530   C538    1.415   .     A
C531   C677    1.338   .     S
C531   H705    1.088   .     S
C532   O571    1.300   .     A
C532   O570    1.300   .     A
C533   C534    1.440   .     S
C533   C819    1.338   1_545 S
C533   O854    1.390   1_545 S
C534   O572    1.283   .     A
C534   O573    1.293   .     A
C535   O574    1.300   .     A
C535   C537    1.479   .     S
C535   O575    1.300   .     A
C536   C548    1.395   .     A
C536   H461    1.084   1_655 S
C537   C548    1.417   .     A
C537   C547    1.401   .     A
C538   C539    1.398   .     A
C538   O567    1.383   .     S
C539   C109    1.387   1_556 S
C540   C542    1.421   .     A
C540   C109    1.414   1_556 S
C540   C111    1.425   1_556 S
C541   H559    1.077   .     S
C542   C546    1.421   .     A
C543   C547    1.405   .     A
C544   C545    1.393   .     A
C544   C111    1.414   1_556 S
C544   C104    1.402   1_556 S
C545   H556    1.084   .     S
C545   C546    1.401   .     A
C546   O568    1.383   .     S
C547   H558    1.076   .     S
C548   O576    1.377   .     S
Cu549  O572    1.960   .     S
Cu549  N564    2.016   .     S
Cu549  O570    1.931   .     S
Cu549  O565    1.963   .     S
Cu549  O574    1.906   .     S
Cu549  Cu550   2.683   .     S
Cu550  N563    2.016   .     S
Cu550  O575    1.931   .     S
Cu550  O569    1.960   .     S
Cu550  O573    1.963   .     S
Cu550  O571    1.906   .     S
H552   O854    0.990   1_545 S
H553   O471    0.992   1_655 S
H554   O568    0.992   .     S
H555   N468    1.029   1_655 S
H560   C443    1.083   1_655 S
H561   C819    1.088   1_545 S
N563   H455    1.029   1_655 S
N563   N468    1.282   1_655 S
O566   C677    1.390   .     S
O566   H696    0.990   .     S
O576   H466    0.989   1_655 S
C577   O613    1.287   .     A
C577   O617    1.289   .     A
C577   C579    1.433   .     S
C578   C580    1.484   .     S
C578   C590    1.427   .     A
C578   C586    1.415   .     A
C579   C725    1.338   .     S
C579   H753    1.088   .     S
C580   O619    1.300   .     A
C580   O618    1.300   .     A
C581   C582    1.440   .     S
C582   O620    1.283   .     A
C582   O621    1.293   .     A
C583   O622    1.300   .     A
C583   C585    1.479   .     S
C583   O623    1.300   .     A
C584   C596    1.395   .     A
C584   H653    1.084   .     S
C585   C596    1.417   .     A
C585   C595    1.401   .     A
C586   C587    1.398   .     A
C586   O615    1.383   .     S
C587   C157    1.387   1_556 S
C587   H704    1.083   1_455 S
C588   C590    1.421   .     A
C588   C157    1.414   1_556 S
C588   C159    1.425   1_556 S
C589   H607    1.077   .     S
C590   C594    1.421   .     A
C591   C595    1.405   .     A
C592   C593    1.393   .     A
C592   C159    1.414   1_556 S
C592   C152    1.402   1_556 S
C593   H604    1.084   .     S
C593   C594    1.401   .     A
C594   O616    1.383   .     S
C595   H606    1.076   .     S
C596   O624    1.377   .     S
Cu597  O620    1.960   .     S
Cu597  N612    2.016   .     S
Cu597  O618    1.931   .     S
Cu597  O613    1.963   .     S
Cu597  O622    1.906   .     S
Cu597  Cu598   2.683   .     S
Cu598  N611    2.016   .     S
Cu598  O623    1.931   .     S
Cu598  O617    1.960   .     S
Cu598  O621    1.963   .     S
Cu598  O619    1.906   .     S
H599   N707    1.029   1_455 S
H601   O663    0.992   .     S
H602   O616    0.992   .     S
H603   N660    1.029   .     S
H605   C680    1.084   1_455 S
H608   C635    1.083   .     S
H610   O720    0.989   1_455 S
N611   H647    1.029   .     S
N611   N660    1.282   .     S
N612   N707    1.282   1_455 S
N612   H699    1.029   1_455 S
O614   C725    1.390   .     S
O614   H744    0.990   .     S
O615   H697    0.992   1_455 S
O624   H658    0.989   .     S
C625   O661    1.287   .     A
C625   O665    1.289   .     A
C625   C627    1.433   .     S
C626   C628    1.484   .     S
C626   C638    1.427   .     A
C626   C634    1.415   .     A
C627   C773    1.338   .     S
C627   H801    1.088   .     S
C628   O667    1.300   .     A
C628   O666    1.300   .     A
C629   C630    1.440   .     S
C630   O668    1.283   .     A
C630   O669    1.293   .     A
C631   O670    1.300   .     A
C631   C633    1.479   .     S
C631   O671    1.300   .     A
C632   C644    1.395   .     A
C632   H701    1.084   .     S
C633   C644    1.417   .     A
C633   C643    1.401   .     A
C634   C635    1.398   .     A
C634   O663    1.383   .     S
C635   C205    1.387   1_556 S
C636   C638    1.421   .     A
C636   C205    1.414   1_556 S
C636   C207    1.425   1_556 S
C637   H655    1.077   .     S
C638   C642    1.421   .     A
C639   C643    1.405   .     A
C640   C641    1.393   .     A
C640   C207    1.414   1_556 S
C640   C200    1.402   1_556 S
C641   H652    1.084   .     S
C641   C642    1.401   .     A
C642   O664    1.383   .     S
C643   H654    1.076   .     S
C644   O672    1.377   .     S
Cu645  O668    1.960   .     S
Cu645  N660    2.016   .     S
Cu645  O666    1.931   .     S
Cu645  O661    1.963   .     S
Cu645  O670    1.906   .     S
Cu645  Cu646   2.683   .     S
Cu646  N659    2.016   .     S
Cu646  O671    1.931   .     S
Cu646  O665    1.960   .     S
Cu646  O669    1.963   .     S
Cu646  O667    1.906   .     S
H649   O711    0.992   .     S
H650   O664    0.992   .     S
H651   N708    1.029   .     S
H656   C683    1.083   .     S
N659   H695    1.029   .     S
N659   N708    1.282   .     S
O662   C773    1.390   .     S
O662   H792    0.990   .     S
O672   H706    0.989   .     S
C673   O709    1.287   .     A
C673   O713    1.289   .     A
C673   C675    1.433   .     S
C674   C676    1.484   .     S
C674   C686    1.427   .     A
C674   C682    1.415   .     A
C675   C821    1.338   .     S
C675   H849    1.088   .     S
C676   O715    1.300   .     A
C676   O714    1.300   .     A
C677   C678    1.440   .     S
C678   O716    1.283   .     A
C678   O717    1.293   .     A
C679   O718    1.300   .     A
C679   C681    1.479   .     S
C679   O719    1.300   .     A
C680   C692    1.395   .     A
C680   H605    1.084   1_655 S
C681   C692    1.417   .     A
C681   C691    1.401   .     A
C682   C683    1.398   .     A
C682   O711    1.383   .     S
C683   C253    1.387   1_556 S
C684   C686    1.421   .     A
C684   C253    1.414   1_556 S
C684   C255    1.425   1_556 S
C685   H703    1.077   .     S
C686   C690    1.421   .     A
C687   C691    1.405   .     A
C688   C689    1.393   .     A
C688   C255    1.414   1_556 S
C688   C248    1.402   1_556 S
C689   H700    1.084   .     S
C689   C690    1.401   .     A
C690   O712    1.383   .     S
C691   H702    1.076   .     S
C692   O720    1.377   .     S
Cu693  O716    1.960   .     S
Cu693  N708    2.016   .     S
Cu693  O714    1.931   .     S
Cu693  O709    1.963   .     S
Cu693  O718    1.906   .     S
Cu693  Cu694   2.683   .     S
Cu694  N707    2.016   .     S
Cu694  O719    1.931   .     S
Cu694  O713    1.960   .     S
Cu694  O717    1.963   .     S
Cu694  O715    1.906   .     S
H697   O615    0.992   1_655 S
H698   O712    0.992   .     S
H699   N612    1.029   1_655 S
H704   C587    1.083   1_655 S
N707   H599    1.029   1_655 S
N707   N612    1.282   1_655 S
O710   C821    1.390   .     S
O710   H840    0.990   .     S
O720   H610    0.989   1_655 S
C721   O757    1.287   .     A
C721   O761    1.289   .     A
C721   C723    1.433   .     S
C722   C724    1.484   .     S
C722   C734    1.427   .     A
C722   C730    1.415   .     A
C723   C437    1.338   1_565 S
C723   H465    1.088   1_565 S
C724   O763    1.300   .     A
C724   O762    1.300   .     A
C725   C726    1.440   .     S
C726   O764    1.283   .     A
C726   O765    1.293   .     A
C727   O766    1.300   .     A
C727   C729    1.479   .     S
C727   O767    1.300   .     A
C728   C740    1.395   .     A
C728   H797    1.084   .     S
C729   C740    1.417   .     A
C729   C739    1.401   .     A
C730   C731    1.398   .     A
C730   O759    1.383   .     S
C731   C301    1.387   1_556 S
C731   H848    1.083   1_455 S
C732   C734    1.421   .     A
C732   C301    1.414   1_556 S
C732   C303    1.425   1_556 S
C733   H751    1.077   .     S
C734   C738    1.421   .     A
C735   C739    1.405   .     A
C736   C737    1.393   .     A
C736   C303    1.414   1_556 S
C736   C296    1.402   1_556 S
C737   H748    1.084   .     S
C737   C738    1.401   .     A
C738   O760    1.383   .     S
C739   H750    1.076   .     S
C740   O768    1.377   .     S
Cu741  O764    1.960   .     S
Cu741  N756    2.016   .     S
Cu741  O762    1.931   .     S
Cu741  O757    1.963   .     S
Cu741  O766    1.906   .     S
Cu741  Cu742   2.683   .     S
Cu742  N755    2.016   .     S
Cu742  O767    1.931   .     S
Cu742  O761    1.960   .     S
Cu742  O765    1.963   .     S
Cu742  O763    1.906   .     S
H743   N851    1.029   1_455 S
H745   O807    0.992   .     S
H746   O760    0.992   .     S
H747   N804    1.029   .     S
H749   C824    1.084   1_455 S
H752   C779    1.083   .     S
H754   O864    0.989   1_455 S
N755   H791    1.029   .     S
N755   N804    1.282   .     S
N756   N851    1.282   1_455 S
N756   H843    1.029   1_455 S
O758   C437    1.390   1_565 S
O758   H456    0.990   1_565 S
O759   H841    0.992   1_455 S
O768   H802    0.989   .     S
C769   O805    1.287   .     A
C769   O809    1.289   .     A
C769   C771    1.433   .     S
C770   C772    1.484   .     S
C770   C782    1.427   .     A
C770   C778    1.415   .     A
C771   C485    1.338   1_565 S
C771   H513    1.088   1_565 S
C772   O811    1.300   .     A
C772   O810    1.300   .     A
C773   C774    1.440   .     S
C774   O812    1.283   .     A
C774   O813    1.293   .     A
C775   O814    1.300   .     A
C775   C777    1.479   .     S
C775   O815    1.300   .     A
C776   C788    1.395   .     A
C776   H845    1.084   .     S
C777   C788    1.417   .     A
C777   C787    1.401   .     A
C778   C779    1.398   .     A
C778   O807    1.383   .     S
C779   C349    1.387   1_556 S
C780   C782    1.421   .     A
C780   C349    1.414   1_556 S
C780   C351    1.425   1_556 S
C781   H799    1.077   .     S
C782   C786    1.421   .     A
C783   C787    1.405   .     A
C784   C785    1.393   .     A
C784   C351    1.414   1_556 S
C784   C344    1.402   1_556 S
C785   H796    1.084   .     S
C785   C786    1.401   .     A
C786   O808    1.383   .     S
C787   H798    1.076   .     S
C788   O816    1.377   .     S
Cu789  O812    1.960   .     S
Cu789  N804    2.016   .     S
Cu789  O810    1.931   .     S
Cu789  O805    1.963   .     S
Cu789  O814    1.906   .     S
Cu789  Cu790   2.683   .     S
Cu790  N803    2.016   .     S
Cu790  O815    1.931   .     S
Cu790  O809    1.960   .     S
Cu790  O813    1.963   .     S
Cu790  O811    1.906   .     S
H793   O855    0.992   .     S
H794   O808    0.992   .     S
H795   N852    1.029   .     S
H800   C827    1.083   .     S
N803   H839    1.029   .     S
N803   N852    1.282   .     S
O806   C485    1.390   1_565 S
O806   H504    0.990   1_565 S
O816   H850    0.989   .     S
C817   O853    1.287   .     A
C817   O857    1.289   .     A
C817   C819    1.433   .     S
C818   C820    1.484   .     S
C818   C830    1.427   .     A
C818   C826    1.415   .     A
C819   C533    1.338   1_565 S
C819   H561    1.088   1_565 S
C820   O859    1.300   .     A
C820   O858    1.300   .     A
C821   C822    1.440   .     S
C822   O860    1.283   .     A
C822   O861    1.293   .     A
C823   O862    1.300   .     A
C823   C825    1.479   .     S
C823   O863    1.300   .     A
C824   C836    1.395   .     A
C824   H749    1.084   1_655 S
C825   C836    1.417   .     A
C825   C835    1.401   .     A
C826   C827    1.398   .     A
C826   O855    1.383   .     S
C827   C397    1.387   1_556 S
C828   C830    1.421   .     A
C828   C397    1.414   1_556 S
C828   C399    1.425   1_556 S
C829   H847    1.077   .     S
C830   C834    1.421   .     A
C831   C835    1.405   .     A
C832   C833    1.393   .     A
C832   C399    1.414   1_556 S
C832   C392    1.402   1_556 S
C833   H844    1.084   .     S
C833   C834    1.401   .     A
C834   O856    1.383   .     S
C835   H846    1.076   .     S
C836   O864    1.377   .     S
Cu837  O860    1.960   .     S
Cu837  N852    2.016   .     S
Cu837  O858    1.931   .     S
Cu837  O853    1.963   .     S
Cu837  O862    1.906   .     S
Cu837  Cu838   2.683   .     S
Cu838  N851    2.016   .     S
Cu838  O863    1.931   .     S
Cu838  O857    1.960   .     S
Cu838  O861    1.963   .     S
Cu838  O859    1.906   .     S
H841   O759    0.992   1_655 S
H842   O856    0.992   .     S
H843   N756    1.029   1_655 S
H848   C731    1.083   1_655 S
N851   H743    1.029   1_655 S
N851   N756    1.282   1_655 S
O854   C533    1.390   1_565 S
O854   H552    0.990   1_565 S
O864   H754    0.989   1_655 S
