data_str_m2_o1_o10_pcu_sym.105
_audit_creation_date              2020-01-03
_audit_creation_method            'Materials Studio'
_symmetry_space_group_name_H-M    'P1'
_symmetry_Int_Tables_number       1
_symmetry_cell_setting            triclinic
loop_
_symmetry_equiv_pos_as_xyz
  x,y,z
_cell_length_a                    26.7850
_cell_length_b                    32.4815
_cell_length_c                    28.9701
_cell_angle_alpha                 90.6451
_cell_angle_beta                  97.5954
_cell_angle_gamma                 95.5864
loop_
_atom_site_label
_atom_site_type_symbol
_atom_site_fract_x
_atom_site_fract_y
_atom_site_fract_z
_atom_site_U_iso_or_equiv
_atom_site_adp_type
_atom_site_occupancy
O1     O     0.16666   0.10655   0.20625   0.00000  Uiso   1.00
O2     O     0.16667   0.22678   0.12709   0.00000  Uiso   1.00
O3     O     0.16666   0.10654   0.12706   0.00000  Uiso   1.00
O4     O     0.16667   0.22679   0.20628   0.00000  Uiso   1.00
C5     C     0.17188   0.08796   0.16703   0.00000  Uiso   1.00
C6     C     0.16196   0.24557   0.16646   0.00000  Uiso   1.00
O7     O     0.09161   0.16667   0.19712   0.00000  Uiso   1.00
O8     O     0.24172   0.16666   0.13621   0.00000  Uiso   1.00
O9     O     0.09161   0.16666   0.11793   0.00000  Uiso   1.00
O10    O     0.24172   0.16667   0.21540   0.00000  Uiso   1.00
C11    C     0.06849   0.16732   0.15494   0.00000  Uiso   1.00
C12    C     0.26496   0.16664   0.17842   0.00000  Uiso   1.00
Cu13   Cu    0.16667   0.16667   0.21355   0.00000  Uiso   1.00
Cu14   Cu    0.16667   0.16666   0.11978   0.00000  Uiso   1.00
N15    N     0.16668   0.16668   0.28403   0.00000  Uiso   1.00
N16    N     0.16665   0.16666   0.04931   0.00000  Uiso   1.00
C17    C     0.01388   0.16797   0.14828   0.00000  Uiso   1.00
C18    C     0.31979   0.16734   0.18508   0.00000  Uiso   1.00
C19    C     0.17425   0.02016   0.12557   0.00000  Uiso   1.00
C20    C     0.16560   0.31336   0.20988   0.00000  Uiso   1.00
C21    C     0.15336   0.31220   0.12469   0.00000  Uiso   1.00
C22    C     0.18129   0.02255   0.21018   0.00000  Uiso   1.00
C23    C     0.15704   0.29067   0.16694   0.00000  Uiso   1.00
C24    C     0.17864   0.04328   0.16761   0.00000  Uiso   1.00
C25    C     0.13254   0.14071   0.02079   0.00000  Uiso   1.00
C26    C     0.20205   0.19142   0.31273   0.00000  Uiso   1.00
C27    C     0.13383   0.13887   0.30492   0.00000  Uiso   1.00
C28    C     0.19994   0.19412   0.02841   0.00000  Uiso   1.00
C29    C     0.32492   0.16820   0.09852   0.00000  Uiso   1.00
O30    O     0.00307   0.19759   0.07476   0.00000  Uiso   1.00
O31    O     0.29464   0.13364   0.07813   0.00000  Uiso   1.00
H32    H     0.28237   0.13733   0.04395   0.00000  Uiso   1.00
C33    C     0.00937   0.16908   0.23479   0.00000  Uiso   1.00
O34    O     0.33232   0.14052   0.26010   0.00000  Uiso   1.00
O35    O     0.04007   0.20429   0.25309   0.00000  Uiso   1.00
H36    H     0.05336   0.20171   0.28727   0.00000  Uiso   1.00
C37    C     0.20591   0.03358   0.08869   0.00000  Uiso   1.00
O38    O     0.23113   0.06710   0.09180   0.00000  Uiso   1.00
O39    O     0.21191   0.00578   0.05325   0.00000  Uiso   1.00
H40    H     0.23949   0.01633   0.03429   0.00000  Uiso   1.00
C41    C     0.14886   0.29459   0.25236   0.00000  Uiso   1.00
O42    O     0.10578   0.27774   0.25049   0.00000  Uiso   1.00
O43    O     0.18148   0.29589   0.29410   0.00000  Uiso   1.00
H44    H     0.16491   0.28141   0.31978   0.00000  Uiso   1.00
C45    C     0.11885   0.29562   0.08217   0.00000  Uiso   1.00
O46    O     0.09341   0.26232   0.08270   0.00000  Uiso   1.00
O47    O     0.11129   0.32016   0.04294   0.00000  Uiso   1.00
H48    H     0.08564   0.30629   0.01719   0.00000  Uiso   1.00
C49    C     0.20761   0.04453   0.25327   0.00000  Uiso   1.00
O50    O     0.24876   0.06424   0.25227   0.00000  Uiso   1.00
O51    O     0.18516   0.04449   0.29396   0.00000  Uiso   1.00
H52    H     0.20442   0.06464   0.31853   0.00000  Uiso   1.00
N53    N     0.09125   0.11856   0.03967   0.00000  Uiso   1.00
O54    O     0.09743   0.08384   0.06050   0.00000  Uiso   1.00
O55    O     0.04547   0.12695   0.02493   0.00000  Uiso   1.00
N56    N     0.24660   0.20930   0.29498   0.00000  Uiso   1.00
O57    O     0.29060   0.19967   0.31377   0.00000  Uiso   1.00
O58    O     0.24478   0.24046   0.26734   0.00000  Uiso   1.00
C59    C     0.10279   0.10231   0.27945   0.00000  Uiso   1.00
O60    O     0.08364   0.10384   0.23924   0.00000  Uiso   1.00
O61    O     0.09400   0.06530   0.30270   0.00000  Uiso   1.00
H62    H     0.07249   0.04292   0.28228   0.00000  Uiso   1.00
C63    C     0.23295   0.22993   0.05380   0.00000  Uiso   1.00
O64    O     0.24727   0.22999   0.09526   0.00000  Uiso   1.00
O65    O     0.25003   0.26403   0.02911   0.00000  Uiso   1.00
H66    H     0.27600   0.28395   0.04886   0.00000  Uiso   1.00
O67    O     0.50000   0.10655   0.20625   0.00000  Uiso   1.00
O68    O     0.50000   0.22678   0.12709   0.00000  Uiso   1.00
O69    O     0.50000   0.10654   0.12706   0.00000  Uiso   1.00
O70    O     0.50000   0.22679   0.20628   0.00000  Uiso   1.00
C71    C     0.50521   0.08796   0.16703   0.00000  Uiso   1.00
C72    C     0.49529   0.24557   0.16646   0.00000  Uiso   1.00
O73    O     0.42495   0.16667   0.19712   0.00000  Uiso   1.00
O74    O     0.57505   0.16666   0.13621   0.00000  Uiso   1.00
O75    O     0.42494   0.16666   0.11793   0.00000  Uiso   1.00
O76    O     0.57506   0.16667   0.21540   0.00000  Uiso   1.00
C77    C     0.40182   0.16732   0.15494   0.00000  Uiso   1.00
C78    C     0.59829   0.16664   0.17842   0.00000  Uiso   1.00
Cu79   Cu    0.50000   0.16667   0.21355   0.00000  Uiso   1.00
Cu80   Cu    0.50000   0.16666   0.11978   0.00000  Uiso   1.00
N81    N     0.50001   0.16668   0.28403   0.00000  Uiso   1.00
N82    N     0.49999   0.16666   0.04931   0.00000  Uiso   1.00
C83    C     0.34721   0.16797   0.14828   0.00000  Uiso   1.00
C84    C     0.65312   0.16734   0.18508   0.00000  Uiso   1.00
C85    C     0.50758   0.02016   0.12557   0.00000  Uiso   1.00
C86    C     0.49893   0.31336   0.20988   0.00000  Uiso   1.00
C87    C     0.48670   0.31220   0.12469   0.00000  Uiso   1.00
C88    C     0.51462   0.02255   0.21018   0.00000  Uiso   1.00
C89    C     0.49038   0.29067   0.16694   0.00000  Uiso   1.00
C90    C     0.51198   0.04328   0.16761   0.00000  Uiso   1.00
C91    C     0.46587   0.14071   0.02079   0.00000  Uiso   1.00
C92    C     0.53539   0.19142   0.31273   0.00000  Uiso   1.00
C93    C     0.46716   0.13887   0.30492   0.00000  Uiso   1.00
C94    C     0.53328   0.19412   0.02841   0.00000  Uiso   1.00
C95    C     0.65826   0.16820   0.09852   0.00000  Uiso   1.00
O96    O     0.33640   0.19759   0.07476   0.00000  Uiso   1.00
O97    O     0.62797   0.13364   0.07813   0.00000  Uiso   1.00
H98    H     0.61570   0.13733   0.04395   0.00000  Uiso   1.00
C99    C     0.34271   0.16908   0.23479   0.00000  Uiso   1.00
O100   O     0.66565   0.14052   0.26010   0.00000  Uiso   1.00
O101   O     0.37341   0.20429   0.25309   0.00000  Uiso   1.00
H102   H     0.38669   0.20171   0.28727   0.00000  Uiso   1.00
C103   C     0.53924   0.03358   0.08869   0.00000  Uiso   1.00
O104   O     0.56446   0.06710   0.09180   0.00000  Uiso   1.00
O105   O     0.54524   0.00578   0.05325   0.00000  Uiso   1.00
H106   H     0.57282   0.01633   0.03429   0.00000  Uiso   1.00
C107   C     0.48220   0.29459   0.25236   0.00000  Uiso   1.00
O108   O     0.43911   0.27774   0.25049   0.00000  Uiso   1.00
O109   O     0.51482   0.29589   0.29410   0.00000  Uiso   1.00
H110   H     0.49824   0.28141   0.31978   0.00000  Uiso   1.00
C111   C     0.45218   0.29562   0.08217   0.00000  Uiso   1.00
O112   O     0.42674   0.26232   0.08270   0.00000  Uiso   1.00
O113   O     0.44462   0.32016   0.04294   0.00000  Uiso   1.00
H114   H     0.41897   0.30629   0.01719   0.00000  Uiso   1.00
C115   C     0.54094   0.04453   0.25327   0.00000  Uiso   1.00
O116   O     0.58209   0.06424   0.25227   0.00000  Uiso   1.00
O117   O     0.51850   0.04449   0.29396   0.00000  Uiso   1.00
H118   H     0.53776   0.06464   0.31853   0.00000  Uiso   1.00
N119   N     0.42458   0.11856   0.03967   0.00000  Uiso   1.00
O120   O     0.43077   0.08384   0.06050   0.00000  Uiso   1.00
O121   O     0.37880   0.12695   0.02493   0.00000  Uiso   1.00
N122   N     0.57993   0.20930   0.29498   0.00000  Uiso   1.00
O123   O     0.62393   0.19967   0.31377   0.00000  Uiso   1.00
O124   O     0.57812   0.24046   0.26734   0.00000  Uiso   1.00
C125   C     0.43612   0.10231   0.27945   0.00000  Uiso   1.00
O126   O     0.41697   0.10384   0.23924   0.00000  Uiso   1.00
O127   O     0.42734   0.06530   0.30270   0.00000  Uiso   1.00
H128   H     0.40582   0.04292   0.28228   0.00000  Uiso   1.00
C129   C     0.56628   0.22993   0.05380   0.00000  Uiso   1.00
O130   O     0.58060   0.22999   0.09526   0.00000  Uiso   1.00
O131   O     0.58336   0.26403   0.02911   0.00000  Uiso   1.00
H132   H     0.60933   0.28395   0.04886   0.00000  Uiso   1.00
O133   O     0.83333   0.10655   0.20625   0.00000  Uiso   1.00
O134   O     0.83334   0.22678   0.12709   0.00000  Uiso   1.00
O135   O     0.83333   0.10654   0.12706   0.00000  Uiso   1.00
O136   O     0.83334   0.22679   0.20628   0.00000  Uiso   1.00
C137   C     0.83854   0.08796   0.16703   0.00000  Uiso   1.00
C138   C     0.82862   0.24557   0.16646   0.00000  Uiso   1.00
O139   O     0.75828   0.16667   0.19712   0.00000  Uiso   1.00
O140   O     0.90839   0.16666   0.13621   0.00000  Uiso   1.00
O141   O     0.75828   0.16666   0.11793   0.00000  Uiso   1.00
O142   O     0.90839   0.16667   0.21540   0.00000  Uiso   1.00
C143   C     0.73516   0.16732   0.15494   0.00000  Uiso   1.00
C144   C     0.93163   0.16664   0.17842   0.00000  Uiso   1.00
Cu145  Cu    0.83333   0.16667   0.21355   0.00000  Uiso   1.00
Cu146  Cu    0.83333   0.16666   0.11978   0.00000  Uiso   1.00
N147   N     0.83335   0.16668   0.28403   0.00000  Uiso   1.00
N148   N     0.83332   0.16666   0.04931   0.00000  Uiso   1.00
C149   C     0.68055   0.16797   0.14828   0.00000  Uiso   1.00
C150   C     0.98645   0.16734   0.18508   0.00000  Uiso   1.00
C151   C     0.84092   0.02016   0.12557   0.00000  Uiso   1.00
C152   C     0.83227   0.31336   0.20988   0.00000  Uiso   1.00
C153   C     0.82003   0.31220   0.12469   0.00000  Uiso   1.00
C154   C     0.84795   0.02255   0.21018   0.00000  Uiso   1.00
C155   C     0.82371   0.29067   0.16694   0.00000  Uiso   1.00
C156   C     0.84531   0.04328   0.16761   0.00000  Uiso   1.00
C157   C     0.79921   0.14071   0.02079   0.00000  Uiso   1.00
C158   C     0.86872   0.19142   0.31273   0.00000  Uiso   1.00
C159   C     0.80049   0.13887   0.30492   0.00000  Uiso   1.00
C160   C     0.86661   0.19412   0.02841   0.00000  Uiso   1.00
C161   C     0.99159   0.16820   0.09852   0.00000  Uiso   1.00
O162   O     0.66974   0.19759   0.07476   0.00000  Uiso   1.00
O163   O     0.96130   0.13364   0.07813   0.00000  Uiso   1.00
H164   H     0.94903   0.13733   0.04395   0.00000  Uiso   1.00
C165   C     0.67604   0.16908   0.23479   0.00000  Uiso   1.00
O166   O     0.99899   0.14052   0.26010   0.00000  Uiso   1.00
O167   O     0.70674   0.20429   0.25309   0.00000  Uiso   1.00
H168   H     0.72003   0.20171   0.28727   0.00000  Uiso   1.00
C169   C     0.87257   0.03358   0.08869   0.00000  Uiso   1.00
O170   O     0.89780   0.06710   0.09180   0.00000  Uiso   1.00
O171   O     0.87858   0.00578   0.05325   0.00000  Uiso   1.00
H172   H     0.90616   0.01633   0.03429   0.00000  Uiso   1.00
C173   C     0.81553   0.29459   0.25236   0.00000  Uiso   1.00
O174   O     0.77245   0.27774   0.25049   0.00000  Uiso   1.00
O175   O     0.84815   0.29589   0.29410   0.00000  Uiso   1.00
H176   H     0.83157   0.28141   0.31978   0.00000  Uiso   1.00
C177   C     0.78551   0.29562   0.08217   0.00000  Uiso   1.00
O178   O     0.76007   0.26232   0.08270   0.00000  Uiso   1.00
O179   O     0.77796   0.32016   0.04294   0.00000  Uiso   1.00
H180   H     0.75231   0.30629   0.01719   0.00000  Uiso   1.00
C181   C     0.87428   0.04453   0.25327   0.00000  Uiso   1.00
O182   O     0.91543   0.06424   0.25227   0.00000  Uiso   1.00
O183   O     0.85183   0.04449   0.29396   0.00000  Uiso   1.00
H184   H     0.87109   0.06464   0.31853   0.00000  Uiso   1.00
N185   N     0.75791   0.11856   0.03967   0.00000  Uiso   1.00
O186   O     0.76410   0.08384   0.06050   0.00000  Uiso   1.00
O187   O     0.71213   0.12695   0.02493   0.00000  Uiso   1.00
N188   N     0.91326   0.20930   0.29498   0.00000  Uiso   1.00
O189   O     0.95726   0.19967   0.31377   0.00000  Uiso   1.00
O190   O     0.91145   0.24046   0.26734   0.00000  Uiso   1.00
C191   C     0.76946   0.10231   0.27945   0.00000  Uiso   1.00
O192   O     0.75030   0.10384   0.23924   0.00000  Uiso   1.00
O193   O     0.76067   0.06530   0.30270   0.00000  Uiso   1.00
H194   H     0.73915   0.04292   0.28228   0.00000  Uiso   1.00
C195   C     0.89962   0.22993   0.05380   0.00000  Uiso   1.00
O196   O     0.91394   0.22999   0.09526   0.00000  Uiso   1.00
O197   O     0.91670   0.26403   0.02911   0.00000  Uiso   1.00
H198   H     0.94267   0.28395   0.04886   0.00000  Uiso   1.00
O199   O     0.16666   0.43989   0.20625   0.00000  Uiso   1.00
O200   O     0.16667   0.56011   0.12709   0.00000  Uiso   1.00
O201   O     0.16666   0.43988   0.12706   0.00000  Uiso   1.00
O202   O     0.16667   0.56012   0.20628   0.00000  Uiso   1.00
C203   C     0.17188   0.42129   0.16703   0.00000  Uiso   1.00
C204   C     0.16196   0.57890   0.16646   0.00000  Uiso   1.00
O205   O     0.09161   0.50000   0.19712   0.00000  Uiso   1.00
O206   O     0.24172   0.50000   0.13621   0.00000  Uiso   1.00
O207   O     0.09161   0.49999   0.11793   0.00000  Uiso   1.00
O208   O     0.24172   0.50001   0.21540   0.00000  Uiso   1.00
C209   C     0.06849   0.50065   0.15494   0.00000  Uiso   1.00
C210   C     0.26496   0.49997   0.17842   0.00000  Uiso   1.00
Cu211  Cu    0.16667   0.50001   0.21355   0.00000  Uiso   1.00
Cu212  Cu    0.16667   0.49999   0.11978   0.00000  Uiso   1.00
N213   N     0.16668   0.50001   0.28403   0.00000  Uiso   1.00
N214   N     0.16665   0.49999   0.04931   0.00000  Uiso   1.00
C215   C     0.01388   0.50130   0.14828   0.00000  Uiso   1.00
C216   C     0.31979   0.50067   0.18508   0.00000  Uiso   1.00
C217   C     0.17425   0.35349   0.12557   0.00000  Uiso   1.00
C218   C     0.16560   0.64669   0.20988   0.00000  Uiso   1.00
C219   C     0.15336   0.64553   0.12469   0.00000  Uiso   1.00
C220   C     0.18129   0.35589   0.21018   0.00000  Uiso   1.00
C221   C     0.15704   0.62400   0.16694   0.00000  Uiso   1.00
C222   C     0.17864   0.37661   0.16761   0.00000  Uiso   1.00
C223   C     0.13254   0.47404   0.02079   0.00000  Uiso   1.00
C224   C     0.20205   0.52475   0.31273   0.00000  Uiso   1.00
C225   C     0.13383   0.47220   0.30492   0.00000  Uiso   1.00
C226   C     0.19994   0.52746   0.02841   0.00000  Uiso   1.00
C227   C     0.32492   0.50153   0.09852   0.00000  Uiso   1.00
O228   O     0.00307   0.53093   0.07476   0.00000  Uiso   1.00
O229   O     0.29464   0.46698   0.07813   0.00000  Uiso   1.00
H230   H     0.28237   0.47066   0.04395   0.00000  Uiso   1.00
C231   C     0.00937   0.50242   0.23479   0.00000  Uiso   1.00
O232   O     0.33232   0.47385   0.26010   0.00000  Uiso   1.00
O233   O     0.04007   0.53763   0.25309   0.00000  Uiso   1.00
H234   H     0.05336   0.53505   0.28727   0.00000  Uiso   1.00
C235   C     0.20591   0.36691   0.08869   0.00000  Uiso   1.00
O236   O     0.23113   0.40043   0.09180   0.00000  Uiso   1.00
O237   O     0.21191   0.33911   0.05325   0.00000  Uiso   1.00
H238   H     0.23949   0.34966   0.03429   0.00000  Uiso   1.00
C239   C     0.14886   0.62792   0.25236   0.00000  Uiso   1.00
O240   O     0.10578   0.61108   0.25049   0.00000  Uiso   1.00
O241   O     0.18148   0.62922   0.29410   0.00000  Uiso   1.00
H242   H     0.16491   0.61474   0.31978   0.00000  Uiso   1.00
C243   C     0.11885   0.62895   0.08217   0.00000  Uiso   1.00
O244   O     0.09341   0.59565   0.08270   0.00000  Uiso   1.00
O245   O     0.11129   0.65350   0.04294   0.00000  Uiso   1.00
H246   H     0.08564   0.63962   0.01719   0.00000  Uiso   1.00
C247   C     0.20761   0.37786   0.25327   0.00000  Uiso   1.00
O248   O     0.24876   0.39757   0.25227   0.00000  Uiso   1.00
O249   O     0.18516   0.37782   0.29396   0.00000  Uiso   1.00
H250   H     0.20442   0.39797   0.31853   0.00000  Uiso   1.00
N251   N     0.09125   0.45190   0.03967   0.00000  Uiso   1.00
O252   O     0.09743   0.41718   0.06050   0.00000  Uiso   1.00
O253   O     0.04547   0.46029   0.02493   0.00000  Uiso   1.00
N254   N     0.24660   0.54263   0.29498   0.00000  Uiso   1.00
O255   O     0.29060   0.53300   0.31377   0.00000  Uiso   1.00
O256   O     0.24478   0.57379   0.26734   0.00000  Uiso   1.00
C257   C     0.10279   0.43565   0.27945   0.00000  Uiso   1.00
O258   O     0.08364   0.43718   0.23924   0.00000  Uiso   1.00
O259   O     0.09400   0.39863   0.30270   0.00000  Uiso   1.00
H260   H     0.07249   0.37625   0.28228   0.00000  Uiso   1.00
C261   C     0.23295   0.56326   0.05380   0.00000  Uiso   1.00
O262   O     0.24727   0.56333   0.09526   0.00000  Uiso   1.00
O263   O     0.25003   0.59736   0.02911   0.00000  Uiso   1.00
H264   H     0.27600   0.61728   0.04886   0.00000  Uiso   1.00
O265   O     0.50000   0.43989   0.20625   0.00000  Uiso   1.00
O266   O     0.50000   0.56011   0.12709   0.00000  Uiso   1.00
O267   O     0.50000   0.43988   0.12706   0.00000  Uiso   1.00
O268   O     0.50000   0.56012   0.20628   0.00000  Uiso   1.00
C269   C     0.50521   0.42129   0.16703   0.00000  Uiso   1.00
C270   C     0.49529   0.57890   0.16646   0.00000  Uiso   1.00
O271   O     0.42495   0.50000   0.19712   0.00000  Uiso   1.00
O272   O     0.57505   0.50000   0.13621   0.00000  Uiso   1.00
O273   O     0.42494   0.49999   0.11793   0.00000  Uiso   1.00
O274   O     0.57506   0.50001   0.21540   0.00000  Uiso   1.00
C275   C     0.40182   0.50065   0.15494   0.00000  Uiso   1.00
C276   C     0.59829   0.49997   0.17842   0.00000  Uiso   1.00
Cu277  Cu    0.50000   0.50001   0.21355   0.00000  Uiso   1.00
Cu278  Cu    0.50000   0.49999   0.11978   0.00000  Uiso   1.00
N279   N     0.50001   0.50001   0.28403   0.00000  Uiso   1.00
N280   N     0.49999   0.49999   0.04931   0.00000  Uiso   1.00
C281   C     0.34721   0.50130   0.14828   0.00000  Uiso   1.00
C282   C     0.65312   0.50067   0.18508   0.00000  Uiso   1.00
C283   C     0.50758   0.35349   0.12557   0.00000  Uiso   1.00
C284   C     0.49893   0.64669   0.20988   0.00000  Uiso   1.00
C285   C     0.48670   0.64553   0.12469   0.00000  Uiso   1.00
C286   C     0.51462   0.35589   0.21018   0.00000  Uiso   1.00
C287   C     0.49038   0.62400   0.16694   0.00000  Uiso   1.00
C288   C     0.51198   0.37661   0.16761   0.00000  Uiso   1.00
C289   C     0.46587   0.47404   0.02079   0.00000  Uiso   1.00
C290   C     0.53539   0.52475   0.31273   0.00000  Uiso   1.00
C291   C     0.46716   0.47220   0.30492   0.00000  Uiso   1.00
C292   C     0.53328   0.52746   0.02841   0.00000  Uiso   1.00
C293   C     0.65826   0.50153   0.09852   0.00000  Uiso   1.00
O294   O     0.33640   0.53093   0.07476   0.00000  Uiso   1.00
O295   O     0.62797   0.46698   0.07813   0.00000  Uiso   1.00
H296   H     0.61570   0.47066   0.04395   0.00000  Uiso   1.00
C297   C     0.34271   0.50242   0.23479   0.00000  Uiso   1.00
O298   O     0.66565   0.47385   0.26010   0.00000  Uiso   1.00
O299   O     0.37341   0.53763   0.25309   0.00000  Uiso   1.00
H300   H     0.38669   0.53505   0.28727   0.00000  Uiso   1.00
C301   C     0.53924   0.36691   0.08869   0.00000  Uiso   1.00
O302   O     0.56446   0.40043   0.09180   0.00000  Uiso   1.00
O303   O     0.54524   0.33911   0.05325   0.00000  Uiso   1.00
H304   H     0.57282   0.34966   0.03429   0.00000  Uiso   1.00
C305   C     0.48220   0.62792   0.25236   0.00000  Uiso   1.00
O306   O     0.43911   0.61108   0.25049   0.00000  Uiso   1.00
O307   O     0.51482   0.62922   0.29410   0.00000  Uiso   1.00
H308   H     0.49824   0.61474   0.31978   0.00000  Uiso   1.00
C309   C     0.45218   0.62895   0.08217   0.00000  Uiso   1.00
O310   O     0.42674   0.59565   0.08270   0.00000  Uiso   1.00
O311   O     0.44462   0.65350   0.04294   0.00000  Uiso   1.00
H312   H     0.41897   0.63962   0.01719   0.00000  Uiso   1.00
C313   C     0.54094   0.37786   0.25327   0.00000  Uiso   1.00
O314   O     0.58209   0.39757   0.25227   0.00000  Uiso   1.00
O315   O     0.51850   0.37782   0.29396   0.00000  Uiso   1.00
H316   H     0.53776   0.39797   0.31853   0.00000  Uiso   1.00
N317   N     0.42458   0.45190   0.03967   0.00000  Uiso   1.00
O318   O     0.43077   0.41718   0.06050   0.00000  Uiso   1.00
O319   O     0.37880   0.46029   0.02493   0.00000  Uiso   1.00
N320   N     0.57993   0.54263   0.29498   0.00000  Uiso   1.00
O321   O     0.62393   0.53300   0.31377   0.00000  Uiso   1.00
O322   O     0.57812   0.57379   0.26734   0.00000  Uiso   1.00
C323   C     0.43612   0.43565   0.27945   0.00000  Uiso   1.00
O324   O     0.41697   0.43718   0.23924   0.00000  Uiso   1.00
O325   O     0.42734   0.39863   0.30270   0.00000  Uiso   1.00
H326   H     0.40582   0.37625   0.28228   0.00000  Uiso   1.00
C327   C     0.56628   0.56326   0.05380   0.00000  Uiso   1.00
O328   O     0.58060   0.56333   0.09526   0.00000  Uiso   1.00
O329   O     0.58336   0.59736   0.02911   0.00000  Uiso   1.00
H330   H     0.60933   0.61728   0.04886   0.00000  Uiso   1.00
O331   O     0.83333   0.43989   0.20625   0.00000  Uiso   1.00
O332   O     0.83334   0.56011   0.12709   0.00000  Uiso   1.00
O333   O     0.83333   0.43988   0.12706   0.00000  Uiso   1.00
O334   O     0.83334   0.56012   0.20628   0.00000  Uiso   1.00
C335   C     0.83854   0.42129   0.16703   0.00000  Uiso   1.00
C336   C     0.82862   0.57890   0.16646   0.00000  Uiso   1.00
O337   O     0.75828   0.50000   0.19712   0.00000  Uiso   1.00
O338   O     0.90839   0.50000   0.13621   0.00000  Uiso   1.00
O339   O     0.75828   0.49999   0.11793   0.00000  Uiso   1.00
O340   O     0.90839   0.50001   0.21540   0.00000  Uiso   1.00
C341   C     0.73516   0.50065   0.15494   0.00000  Uiso   1.00
C342   C     0.93163   0.49997   0.17842   0.00000  Uiso   1.00
Cu343  Cu    0.83333   0.50001   0.21355   0.00000  Uiso   1.00
Cu344  Cu    0.83333   0.49999   0.11978   0.00000  Uiso   1.00
N345   N     0.83335   0.50001   0.28403   0.00000  Uiso   1.00
N346   N     0.83332   0.49999   0.04931   0.00000  Uiso   1.00
C347   C     0.68055   0.50130   0.14828   0.00000  Uiso   1.00
C348   C     0.98645   0.50067   0.18508   0.00000  Uiso   1.00
C349   C     0.84092   0.35349   0.12557   0.00000  Uiso   1.00
C350   C     0.83227   0.64669   0.20988   0.00000  Uiso   1.00
C351   C     0.82003   0.64553   0.12469   0.00000  Uiso   1.00
C352   C     0.84795   0.35589   0.21018   0.00000  Uiso   1.00
C353   C     0.82371   0.62400   0.16694   0.00000  Uiso   1.00
C354   C     0.84531   0.37661   0.16761   0.00000  Uiso   1.00
C355   C     0.79921   0.47404   0.02079   0.00000  Uiso   1.00
C356   C     0.86872   0.52475   0.31273   0.00000  Uiso   1.00
C357   C     0.80049   0.47220   0.30492   0.00000  Uiso   1.00
C358   C     0.86661   0.52746   0.02841   0.00000  Uiso   1.00
C359   C     0.99159   0.50153   0.09852   0.00000  Uiso   1.00
O360   O     0.66974   0.53093   0.07476   0.00000  Uiso   1.00
O361   O     0.96130   0.46698   0.07813   0.00000  Uiso   1.00
H362   H     0.94903   0.47066   0.04395   0.00000  Uiso   1.00
C363   C     0.67604   0.50242   0.23479   0.00000  Uiso   1.00
O364   O     0.99899   0.47385   0.26010   0.00000  Uiso   1.00
O365   O     0.70674   0.53763   0.25309   0.00000  Uiso   1.00
H366   H     0.72003   0.53505   0.28727   0.00000  Uiso   1.00
C367   C     0.87257   0.36691   0.08869   0.00000  Uiso   1.00
O368   O     0.89780   0.40043   0.09180   0.00000  Uiso   1.00
O369   O     0.87858   0.33911   0.05325   0.00000  Uiso   1.00
H370   H     0.90616   0.34966   0.03429   0.00000  Uiso   1.00
C371   C     0.81553   0.62792   0.25236   0.00000  Uiso   1.00
O372   O     0.77245   0.61108   0.25049   0.00000  Uiso   1.00
O373   O     0.84815   0.62922   0.29410   0.00000  Uiso   1.00
H374   H     0.83157   0.61474   0.31978   0.00000  Uiso   1.00
C375   C     0.78551   0.62895   0.08217   0.00000  Uiso   1.00
O376   O     0.76007   0.59565   0.08270   0.00000  Uiso   1.00
O377   O     0.77796   0.65350   0.04294   0.00000  Uiso   1.00
H378   H     0.75231   0.63962   0.01719   0.00000  Uiso   1.00
C379   C     0.87428   0.37786   0.25327   0.00000  Uiso   1.00
O380   O     0.91543   0.39757   0.25227   0.00000  Uiso   1.00
O381   O     0.85183   0.37782   0.29396   0.00000  Uiso   1.00
H382   H     0.87109   0.39797   0.31853   0.00000  Uiso   1.00
N383   N     0.75791   0.45190   0.03967   0.00000  Uiso   1.00
O384   O     0.76410   0.41718   0.06050   0.00000  Uiso   1.00
O385   O     0.71213   0.46029   0.02493   0.00000  Uiso   1.00
N386   N     0.91326   0.54263   0.29498   0.00000  Uiso   1.00
O387   O     0.95726   0.53300   0.31377   0.00000  Uiso   1.00
O388   O     0.91145   0.57379   0.26734   0.00000  Uiso   1.00
C389   C     0.76946   0.43565   0.27945   0.00000  Uiso   1.00
O390   O     0.75030   0.43718   0.23924   0.00000  Uiso   1.00
O391   O     0.76067   0.39863   0.30270   0.00000  Uiso   1.00
H392   H     0.73915   0.37625   0.28228   0.00000  Uiso   1.00
C393   C     0.89962   0.56326   0.05380   0.00000  Uiso   1.00
O394   O     0.91394   0.56333   0.09526   0.00000  Uiso   1.00
O395   O     0.91670   0.59736   0.02911   0.00000  Uiso   1.00
H396   H     0.94267   0.61728   0.04886   0.00000  Uiso   1.00
O397   O     0.16666   0.77322   0.20625   0.00000  Uiso   1.00
O398   O     0.16667   0.89345   0.12709   0.00000  Uiso   1.00
O399   O     0.16666   0.77321   0.12706   0.00000  Uiso   1.00
O400   O     0.16667   0.89346   0.20628   0.00000  Uiso   1.00
C401   C     0.17188   0.75463   0.16703   0.00000  Uiso   1.00
C402   C     0.16196   0.91224   0.16646   0.00000  Uiso   1.00
O403   O     0.09161   0.83334   0.19712   0.00000  Uiso   1.00
O404   O     0.24172   0.83333   0.13621   0.00000  Uiso   1.00
O405   O     0.09161   0.83333   0.11793   0.00000  Uiso   1.00
O406   O     0.24172   0.83334   0.21540   0.00000  Uiso   1.00
C407   C     0.06849   0.83398   0.15494   0.00000  Uiso   1.00
C408   C     0.26496   0.83331   0.17842   0.00000  Uiso   1.00
Cu409  Cu    0.16667   0.83334   0.21355   0.00000  Uiso   1.00
Cu410  Cu    0.16667   0.83333   0.11978   0.00000  Uiso   1.00
N411   N     0.16668   0.83334   0.28403   0.00000  Uiso   1.00
N412   N     0.16665   0.83332   0.04931   0.00000  Uiso   1.00
C413   C     0.01388   0.83463   0.14828   0.00000  Uiso   1.00
C414   C     0.31979   0.83400   0.18508   0.00000  Uiso   1.00
C415   C     0.17425   0.68682   0.12557   0.00000  Uiso   1.00
C416   C     0.16560   0.98003   0.20988   0.00000  Uiso   1.00
C417   C     0.15336   0.97887   0.12469   0.00000  Uiso   1.00
C418   C     0.18129   0.68922   0.21018   0.00000  Uiso   1.00
C419   C     0.15704   0.95733   0.16694   0.00000  Uiso   1.00
C420   C     0.17864   0.70994   0.16761   0.00000  Uiso   1.00
C421   C     0.13254   0.80737   0.02079   0.00000  Uiso   1.00
C422   C     0.20205   0.85809   0.31273   0.00000  Uiso   1.00
C423   C     0.13383   0.80553   0.30492   0.00000  Uiso   1.00
C424   C     0.19994   0.86079   0.02841   0.00000  Uiso   1.00
C425   C     0.32492   0.83486   0.09852   0.00000  Uiso   1.00
O426   O     0.00307   0.86426   0.07476   0.00000  Uiso   1.00
O427   O     0.29464   0.80031   0.07813   0.00000  Uiso   1.00
H428   H     0.28237   0.80399   0.04395   0.00000  Uiso   1.00
C429   C     0.00937   0.83575   0.23479   0.00000  Uiso   1.00
O430   O     0.33232   0.80718   0.26010   0.00000  Uiso   1.00
O431   O     0.04007   0.87096   0.25309   0.00000  Uiso   1.00
H432   H     0.05336   0.86838   0.28727   0.00000  Uiso   1.00
C433   C     0.20591   0.70025   0.08869   0.00000  Uiso   1.00
O434   O     0.23113   0.73376   0.09180   0.00000  Uiso   1.00
O435   O     0.21191   0.67244   0.05325   0.00000  Uiso   1.00
H436   H     0.23949   0.68299   0.03429   0.00000  Uiso   1.00
C437   C     0.14886   0.96125   0.25236   0.00000  Uiso   1.00
O438   O     0.10578   0.94441   0.25049   0.00000  Uiso   1.00
O439   O     0.18148   0.96256   0.29410   0.00000  Uiso   1.00
H440   H     0.16491   0.94807   0.31978   0.00000  Uiso   1.00
C441   C     0.11885   0.96229   0.08217   0.00000  Uiso   1.00
O442   O     0.09341   0.92899   0.08270   0.00000  Uiso   1.00
O443   O     0.11129   0.98683   0.04294   0.00000  Uiso   1.00
H444   H     0.08564   0.97296   0.01719   0.00000  Uiso   1.00
C445   C     0.20761   0.71120   0.25327   0.00000  Uiso   1.00
O446   O     0.24876   0.73091   0.25227   0.00000  Uiso   1.00
O447   O     0.18516   0.71116   0.29396   0.00000  Uiso   1.00
H448   H     0.20442   0.73131   0.31853   0.00000  Uiso   1.00
N449   N     0.09125   0.78523   0.03967   0.00000  Uiso   1.00
O450   O     0.09743   0.75051   0.06050   0.00000  Uiso   1.00
O451   O     0.04547   0.79362   0.02493   0.00000  Uiso   1.00
N452   N     0.24660   0.87597   0.29498   0.00000  Uiso   1.00
O453   O     0.29060   0.86634   0.31377   0.00000  Uiso   1.00
O454   O     0.24478   0.90712   0.26734   0.00000  Uiso   1.00
C455   C     0.10279   0.76898   0.27945   0.00000  Uiso   1.00
O456   O     0.08364   0.77051   0.23924   0.00000  Uiso   1.00
O457   O     0.09400   0.73197   0.30270   0.00000  Uiso   1.00
H458   H     0.07249   0.70959   0.28228   0.00000  Uiso   1.00
C459   C     0.23295   0.89660   0.05380   0.00000  Uiso   1.00
O460   O     0.24727   0.89666   0.09526   0.00000  Uiso   1.00
O461   O     0.25003   0.93069   0.02911   0.00000  Uiso   1.00
H462   H     0.27600   0.95062   0.04886   0.00000  Uiso   1.00
O463   O     0.50000   0.77322   0.20625   0.00000  Uiso   1.00
O464   O     0.50000   0.89345   0.12709   0.00000  Uiso   1.00
O465   O     0.50000   0.77321   0.12706   0.00000  Uiso   1.00
O466   O     0.50000   0.89346   0.20628   0.00000  Uiso   1.00
C467   C     0.50521   0.75463   0.16703   0.00000  Uiso   1.00
C468   C     0.49529   0.91224   0.16646   0.00000  Uiso   1.00
O469   O     0.42495   0.83334   0.19712   0.00000  Uiso   1.00
O470   O     0.57505   0.83333   0.13621   0.00000  Uiso   1.00
O471   O     0.42494   0.83333   0.11793   0.00000  Uiso   1.00
O472   O     0.57506   0.83334   0.21540   0.00000  Uiso   1.00
C473   C     0.40182   0.83398   0.15494   0.00000  Uiso   1.00
C474   C     0.59829   0.83331   0.17842   0.00000  Uiso   1.00
Cu475  Cu    0.50000   0.83334   0.21355   0.00000  Uiso   1.00
Cu476  Cu    0.50000   0.83333   0.11978   0.00000  Uiso   1.00
N477   N     0.50001   0.83334   0.28403   0.00000  Uiso   1.00
N478   N     0.49999   0.83332   0.04931   0.00000  Uiso   1.00
C479   C     0.34721   0.83463   0.14828   0.00000  Uiso   1.00
C480   C     0.65312   0.83400   0.18508   0.00000  Uiso   1.00
C481   C     0.50758   0.68682   0.12557   0.00000  Uiso   1.00
C482   C     0.49893   0.98003   0.20988   0.00000  Uiso   1.00
C483   C     0.48670   0.97887   0.12469   0.00000  Uiso   1.00
C484   C     0.51462   0.68922   0.21018   0.00000  Uiso   1.00
C485   C     0.49038   0.95733   0.16694   0.00000  Uiso   1.00
C486   C     0.51198   0.70994   0.16761   0.00000  Uiso   1.00
C487   C     0.46587   0.80737   0.02079   0.00000  Uiso   1.00
C488   C     0.53539   0.85809   0.31273   0.00000  Uiso   1.00
C489   C     0.46716   0.80553   0.30492   0.00000  Uiso   1.00
C490   C     0.53328   0.86079   0.02841   0.00000  Uiso   1.00
C491   C     0.65826   0.83486   0.09852   0.00000  Uiso   1.00
O492   O     0.33640   0.86426   0.07476   0.00000  Uiso   1.00
O493   O     0.62797   0.80031   0.07813   0.00000  Uiso   1.00
H494   H     0.61570   0.80399   0.04395   0.00000  Uiso   1.00
C495   C     0.34271   0.83575   0.23479   0.00000  Uiso   1.00
O496   O     0.66565   0.80718   0.26010   0.00000  Uiso   1.00
O497   O     0.37341   0.87096   0.25309   0.00000  Uiso   1.00
H498   H     0.38669   0.86838   0.28727   0.00000  Uiso   1.00
C499   C     0.53924   0.70025   0.08869   0.00000  Uiso   1.00
O500   O     0.56446   0.73376   0.09180   0.00000  Uiso   1.00
O501   O     0.54524   0.67244   0.05325   0.00000  Uiso   1.00
H502   H     0.57282   0.68299   0.03429   0.00000  Uiso   1.00
C503   C     0.48220   0.96125   0.25236   0.00000  Uiso   1.00
O504   O     0.43911   0.94441   0.25049   0.00000  Uiso   1.00
O505   O     0.51482   0.96256   0.29410   0.00000  Uiso   1.00
H506   H     0.49824   0.94807   0.31978   0.00000  Uiso   1.00
C507   C     0.45218   0.96229   0.08217   0.00000  Uiso   1.00
O508   O     0.42674   0.92899   0.08270   0.00000  Uiso   1.00
O509   O     0.44462   0.98683   0.04294   0.00000  Uiso   1.00
H510   H     0.41897   0.97296   0.01719   0.00000  Uiso   1.00
C511   C     0.54094   0.71120   0.25327   0.00000  Uiso   1.00
O512   O     0.58209   0.73091   0.25227   0.00000  Uiso   1.00
O513   O     0.51850   0.71116   0.29396   0.00000  Uiso   1.00
H514   H     0.53776   0.73131   0.31853   0.00000  Uiso   1.00
N515   N     0.42458   0.78523   0.03967   0.00000  Uiso   1.00
O516   O     0.43077   0.75051   0.06050   0.00000  Uiso   1.00
O517   O     0.37880   0.79362   0.02493   0.00000  Uiso   1.00
N518   N     0.57993   0.87597   0.29498   0.00000  Uiso   1.00
O519   O     0.62393   0.86634   0.31377   0.00000  Uiso   1.00
O520   O     0.57812   0.90712   0.26734   0.00000  Uiso   1.00
C521   C     0.43612   0.76898   0.27945   0.00000  Uiso   1.00
O522   O     0.41697   0.77051   0.23924   0.00000  Uiso   1.00
O523   O     0.42734   0.73197   0.30270   0.00000  Uiso   1.00
H524   H     0.40582   0.70959   0.28228   0.00000  Uiso   1.00
C525   C     0.56628   0.89660   0.05380   0.00000  Uiso   1.00
O526   O     0.58060   0.89666   0.09526   0.00000  Uiso   1.00
O527   O     0.58336   0.93069   0.02911   0.00000  Uiso   1.00
H528   H     0.60933   0.95062   0.04886   0.00000  Uiso   1.00
O529   O     0.83333   0.77322   0.20625   0.00000  Uiso   1.00
O530   O     0.83334   0.89345   0.12709   0.00000  Uiso   1.00
O531   O     0.83333   0.77321   0.12706   0.00000  Uiso   1.00
O532   O     0.83334   0.89346   0.20628   0.00000  Uiso   1.00
C533   C     0.83854   0.75463   0.16703   0.00000  Uiso   1.00
C534   C     0.82862   0.91224   0.16646   0.00000  Uiso   1.00
O535   O     0.75828   0.83334   0.19712   0.00000  Uiso   1.00
O536   O     0.90839   0.83333   0.13621   0.00000  Uiso   1.00
O537   O     0.75828   0.83333   0.11793   0.00000  Uiso   1.00
O538   O     0.90839   0.83334   0.21540   0.00000  Uiso   1.00
C539   C     0.73516   0.83398   0.15494   0.00000  Uiso   1.00
C540   C     0.93163   0.83331   0.17842   0.00000  Uiso   1.00
Cu541  Cu    0.83333   0.83334   0.21355   0.00000  Uiso   1.00
Cu542  Cu    0.83333   0.83333   0.11978   0.00000  Uiso   1.00
N543   N     0.83335   0.83334   0.28403   0.00000  Uiso   1.00
N544   N     0.83332   0.83332   0.04931   0.00000  Uiso   1.00
C545   C     0.68055   0.83463   0.14828   0.00000  Uiso   1.00
C546   C     0.98645   0.83400   0.18508   0.00000  Uiso   1.00
C547   C     0.84092   0.68682   0.12557   0.00000  Uiso   1.00
C548   C     0.83227   0.98003   0.20988   0.00000  Uiso   1.00
C549   C     0.82003   0.97887   0.12469   0.00000  Uiso   1.00
C550   C     0.84795   0.68922   0.21018   0.00000  Uiso   1.00
C551   C     0.82371   0.95733   0.16694   0.00000  Uiso   1.00
C552   C     0.84531   0.70994   0.16761   0.00000  Uiso   1.00
C553   C     0.79921   0.80737   0.02079   0.00000  Uiso   1.00
C554   C     0.86872   0.85809   0.31273   0.00000  Uiso   1.00
C555   C     0.80049   0.80553   0.30492   0.00000  Uiso   1.00
C556   C     0.86661   0.86079   0.02841   0.00000  Uiso   1.00
C557   C     0.99159   0.83486   0.09852   0.00000  Uiso   1.00
O558   O     0.66974   0.86426   0.07476   0.00000  Uiso   1.00
O559   O     0.96130   0.80031   0.07813   0.00000  Uiso   1.00
H560   H     0.94903   0.80399   0.04395   0.00000  Uiso   1.00
C561   C     0.67604   0.83575   0.23479   0.00000  Uiso   1.00
O562   O     0.99899   0.80718   0.26010   0.00000  Uiso   1.00
O563   O     0.70674   0.87096   0.25309   0.00000  Uiso   1.00
H564   H     0.72003   0.86838   0.28727   0.00000  Uiso   1.00
C565   C     0.87257   0.70025   0.08869   0.00000  Uiso   1.00
O566   O     0.89780   0.73376   0.09180   0.00000  Uiso   1.00
O567   O     0.87858   0.67244   0.05325   0.00000  Uiso   1.00
H568   H     0.90616   0.68299   0.03429   0.00000  Uiso   1.00
C569   C     0.81553   0.96125   0.25236   0.00000  Uiso   1.00
O570   O     0.77245   0.94441   0.25049   0.00000  Uiso   1.00
O571   O     0.84815   0.96256   0.29410   0.00000  Uiso   1.00
H572   H     0.83157   0.94807   0.31978   0.00000  Uiso   1.00
C573   C     0.78551   0.96229   0.08217   0.00000  Uiso   1.00
O574   O     0.76007   0.92899   0.08270   0.00000  Uiso   1.00
O575   O     0.77796   0.98683   0.04294   0.00000  Uiso   1.00
H576   H     0.75231   0.97296   0.01719   0.00000  Uiso   1.00
C577   C     0.87428   0.71120   0.25327   0.00000  Uiso   1.00
O578   O     0.91543   0.73091   0.25227   0.00000  Uiso   1.00
O579   O     0.85183   0.71116   0.29396   0.00000  Uiso   1.00
H580   H     0.87109   0.73131   0.31853   0.00000  Uiso   1.00
N581   N     0.75791   0.78523   0.03967   0.00000  Uiso   1.00
O582   O     0.76410   0.75051   0.06050   0.00000  Uiso   1.00
O583   O     0.71213   0.79362   0.02493   0.00000  Uiso   1.00
N584   N     0.91326   0.87597   0.29498   0.00000  Uiso   1.00
O585   O     0.95726   0.86634   0.31377   0.00000  Uiso   1.00
O586   O     0.91145   0.90712   0.26734   0.00000  Uiso   1.00
C587   C     0.76946   0.76898   0.27945   0.00000  Uiso   1.00
O588   O     0.75030   0.77051   0.23924   0.00000  Uiso   1.00
O589   O     0.76067   0.73197   0.30270   0.00000  Uiso   1.00
H590   H     0.73915   0.70959   0.28228   0.00000  Uiso   1.00
C591   C     0.89962   0.89660   0.05380   0.00000  Uiso   1.00
O592   O     0.91394   0.89666   0.09526   0.00000  Uiso   1.00
O593   O     0.91670   0.93069   0.02911   0.00000  Uiso   1.00
H594   H     0.94267   0.95062   0.04886   0.00000  Uiso   1.00
O595   O     0.16666   0.10655   0.53958   0.00000  Uiso   1.00
O596   O     0.16667   0.22678   0.46042   0.00000  Uiso   1.00
O597   O     0.16666   0.10654   0.46039   0.00000  Uiso   1.00
O598   O     0.16667   0.22679   0.53961   0.00000  Uiso   1.00
C599   C     0.17188   0.08796   0.50036   0.00000  Uiso   1.00
C600   C     0.16196   0.24557   0.49979   0.00000  Uiso   1.00
O601   O     0.09161   0.16667   0.53046   0.00000  Uiso   1.00
O602   O     0.24172   0.16666   0.46954   0.00000  Uiso   1.00
O603   O     0.09161   0.16666   0.45127   0.00000  Uiso   1.00
O604   O     0.24172   0.16667   0.54873   0.00000  Uiso   1.00
C605   C     0.06849   0.16732   0.48827   0.00000  Uiso   1.00
C606   C     0.26496   0.16664   0.51175   0.00000  Uiso   1.00
Cu607  Cu    0.16667   0.16667   0.54689   0.00000  Uiso   1.00
Cu608  Cu    0.16667   0.16666   0.45311   0.00000  Uiso   1.00
N609   N     0.16668   0.16668   0.61736   0.00000  Uiso   1.00
N610   N     0.16665   0.16666   0.38264   0.00000  Uiso   1.00
C611   C     0.01388   0.16797   0.48162   0.00000  Uiso   1.00
C612   C     0.31979   0.16734   0.51841   0.00000  Uiso   1.00
C613   C     0.17425   0.02016   0.45890   0.00000  Uiso   1.00
C614   C     0.16560   0.31336   0.54321   0.00000  Uiso   1.00
C615   C     0.15336   0.31220   0.45802   0.00000  Uiso   1.00
C616   C     0.18129   0.02255   0.54352   0.00000  Uiso   1.00
C617   C     0.15704   0.29067   0.50027   0.00000  Uiso   1.00
C618   C     0.17864   0.04328   0.50094   0.00000  Uiso   1.00
C619   C     0.13254   0.14071   0.35412   0.00000  Uiso   1.00
C620   C     0.20205   0.19142   0.64606   0.00000  Uiso   1.00
C621   C     0.13383   0.13887   0.63825   0.00000  Uiso   1.00
C622   C     0.19994   0.19412   0.36175   0.00000  Uiso   1.00
C623   C     0.32492   0.16820   0.43186   0.00000  Uiso   1.00
O624   O     0.00307   0.19759   0.40809   0.00000  Uiso   1.00
O625   O     0.29464   0.13364   0.41146   0.00000  Uiso   1.00
H626   H     0.28237   0.13733   0.37728   0.00000  Uiso   1.00
C627   C     0.00937   0.16908   0.56813   0.00000  Uiso   1.00
O628   O     0.33232   0.14052   0.59344   0.00000  Uiso   1.00
O629   O     0.04007   0.20429   0.58643   0.00000  Uiso   1.00
H630   H     0.05336   0.20171   0.62060   0.00000  Uiso   1.00
C631   C     0.20591   0.03358   0.42202   0.00000  Uiso   1.00
O632   O     0.23113   0.06710   0.42514   0.00000  Uiso   1.00
O633   O     0.21191   0.00578   0.38658   0.00000  Uiso   1.00
H634   H     0.23949   0.01633   0.36763   0.00000  Uiso   1.00
C635   C     0.14886   0.29459   0.58569   0.00000  Uiso   1.00
O636   O     0.10578   0.27774   0.58382   0.00000  Uiso   1.00
O637   O     0.18148   0.29589   0.62743   0.00000  Uiso   1.00
H638   H     0.16491   0.28141   0.65311   0.00000  Uiso   1.00
C639   C     0.11885   0.29562   0.41550   0.00000  Uiso   1.00
O640   O     0.09341   0.26232   0.41603   0.00000  Uiso   1.00
O641   O     0.11129   0.32016   0.37627   0.00000  Uiso   1.00
H642   H     0.08564   0.30629   0.35052   0.00000  Uiso   1.00
C643   C     0.20761   0.04453   0.58660   0.00000  Uiso   1.00
O644   O     0.24876   0.06424   0.58560   0.00000  Uiso   1.00
O645   O     0.18516   0.04449   0.62729   0.00000  Uiso   1.00
H646   H     0.20442   0.06464   0.65187   0.00000  Uiso   1.00
N647   N     0.09125   0.11856   0.37300   0.00000  Uiso   1.00
O648   O     0.09743   0.08384   0.39383   0.00000  Uiso   1.00
O649   O     0.04547   0.12695   0.35827   0.00000  Uiso   1.00
N650   N     0.24660   0.20930   0.62832   0.00000  Uiso   1.00
O651   O     0.29060   0.19967   0.64711   0.00000  Uiso   1.00
O652   O     0.24478   0.24046   0.60067   0.00000  Uiso   1.00
C653   C     0.10279   0.10231   0.61278   0.00000  Uiso   1.00
O654   O     0.08364   0.10384   0.57257   0.00000  Uiso   1.00
O655   O     0.09400   0.06530   0.63603   0.00000  Uiso   1.00
H656   H     0.07249   0.04292   0.61562   0.00000  Uiso   1.00
C657   C     0.23295   0.22993   0.38714   0.00000  Uiso   1.00
O658   O     0.24727   0.22999   0.42859   0.00000  Uiso   1.00
O659   O     0.25003   0.26403   0.36245   0.00000  Uiso   1.00
H660   H     0.27600   0.28395   0.38219   0.00000  Uiso   1.00
O661   O     0.50000   0.10655   0.53958   0.00000  Uiso   1.00
O662   O     0.50000   0.22678   0.46042   0.00000  Uiso   1.00
O663   O     0.50000   0.10654   0.46039   0.00000  Uiso   1.00
O664   O     0.50000   0.22679   0.53961   0.00000  Uiso   1.00
C665   C     0.50521   0.08796   0.50036   0.00000  Uiso   1.00
C666   C     0.49529   0.24557   0.49979   0.00000  Uiso   1.00
O667   O     0.42495   0.16667   0.53046   0.00000  Uiso   1.00
O668   O     0.57505   0.16666   0.46954   0.00000  Uiso   1.00
O669   O     0.42494   0.16666   0.45127   0.00000  Uiso   1.00
O670   O     0.57506   0.16667   0.54873   0.00000  Uiso   1.00
C671   C     0.40182   0.16732   0.48827   0.00000  Uiso   1.00
C672   C     0.59829   0.16664   0.51175   0.00000  Uiso   1.00
Cu673  Cu    0.50000   0.16667   0.54689   0.00000  Uiso   1.00
Cu674  Cu    0.50000   0.16666   0.45311   0.00000  Uiso   1.00
N675   N     0.50001   0.16668   0.61736   0.00000  Uiso   1.00
N676   N     0.49999   0.16666   0.38264   0.00000  Uiso   1.00
C677   C     0.34721   0.16797   0.48162   0.00000  Uiso   1.00
C678   C     0.65312   0.16734   0.51841   0.00000  Uiso   1.00
C679   C     0.50758   0.02016   0.45890   0.00000  Uiso   1.00
C680   C     0.49893   0.31336   0.54321   0.00000  Uiso   1.00
C681   C     0.48670   0.31220   0.45802   0.00000  Uiso   1.00
C682   C     0.51462   0.02255   0.54352   0.00000  Uiso   1.00
C683   C     0.49038   0.29067   0.50027   0.00000  Uiso   1.00
C684   C     0.51198   0.04328   0.50094   0.00000  Uiso   1.00
C685   C     0.46587   0.14071   0.35412   0.00000  Uiso   1.00
C686   C     0.53539   0.19142   0.64606   0.00000  Uiso   1.00
C687   C     0.46716   0.13887   0.63825   0.00000  Uiso   1.00
C688   C     0.53328   0.19412   0.36175   0.00000  Uiso   1.00
C689   C     0.65826   0.16820   0.43186   0.00000  Uiso   1.00
O690   O     0.33640   0.19759   0.40809   0.00000  Uiso   1.00
O691   O     0.62797   0.13364   0.41146   0.00000  Uiso   1.00
H692   H     0.61570   0.13733   0.37728   0.00000  Uiso   1.00
C693   C     0.34271   0.16908   0.56813   0.00000  Uiso   1.00
O694   O     0.66565   0.14052   0.59344   0.00000  Uiso   1.00
O695   O     0.37341   0.20429   0.58643   0.00000  Uiso   1.00
H696   H     0.38669   0.20171   0.62060   0.00000  Uiso   1.00
C697   C     0.53924   0.03358   0.42202   0.00000  Uiso   1.00
O698   O     0.56446   0.06710   0.42514   0.00000  Uiso   1.00
O699   O     0.54524   0.00578   0.38658   0.00000  Uiso   1.00
H700   H     0.57282   0.01633   0.36763   0.00000  Uiso   1.00
C701   C     0.48220   0.29459   0.58569   0.00000  Uiso   1.00
O702   O     0.43911   0.27774   0.58382   0.00000  Uiso   1.00
O703   O     0.51482   0.29589   0.62743   0.00000  Uiso   1.00
H704   H     0.49824   0.28141   0.65311   0.00000  Uiso   1.00
C705   C     0.45218   0.29562   0.41550   0.00000  Uiso   1.00
O706   O     0.42674   0.26232   0.41603   0.00000  Uiso   1.00
O707   O     0.44462   0.32016   0.37627   0.00000  Uiso   1.00
H708   H     0.41897   0.30629   0.35052   0.00000  Uiso   1.00
C709   C     0.54094   0.04453   0.58660   0.00000  Uiso   1.00
O710   O     0.58209   0.06424   0.58560   0.00000  Uiso   1.00
O711   O     0.51850   0.04449   0.62729   0.00000  Uiso   1.00
H712   H     0.53776   0.06464   0.65187   0.00000  Uiso   1.00
N713   N     0.42458   0.11856   0.37300   0.00000  Uiso   1.00
O714   O     0.43077   0.08384   0.39383   0.00000  Uiso   1.00
O715   O     0.37880   0.12695   0.35827   0.00000  Uiso   1.00
N716   N     0.57993   0.20930   0.62832   0.00000  Uiso   1.00
O717   O     0.62393   0.19967   0.64711   0.00000  Uiso   1.00
O718   O     0.57812   0.24046   0.60067   0.00000  Uiso   1.00
C719   C     0.43612   0.10231   0.61278   0.00000  Uiso   1.00
O720   O     0.41697   0.10384   0.57257   0.00000  Uiso   1.00
O721   O     0.42734   0.06530   0.63603   0.00000  Uiso   1.00
H722   H     0.40582   0.04292   0.61562   0.00000  Uiso   1.00
C723   C     0.56628   0.22993   0.38714   0.00000  Uiso   1.00
O724   O     0.58060   0.22999   0.42859   0.00000  Uiso   1.00
O725   O     0.58336   0.26403   0.36245   0.00000  Uiso   1.00
H726   H     0.60933   0.28395   0.38219   0.00000  Uiso   1.00
O727   O     0.83333   0.10655   0.53958   0.00000  Uiso   1.00
O728   O     0.83334   0.22678   0.46042   0.00000  Uiso   1.00
O729   O     0.83333   0.10654   0.46039   0.00000  Uiso   1.00
O730   O     0.83334   0.22679   0.53961   0.00000  Uiso   1.00
C731   C     0.83854   0.08796   0.50036   0.00000  Uiso   1.00
C732   C     0.82862   0.24557   0.49979   0.00000  Uiso   1.00
O733   O     0.75828   0.16667   0.53046   0.00000  Uiso   1.00
O734   O     0.90839   0.16666   0.46954   0.00000  Uiso   1.00
O735   O     0.75828   0.16666   0.45127   0.00000  Uiso   1.00
O736   O     0.90839   0.16667   0.54873   0.00000  Uiso   1.00
C737   C     0.73516   0.16732   0.48827   0.00000  Uiso   1.00
C738   C     0.93163   0.16664   0.51175   0.00000  Uiso   1.00
Cu739  Cu    0.83333   0.16667   0.54689   0.00000  Uiso   1.00
Cu740  Cu    0.83333   0.16666   0.45311   0.00000  Uiso   1.00
N741   N     0.83335   0.16668   0.61736   0.00000  Uiso   1.00
N742   N     0.83332   0.16666   0.38264   0.00000  Uiso   1.00
C743   C     0.68055   0.16797   0.48162   0.00000  Uiso   1.00
C744   C     0.98645   0.16734   0.51841   0.00000  Uiso   1.00
C745   C     0.84092   0.02016   0.45890   0.00000  Uiso   1.00
C746   C     0.83227   0.31336   0.54321   0.00000  Uiso   1.00
C747   C     0.82003   0.31220   0.45802   0.00000  Uiso   1.00
C748   C     0.84795   0.02255   0.54352   0.00000  Uiso   1.00
C749   C     0.82371   0.29067   0.50027   0.00000  Uiso   1.00
C750   C     0.84531   0.04328   0.50094   0.00000  Uiso   1.00
C751   C     0.79921   0.14071   0.35412   0.00000  Uiso   1.00
C752   C     0.86872   0.19142   0.64606   0.00000  Uiso   1.00
C753   C     0.80049   0.13887   0.63825   0.00000  Uiso   1.00
C754   C     0.86661   0.19412   0.36175   0.00000  Uiso   1.00
C755   C     0.99159   0.16820   0.43186   0.00000  Uiso   1.00
O756   O     0.66974   0.19759   0.40809   0.00000  Uiso   1.00
O757   O     0.96130   0.13364   0.41146   0.00000  Uiso   1.00
H758   H     0.94903   0.13733   0.37728   0.00000  Uiso   1.00
C759   C     0.67604   0.16908   0.56813   0.00000  Uiso   1.00
O760   O     0.99899   0.14052   0.59344   0.00000  Uiso   1.00
O761   O     0.70674   0.20429   0.58643   0.00000  Uiso   1.00
H762   H     0.72003   0.20171   0.62060   0.00000  Uiso   1.00
C763   C     0.87257   0.03358   0.42202   0.00000  Uiso   1.00
O764   O     0.89780   0.06710   0.42514   0.00000  Uiso   1.00
O765   O     0.87858   0.00578   0.38658   0.00000  Uiso   1.00
H766   H     0.90616   0.01633   0.36763   0.00000  Uiso   1.00
C767   C     0.81553   0.29459   0.58569   0.00000  Uiso   1.00
O768   O     0.77245   0.27774   0.58382   0.00000  Uiso   1.00
O769   O     0.84815   0.29589   0.62743   0.00000  Uiso   1.00
H770   H     0.83157   0.28141   0.65311   0.00000  Uiso   1.00
C771   C     0.78551   0.29562   0.41550   0.00000  Uiso   1.00
O772   O     0.76007   0.26232   0.41603   0.00000  Uiso   1.00
O773   O     0.77796   0.32016   0.37627   0.00000  Uiso   1.00
H774   H     0.75231   0.30629   0.35052   0.00000  Uiso   1.00
C775   C     0.87428   0.04453   0.58660   0.00000  Uiso   1.00
O776   O     0.91543   0.06424   0.58560   0.00000  Uiso   1.00
O777   O     0.85183   0.04449   0.62729   0.00000  Uiso   1.00
H778   H     0.87109   0.06464   0.65187   0.00000  Uiso   1.00
N779   N     0.75791   0.11856   0.37300   0.00000  Uiso   1.00
O780   O     0.76410   0.08384   0.39383   0.00000  Uiso   1.00
O781   O     0.71213   0.12695   0.35827   0.00000  Uiso   1.00
N782   N     0.91326   0.20930   0.62832   0.00000  Uiso   1.00
O783   O     0.95726   0.19967   0.64711   0.00000  Uiso   1.00
O784   O     0.91145   0.24046   0.60067   0.00000  Uiso   1.00
C785   C     0.76946   0.10231   0.61278   0.00000  Uiso   1.00
O786   O     0.75030   0.10384   0.57257   0.00000  Uiso   1.00
O787   O     0.76067   0.06530   0.63603   0.00000  Uiso   1.00
H788   H     0.73915   0.04292   0.61562   0.00000  Uiso   1.00
C789   C     0.89962   0.22993   0.38714   0.00000  Uiso   1.00
O790   O     0.91394   0.22999   0.42859   0.00000  Uiso   1.00
O791   O     0.91670   0.26403   0.36245   0.00000  Uiso   1.00
H792   H     0.94267   0.28395   0.38219   0.00000  Uiso   1.00
O793   O     0.16666   0.43989   0.53958   0.00000  Uiso   1.00
O794   O     0.16667   0.56011   0.46042   0.00000  Uiso   1.00
O795   O     0.16666   0.43988   0.46039   0.00000  Uiso   1.00
O796   O     0.16667   0.56012   0.53961   0.00000  Uiso   1.00
C797   C     0.17188   0.42129   0.50036   0.00000  Uiso   1.00
C798   C     0.16196   0.57890   0.49979   0.00000  Uiso   1.00
O799   O     0.09161   0.50000   0.53046   0.00000  Uiso   1.00
O800   O     0.24172   0.50000   0.46954   0.00000  Uiso   1.00
O801   O     0.09161   0.49999   0.45127   0.00000  Uiso   1.00
O802   O     0.24172   0.50001   0.54873   0.00000  Uiso   1.00
C803   C     0.06849   0.50065   0.48827   0.00000  Uiso   1.00
C804   C     0.26496   0.49997   0.51175   0.00000  Uiso   1.00
Cu805  Cu    0.16667   0.50001   0.54689   0.00000  Uiso   1.00
Cu806  Cu    0.16667   0.49999   0.45311   0.00000  Uiso   1.00
N807   N     0.16668   0.50001   0.61736   0.00000  Uiso   1.00
N808   N     0.16665   0.49999   0.38264   0.00000  Uiso   1.00
C809   C     0.01388   0.50130   0.48162   0.00000  Uiso   1.00
C810   C     0.31979   0.50067   0.51841   0.00000  Uiso   1.00
C811   C     0.17425   0.35349   0.45890   0.00000  Uiso   1.00
C812   C     0.16560   0.64669   0.54321   0.00000  Uiso   1.00
C813   C     0.15336   0.64553   0.45802   0.00000  Uiso   1.00
C814   C     0.18129   0.35589   0.54352   0.00000  Uiso   1.00
C815   C     0.15704   0.62400   0.50027   0.00000  Uiso   1.00
C816   C     0.17864   0.37661   0.50094   0.00000  Uiso   1.00
C817   C     0.13254   0.47404   0.35412   0.00000  Uiso   1.00
C818   C     0.20205   0.52475   0.64606   0.00000  Uiso   1.00
C819   C     0.13383   0.47220   0.63825   0.00000  Uiso   1.00
C820   C     0.19994   0.52746   0.36175   0.00000  Uiso   1.00
C821   C     0.32492   0.50153   0.43186   0.00000  Uiso   1.00
O822   O     0.00307   0.53093   0.40809   0.00000  Uiso   1.00
O823   O     0.29464   0.46698   0.41146   0.00000  Uiso   1.00
H824   H     0.28237   0.47066   0.37728   0.00000  Uiso   1.00
C825   C     0.00937   0.50242   0.56813   0.00000  Uiso   1.00
O826   O     0.33232   0.47385   0.59344   0.00000  Uiso   1.00
O827   O     0.04007   0.53763   0.58643   0.00000  Uiso   1.00
H828   H     0.05336   0.53505   0.62060   0.00000  Uiso   1.00
C829   C     0.20591   0.36691   0.42202   0.00000  Uiso   1.00
O830   O     0.23113   0.40043   0.42514   0.00000  Uiso   1.00
O831   O     0.21191   0.33911   0.38658   0.00000  Uiso   1.00
H832   H     0.23949   0.34966   0.36763   0.00000  Uiso   1.00
C833   C     0.14886   0.62792   0.58569   0.00000  Uiso   1.00
O834   O     0.10578   0.61108   0.58382   0.00000  Uiso   1.00
O835   O     0.18148   0.62922   0.62743   0.00000  Uiso   1.00
H836   H     0.16491   0.61474   0.65311   0.00000  Uiso   1.00
C837   C     0.11885   0.62895   0.41550   0.00000  Uiso   1.00
O838   O     0.09341   0.59565   0.41603   0.00000  Uiso   1.00
O839   O     0.11129   0.65350   0.37627   0.00000  Uiso   1.00
H840   H     0.08564   0.63962   0.35052   0.00000  Uiso   1.00
C841   C     0.20761   0.37786   0.58660   0.00000  Uiso   1.00
O842   O     0.24876   0.39757   0.58560   0.00000  Uiso   1.00
O843   O     0.18516   0.37782   0.62729   0.00000  Uiso   1.00
H844   H     0.20442   0.39797   0.65187   0.00000  Uiso   1.00
N845   N     0.09125   0.45190   0.37300   0.00000  Uiso   1.00
O846   O     0.09743   0.41718   0.39383   0.00000  Uiso   1.00
O847   O     0.04547   0.46029   0.35827   0.00000  Uiso   1.00
N848   N     0.24660   0.54263   0.62832   0.00000  Uiso   1.00
O849   O     0.29060   0.53300   0.64711   0.00000  Uiso   1.00
O850   O     0.24478   0.57379   0.60067   0.00000  Uiso   1.00
C851   C     0.10279   0.43565   0.61278   0.00000  Uiso   1.00
O852   O     0.08364   0.43718   0.57257   0.00000  Uiso   1.00
O853   O     0.09400   0.39863   0.63603   0.00000  Uiso   1.00
H854   H     0.07249   0.37625   0.61562   0.00000  Uiso   1.00
C855   C     0.23295   0.56326   0.38714   0.00000  Uiso   1.00
O856   O     0.24727   0.56333   0.42859   0.00000  Uiso   1.00
O857   O     0.25003   0.59736   0.36245   0.00000  Uiso   1.00
H858   H     0.27600   0.61728   0.38219   0.00000  Uiso   1.00
O859   O     0.50000   0.43989   0.53958   0.00000  Uiso   1.00
O860   O     0.50000   0.56011   0.46042   0.00000  Uiso   1.00
O861   O     0.50000   0.43988   0.46039   0.00000  Uiso   1.00
O862   O     0.50000   0.56012   0.53961   0.00000  Uiso   1.00
C863   C     0.50521   0.42129   0.50036   0.00000  Uiso   1.00
C864   C     0.49529   0.57890   0.49979   0.00000  Uiso   1.00
O865   O     0.42495   0.50000   0.53046   0.00000  Uiso   1.00
O866   O     0.57505   0.50000   0.46954   0.00000  Uiso   1.00
O867   O     0.42494   0.49999   0.45127   0.00000  Uiso   1.00
O868   O     0.57506   0.50001   0.54873   0.00000  Uiso   1.00
C869   C     0.40182   0.50065   0.48827   0.00000  Uiso   1.00
C870   C     0.59829   0.49997   0.51175   0.00000  Uiso   1.00
Cu871  Cu    0.50000   0.50001   0.54689   0.00000  Uiso   1.00
Cu872  Cu    0.50000   0.49999   0.45311   0.00000  Uiso   1.00
N873   N     0.50001   0.50001   0.61736   0.00000  Uiso   1.00
N874   N     0.49999   0.49999   0.38264   0.00000  Uiso   1.00
C875   C     0.34721   0.50130   0.48162   0.00000  Uiso   1.00
C876   C     0.65312   0.50067   0.51841   0.00000  Uiso   1.00
C877   C     0.50758   0.35349   0.45890   0.00000  Uiso   1.00
C878   C     0.49893   0.64669   0.54321   0.00000  Uiso   1.00
C879   C     0.48670   0.64553   0.45802   0.00000  Uiso   1.00
C880   C     0.51462   0.35589   0.54352   0.00000  Uiso   1.00
C881   C     0.49038   0.62400   0.50027   0.00000  Uiso   1.00
C882   C     0.51198   0.37661   0.50094   0.00000  Uiso   1.00
C883   C     0.46587   0.47404   0.35412   0.00000  Uiso   1.00
C884   C     0.53539   0.52475   0.64606   0.00000  Uiso   1.00
C885   C     0.46716   0.47220   0.63825   0.00000  Uiso   1.00
C886   C     0.53328   0.52746   0.36175   0.00000  Uiso   1.00
C887   C     0.65826   0.50153   0.43186   0.00000  Uiso   1.00
O888   O     0.33640   0.53093   0.40809   0.00000  Uiso   1.00
O889   O     0.62797   0.46698   0.41146   0.00000  Uiso   1.00
H890   H     0.61570   0.47066   0.37728   0.00000  Uiso   1.00
C891   C     0.34271   0.50242   0.56813   0.00000  Uiso   1.00
O892   O     0.66565   0.47385   0.59344   0.00000  Uiso   1.00
O893   O     0.37341   0.53763   0.58643   0.00000  Uiso   1.00
H894   H     0.38669   0.53505   0.62060   0.00000  Uiso   1.00
C895   C     0.53924   0.36691   0.42202   0.00000  Uiso   1.00
O896   O     0.56446   0.40043   0.42514   0.00000  Uiso   1.00
O897   O     0.54524   0.33911   0.38658   0.00000  Uiso   1.00
H898   H     0.57282   0.34966   0.36763   0.00000  Uiso   1.00
C899   C     0.48220   0.62792   0.58569   0.00000  Uiso   1.00
O900   O     0.43911   0.61108   0.58382   0.00000  Uiso   1.00
O901   O     0.51482   0.62922   0.62743   0.00000  Uiso   1.00
H902   H     0.49824   0.61474   0.65311   0.00000  Uiso   1.00
C903   C     0.45218   0.62895   0.41550   0.00000  Uiso   1.00
O904   O     0.42674   0.59565   0.41603   0.00000  Uiso   1.00
O905   O     0.44462   0.65350   0.37627   0.00000  Uiso   1.00
H906   H     0.41897   0.63962   0.35052   0.00000  Uiso   1.00
C907   C     0.54094   0.37786   0.58660   0.00000  Uiso   1.00
O908   O     0.58209   0.39757   0.58560   0.00000  Uiso   1.00
O909   O     0.51850   0.37782   0.62729   0.00000  Uiso   1.00
H910   H     0.53776   0.39797   0.65187   0.00000  Uiso   1.00
N911   N     0.42458   0.45190   0.37300   0.00000  Uiso   1.00
O912   O     0.43077   0.41718   0.39383   0.00000  Uiso   1.00
O913   O     0.37880   0.46029   0.35827   0.00000  Uiso   1.00
N914   N     0.57993   0.54263   0.62832   0.00000  Uiso   1.00
O915   O     0.62393   0.53300   0.64711   0.00000  Uiso   1.00
O916   O     0.57812   0.57379   0.60067   0.00000  Uiso   1.00
C917   C     0.43612   0.43565   0.61278   0.00000  Uiso   1.00
O918   O     0.41697   0.43718   0.57257   0.00000  Uiso   1.00
O919   O     0.42734   0.39863   0.63603   0.00000  Uiso   1.00
H920   H     0.40582   0.37625   0.61562   0.00000  Uiso   1.00
C921   C     0.56628   0.56326   0.38714   0.00000  Uiso   1.00
O922   O     0.58060   0.56333   0.42859   0.00000  Uiso   1.00
O923   O     0.58336   0.59736   0.36245   0.00000  Uiso   1.00
H924   H     0.60933   0.61728   0.38219   0.00000  Uiso   1.00
O925   O     0.83333   0.43989   0.53958   0.00000  Uiso   1.00
O926   O     0.83334   0.56011   0.46042   0.00000  Uiso   1.00
O927   O     0.83333   0.43988   0.46039   0.00000  Uiso   1.00
O928   O     0.83334   0.56012   0.53961   0.00000  Uiso   1.00
C929   C     0.83854   0.42129   0.50036   0.00000  Uiso   1.00
C930   C     0.82862   0.57890   0.49979   0.00000  Uiso   1.00
O931   O     0.75828   0.50000   0.53046   0.00000  Uiso   1.00
O932   O     0.90839   0.50000   0.46954   0.00000  Uiso   1.00
O933   O     0.75828   0.49999   0.45127   0.00000  Uiso   1.00
O934   O     0.90839   0.50001   0.54873   0.00000  Uiso   1.00
C935   C     0.73516   0.50065   0.48827   0.00000  Uiso   1.00
C936   C     0.93163   0.49997   0.51175   0.00000  Uiso   1.00
Cu937  Cu    0.83333   0.50001   0.54689   0.00000  Uiso   1.00
Cu938  Cu    0.83333   0.49999   0.45311   0.00000  Uiso   1.00
N939   N     0.83335   0.50001   0.61736   0.00000  Uiso   1.00
N940   N     0.83332   0.49999   0.38264   0.00000  Uiso   1.00
C941   C     0.68055   0.50130   0.48162   0.00000  Uiso   1.00
C942   C     0.98645   0.50067   0.51841   0.00000  Uiso   1.00
C943   C     0.84092   0.35349   0.45890   0.00000  Uiso   1.00
C944   C     0.83227   0.64669   0.54321   0.00000  Uiso   1.00
C945   C     0.82003   0.64553   0.45802   0.00000  Uiso   1.00
C946   C     0.84795   0.35589   0.54352   0.00000  Uiso   1.00
C947   C     0.82371   0.62400   0.50027   0.00000  Uiso   1.00
C948   C     0.84531   0.37661   0.50094   0.00000  Uiso   1.00
C949   C     0.79921   0.47404   0.35412   0.00000  Uiso   1.00
C950   C     0.86872   0.52475   0.64606   0.00000  Uiso   1.00
C951   C     0.80049   0.47220   0.63825   0.00000  Uiso   1.00
C952   C     0.86661   0.52746   0.36175   0.00000  Uiso   1.00
C953   C     0.99159   0.50153   0.43186   0.00000  Uiso   1.00
O954   O     0.66974   0.53093   0.40809   0.00000  Uiso   1.00
O955   O     0.96130   0.46698   0.41146   0.00000  Uiso   1.00
H956   H     0.94903   0.47066   0.37728   0.00000  Uiso   1.00
C957   C     0.67604   0.50242   0.56813   0.00000  Uiso   1.00
O958   O     0.99899   0.47385   0.59344   0.00000  Uiso   1.00
O959   O     0.70674   0.53763   0.58643   0.00000  Uiso   1.00
H960   H     0.72003   0.53505   0.62060   0.00000  Uiso   1.00
C961   C     0.87257   0.36691   0.42202   0.00000  Uiso   1.00
O962   O     0.89780   0.40043   0.42514   0.00000  Uiso   1.00
O963   O     0.87858   0.33911   0.38658   0.00000  Uiso   1.00
H964   H     0.90616   0.34966   0.36763   0.00000  Uiso   1.00
C965   C     0.81553   0.62792   0.58569   0.00000  Uiso   1.00
O966   O     0.77245   0.61108   0.58382   0.00000  Uiso   1.00
O967   O     0.84815   0.62922   0.62743   0.00000  Uiso   1.00
H968   H     0.83157   0.61474   0.65311   0.00000  Uiso   1.00
C969   C     0.78551   0.62895   0.41550   0.00000  Uiso   1.00
O970   O     0.76007   0.59565   0.41603   0.00000  Uiso   1.00
O971   O     0.77796   0.65350   0.37627   0.00000  Uiso   1.00
H972   H     0.75231   0.63962   0.35052   0.00000  Uiso   1.00
C973   C     0.87428   0.37786   0.58660   0.00000  Uiso   1.00
O974   O     0.91543   0.39757   0.58560   0.00000  Uiso   1.00
O975   O     0.85183   0.37782   0.62729   0.00000  Uiso   1.00
H976   H     0.87109   0.39797   0.65187   0.00000  Uiso   1.00
N977   N     0.75791   0.45190   0.37300   0.00000  Uiso   1.00
O978   O     0.76410   0.41718   0.39383   0.00000  Uiso   1.00
O979   O     0.71213   0.46029   0.35827   0.00000  Uiso   1.00
N980   N     0.91326   0.54263   0.62832   0.00000  Uiso   1.00
O981   O     0.95726   0.53300   0.64711   0.00000  Uiso   1.00
O982   O     0.91145   0.57379   0.60067   0.00000  Uiso   1.00
C983   C     0.76946   0.43565   0.61278   0.00000  Uiso   1.00
O984   O     0.75030   0.43718   0.57257   0.00000  Uiso   1.00
O985   O     0.76067   0.39863   0.63603   0.00000  Uiso   1.00
H986   H     0.73915   0.37625   0.61562   0.00000  Uiso   1.00
C987   C     0.89962   0.56326   0.38714   0.00000  Uiso   1.00
O988   O     0.91394   0.56333   0.42859   0.00000  Uiso   1.00
O989   O     0.91670   0.59736   0.36245   0.00000  Uiso   1.00
H990   H     0.94267   0.61728   0.38219   0.00000  Uiso   1.00
O991   O     0.16666   0.77322   0.53958   0.00000  Uiso   1.00
O992   O     0.16667   0.89345   0.46042   0.00000  Uiso   1.00
O993   O     0.16666   0.77321   0.46039   0.00000  Uiso   1.00
O994   O     0.16667   0.89346   0.53961   0.00000  Uiso   1.00
C995   C     0.17188   0.75463   0.50036   0.00000  Uiso   1.00
C996   C     0.16196   0.91224   0.49979   0.00000  Uiso   1.00
O997   O     0.09161   0.83334   0.53046   0.00000  Uiso   1.00
O998   O     0.24172   0.83333   0.46954   0.00000  Uiso   1.00
O999   O     0.09161   0.83333   0.45127   0.00000  Uiso   1.00
O1000  O     0.24172   0.83334   0.54873   0.00000  Uiso   1.00
C1001  C     0.06849   0.83398   0.48827   0.00000  Uiso   1.00
C1002  C     0.26496   0.83331   0.51175   0.00000  Uiso   1.00
Cu1003 Cu    0.16667   0.83334   0.54689   0.00000  Uiso   1.00
Cu1004 Cu    0.16667   0.83333   0.45311   0.00000  Uiso   1.00
N1005  N     0.16668   0.83334   0.61736   0.00000  Uiso   1.00
N1006  N     0.16665   0.83332   0.38264   0.00000  Uiso   1.00
C1007  C     0.01388   0.83463   0.48162   0.00000  Uiso   1.00
C1008  C     0.31979   0.83400   0.51841   0.00000  Uiso   1.00
C1009  C     0.17425   0.68682   0.45890   0.00000  Uiso   1.00
C1010  C     0.16560   0.98003   0.54321   0.00000  Uiso   1.00
C1011  C     0.15336   0.97887   0.45802   0.00000  Uiso   1.00
C1012  C     0.18129   0.68922   0.54352   0.00000  Uiso   1.00
C1013  C     0.15704   0.95733   0.50027   0.00000  Uiso   1.00
C1014  C     0.17864   0.70994   0.50094   0.00000  Uiso   1.00
C1015  C     0.13254   0.80737   0.35412   0.00000  Uiso   1.00
C1016  C     0.20205   0.85809   0.64606   0.00000  Uiso   1.00
C1017  C     0.13383   0.80553   0.63825   0.00000  Uiso   1.00
C1018  C     0.19994   0.86079   0.36175   0.00000  Uiso   1.00
C1019  C     0.32492   0.83486   0.43186   0.00000  Uiso   1.00
O1020  O     0.00307   0.86426   0.40809   0.00000  Uiso   1.00
O1021  O     0.29464   0.80031   0.41146   0.00000  Uiso   1.00
H1022  H     0.28237   0.80399   0.37728   0.00000  Uiso   1.00
C1023  C     0.00937   0.83575   0.56813   0.00000  Uiso   1.00
O1024  O     0.33232   0.80718   0.59344   0.00000  Uiso   1.00
O1025  O     0.04007   0.87096   0.58643   0.00000  Uiso   1.00
H1026  H     0.05336   0.86838   0.62060   0.00000  Uiso   1.00
C1027  C     0.20591   0.70025   0.42202   0.00000  Uiso   1.00
O1028  O     0.23113   0.73376   0.42514   0.00000  Uiso   1.00
O1029  O     0.21191   0.67244   0.38658   0.00000  Uiso   1.00
H1030  H     0.23949   0.68299   0.36763   0.00000  Uiso   1.00
C1031  C     0.14886   0.96125   0.58569   0.00000  Uiso   1.00
O1032  O     0.10578   0.94441   0.58382   0.00000  Uiso   1.00
O1033  O     0.18148   0.96256   0.62743   0.00000  Uiso   1.00
H1034  H     0.16491   0.94807   0.65311   0.00000  Uiso   1.00
C1035  C     0.11885   0.96229   0.41550   0.00000  Uiso   1.00
O1036  O     0.09341   0.92899   0.41603   0.00000  Uiso   1.00
O1037  O     0.11129   0.98683   0.37627   0.00000  Uiso   1.00
H1038  H     0.08564   0.97296   0.35052   0.00000  Uiso   1.00
C1039  C     0.20761   0.71120   0.58660   0.00000  Uiso   1.00
O1040  O     0.24876   0.73091   0.58560   0.00000  Uiso   1.00
O1041  O     0.18516   0.71116   0.62729   0.00000  Uiso   1.00
H1042  H     0.20442   0.73131   0.65187   0.00000  Uiso   1.00
N1043  N     0.09125   0.78523   0.37300   0.00000  Uiso   1.00
O1044  O     0.09743   0.75051   0.39383   0.00000  Uiso   1.00
O1045  O     0.04547   0.79362   0.35827   0.00000  Uiso   1.00
N1046  N     0.24660   0.87597   0.62832   0.00000  Uiso   1.00
O1047  O     0.29060   0.86634   0.64711   0.00000  Uiso   1.00
O1048  O     0.24478   0.90712   0.60067   0.00000  Uiso   1.00
C1049  C     0.10279   0.76898   0.61278   0.00000  Uiso   1.00
O1050  O     0.08364   0.77051   0.57257   0.00000  Uiso   1.00
O1051  O     0.09400   0.73197   0.63603   0.00000  Uiso   1.00
H1052  H     0.07249   0.70959   0.61562   0.00000  Uiso   1.00
C1053  C     0.23295   0.89660   0.38714   0.00000  Uiso   1.00
O1054  O     0.24727   0.89666   0.42859   0.00000  Uiso   1.00
O1055  O     0.25003   0.93069   0.36245   0.00000  Uiso   1.00
H1056  H     0.27600   0.95062   0.38219   0.00000  Uiso   1.00
O1057  O     0.50000   0.77322   0.53958   0.00000  Uiso   1.00
O1058  O     0.50000   0.89345   0.46042   0.00000  Uiso   1.00
O1059  O     0.50000   0.77321   0.46039   0.00000  Uiso   1.00
O1060  O     0.50000   0.89346   0.53961   0.00000  Uiso   1.00
C1061  C     0.50521   0.75463   0.50036   0.00000  Uiso   1.00
C1062  C     0.49529   0.91224   0.49979   0.00000  Uiso   1.00
O1063  O     0.42495   0.83334   0.53046   0.00000  Uiso   1.00
O1064  O     0.57505   0.83333   0.46954   0.00000  Uiso   1.00
O1065  O     0.42494   0.83333   0.45127   0.00000  Uiso   1.00
O1066  O     0.57506   0.83334   0.54873   0.00000  Uiso   1.00
C1067  C     0.40182   0.83398   0.48827   0.00000  Uiso   1.00
C1068  C     0.59829   0.83331   0.51175   0.00000  Uiso   1.00
Cu1069 Cu    0.50000   0.83334   0.54689   0.00000  Uiso   1.00
Cu1070 Cu    0.50000   0.83333   0.45311   0.00000  Uiso   1.00
N1071  N     0.50001   0.83334   0.61736   0.00000  Uiso   1.00
N1072  N     0.49999   0.83332   0.38264   0.00000  Uiso   1.00
C1073  C     0.34721   0.83463   0.48162   0.00000  Uiso   1.00
C1074  C     0.65312   0.83400   0.51841   0.00000  Uiso   1.00
C1075  C     0.50758   0.68682   0.45890   0.00000  Uiso   1.00
C1076  C     0.49893   0.98003   0.54321   0.00000  Uiso   1.00
C1077  C     0.48670   0.97887   0.45802   0.00000  Uiso   1.00
C1078  C     0.51462   0.68922   0.54352   0.00000  Uiso   1.00
C1079  C     0.49038   0.95733   0.50027   0.00000  Uiso   1.00
C1080  C     0.51198   0.70994   0.50094   0.00000  Uiso   1.00
C1081  C     0.46587   0.80737   0.35412   0.00000  Uiso   1.00
C1082  C     0.53539   0.85809   0.64606   0.00000  Uiso   1.00
C1083  C     0.46716   0.80553   0.63825   0.00000  Uiso   1.00
C1084  C     0.53328   0.86079   0.36175   0.00000  Uiso   1.00
C1085  C     0.65826   0.83486   0.43186   0.00000  Uiso   1.00
O1086  O     0.33640   0.86426   0.40809   0.00000  Uiso   1.00
O1087  O     0.62797   0.80031   0.41146   0.00000  Uiso   1.00
H1088  H     0.61570   0.80399   0.37728   0.00000  Uiso   1.00
C1089  C     0.34271   0.83575   0.56813   0.00000  Uiso   1.00
O1090  O     0.66565   0.80718   0.59344   0.00000  Uiso   1.00
O1091  O     0.37341   0.87096   0.58643   0.00000  Uiso   1.00
H1092  H     0.38669   0.86838   0.62060   0.00000  Uiso   1.00
C1093  C     0.53924   0.70025   0.42202   0.00000  Uiso   1.00
O1094  O     0.56446   0.73376   0.42514   0.00000  Uiso   1.00
O1095  O     0.54524   0.67244   0.38658   0.00000  Uiso   1.00
H1096  H     0.57282   0.68299   0.36763   0.00000  Uiso   1.00
C1097  C     0.48220   0.96125   0.58569   0.00000  Uiso   1.00
O1098  O     0.43911   0.94441   0.58382   0.00000  Uiso   1.00
O1099  O     0.51482   0.96256   0.62743   0.00000  Uiso   1.00
H1100  H     0.49824   0.94807   0.65311   0.00000  Uiso   1.00
C1101  C     0.45218   0.96229   0.41550   0.00000  Uiso   1.00
O1102  O     0.42674   0.92899   0.41603   0.00000  Uiso   1.00
O1103  O     0.44462   0.98683   0.37627   0.00000  Uiso   1.00
H1104  H     0.41897   0.97296   0.35052   0.00000  Uiso   1.00
C1105  C     0.54094   0.71120   0.58660   0.00000  Uiso   1.00
O1106  O     0.58209   0.73091   0.58560   0.00000  Uiso   1.00
O1107  O     0.51850   0.71116   0.62729   0.00000  Uiso   1.00
H1108  H     0.53776   0.73131   0.65187   0.00000  Uiso   1.00
N1109  N     0.42458   0.78523   0.37300   0.00000  Uiso   1.00
O1110  O     0.43077   0.75051   0.39383   0.00000  Uiso   1.00
O1111  O     0.37880   0.79362   0.35827   0.00000  Uiso   1.00
N1112  N     0.57993   0.87597   0.62832   0.00000  Uiso   1.00
O1113  O     0.62393   0.86634   0.64711   0.00000  Uiso   1.00
O1114  O     0.57812   0.90712   0.60067   0.00000  Uiso   1.00
C1115  C     0.43612   0.76898   0.61278   0.00000  Uiso   1.00
O1116  O     0.41697   0.77051   0.57257   0.00000  Uiso   1.00
O1117  O     0.42734   0.73197   0.63603   0.00000  Uiso   1.00
H1118  H     0.40582   0.70959   0.61562   0.00000  Uiso   1.00
C1119  C     0.56628   0.89660   0.38714   0.00000  Uiso   1.00
O1120  O     0.58060   0.89666   0.42859   0.00000  Uiso   1.00
O1121  O     0.58336   0.93069   0.36245   0.00000  Uiso   1.00
H1122  H     0.60933   0.95062   0.38219   0.00000  Uiso   1.00
O1123  O     0.83333   0.77322   0.53958   0.00000  Uiso   1.00
O1124  O     0.83334   0.89345   0.46042   0.00000  Uiso   1.00
O1125  O     0.83333   0.77321   0.46039   0.00000  Uiso   1.00
O1126  O     0.83334   0.89346   0.53961   0.00000  Uiso   1.00
C1127  C     0.83854   0.75463   0.50036   0.00000  Uiso   1.00
C1128  C     0.82862   0.91224   0.49979   0.00000  Uiso   1.00
O1129  O     0.75828   0.83334   0.53046   0.00000  Uiso   1.00
O1130  O     0.90839   0.83333   0.46954   0.00000  Uiso   1.00
O1131  O     0.75828   0.83333   0.45127   0.00000  Uiso   1.00
O1132  O     0.90839   0.83334   0.54873   0.00000  Uiso   1.00
C1133  C     0.73516   0.83398   0.48827   0.00000  Uiso   1.00
C1134  C     0.93163   0.83331   0.51175   0.00000  Uiso   1.00
Cu1135 Cu    0.83333   0.83334   0.54689   0.00000  Uiso   1.00
Cu1136 Cu    0.83333   0.83333   0.45311   0.00000  Uiso   1.00
N1137  N     0.83335   0.83334   0.61736   0.00000  Uiso   1.00
N1138  N     0.83332   0.83332   0.38264   0.00000  Uiso   1.00
C1139  C     0.68055   0.83463   0.48162   0.00000  Uiso   1.00
C1140  C     0.98645   0.83400   0.51841   0.00000  Uiso   1.00
C1141  C     0.84092   0.68682   0.45890   0.00000  Uiso   1.00
C1142  C     0.83227   0.98003   0.54321   0.00000  Uiso   1.00
C1143  C     0.82003   0.97887   0.45802   0.00000  Uiso   1.00
C1144  C     0.84795   0.68922   0.54352   0.00000  Uiso   1.00
C1145  C     0.82371   0.95733   0.50027   0.00000  Uiso   1.00
C1146  C     0.84531   0.70994   0.50094   0.00000  Uiso   1.00
C1147  C     0.79921   0.80737   0.35412   0.00000  Uiso   1.00
C1148  C     0.86872   0.85809   0.64606   0.00000  Uiso   1.00
C1149  C     0.80049   0.80553   0.63825   0.00000  Uiso   1.00
C1150  C     0.86661   0.86079   0.36175   0.00000  Uiso   1.00
C1151  C     0.99159   0.83486   0.43186   0.00000  Uiso   1.00
O1152  O     0.66974   0.86426   0.40809   0.00000  Uiso   1.00
O1153  O     0.96130   0.80031   0.41146   0.00000  Uiso   1.00
H1154  H     0.94903   0.80399   0.37728   0.00000  Uiso   1.00
C1155  C     0.67604   0.83575   0.56813   0.00000  Uiso   1.00
O1156  O     0.99899   0.80718   0.59344   0.00000  Uiso   1.00
O1157  O     0.70674   0.87096   0.58643   0.00000  Uiso   1.00
H1158  H     0.72003   0.86838   0.62060   0.00000  Uiso   1.00
C1159  C     0.87257   0.70025   0.42202   0.00000  Uiso   1.00
O1160  O     0.89780   0.73376   0.42514   0.00000  Uiso   1.00
O1161  O     0.87858   0.67244   0.38658   0.00000  Uiso   1.00
H1162  H     0.90616   0.68299   0.36763   0.00000  Uiso   1.00
C1163  C     0.81553   0.96125   0.58569   0.00000  Uiso   1.00
O1164  O     0.77245   0.94441   0.58382   0.00000  Uiso   1.00
O1165  O     0.84815   0.96256   0.62743   0.00000  Uiso   1.00
H1166  H     0.83157   0.94807   0.65311   0.00000  Uiso   1.00
C1167  C     0.78551   0.96229   0.41550   0.00000  Uiso   1.00
O1168  O     0.76007   0.92899   0.41603   0.00000  Uiso   1.00
O1169  O     0.77796   0.98683   0.37627   0.00000  Uiso   1.00
H1170  H     0.75231   0.97296   0.35052   0.00000  Uiso   1.00
C1171  C     0.87428   0.71120   0.58660   0.00000  Uiso   1.00
O1172  O     0.91543   0.73091   0.58560   0.00000  Uiso   1.00
O1173  O     0.85183   0.71116   0.62729   0.00000  Uiso   1.00
H1174  H     0.87109   0.73131   0.65187   0.00000  Uiso   1.00
N1175  N     0.75791   0.78523   0.37300   0.00000  Uiso   1.00
O1176  O     0.76410   0.75051   0.39383   0.00000  Uiso   1.00
O1177  O     0.71213   0.79362   0.35827   0.00000  Uiso   1.00
N1178  N     0.91326   0.87597   0.62832   0.00000  Uiso   1.00
O1179  O     0.95726   0.86634   0.64711   0.00000  Uiso   1.00
O1180  O     0.91145   0.90712   0.60067   0.00000  Uiso   1.00
C1181  C     0.76946   0.76898   0.61278   0.00000  Uiso   1.00
O1182  O     0.75030   0.77051   0.57257   0.00000  Uiso   1.00
O1183  O     0.76067   0.73197   0.63603   0.00000  Uiso   1.00
H1184  H     0.73915   0.70959   0.61562   0.00000  Uiso   1.00
C1185  C     0.89962   0.89660   0.38714   0.00000  Uiso   1.00
O1186  O     0.91394   0.89666   0.42859   0.00000  Uiso   1.00
O1187  O     0.91670   0.93069   0.36245   0.00000  Uiso   1.00
H1188  H     0.94267   0.95062   0.38219   0.00000  Uiso   1.00
O1189  O     0.16666   0.10655   0.87291   0.00000  Uiso   1.00
O1190  O     0.16667   0.22678   0.79375   0.00000  Uiso   1.00
O1191  O     0.16666   0.10654   0.79372   0.00000  Uiso   1.00
O1192  O     0.16667   0.22679   0.87294   0.00000  Uiso   1.00
C1193  C     0.17188   0.08796   0.83369   0.00000  Uiso   1.00
C1194  C     0.16196   0.24557   0.83313   0.00000  Uiso   1.00
O1195  O     0.09161   0.16667   0.86379   0.00000  Uiso   1.00
O1196  O     0.24172   0.16666   0.80288   0.00000  Uiso   1.00
O1197  O     0.09161   0.16666   0.78460   0.00000  Uiso   1.00
O1198  O     0.24172   0.16667   0.88207   0.00000  Uiso   1.00
C1199  C     0.06849   0.16732   0.82160   0.00000  Uiso   1.00
C1200  C     0.26496   0.16664   0.84509   0.00000  Uiso   1.00
Cu1201 Cu    0.16667   0.16667   0.88022   0.00000  Uiso   1.00
Cu1202 Cu    0.16667   0.16666   0.78645   0.00000  Uiso   1.00
N1203  N     0.16668   0.16668   0.95069   0.00000  Uiso   1.00
N1204  N     0.16665   0.16666   0.71597   0.00000  Uiso   1.00
C1205  C     0.01388   0.16797   0.81495   0.00000  Uiso   1.00
C1206  C     0.31979   0.16734   0.85175   0.00000  Uiso   1.00
C1207  C     0.17425   0.02016   0.79224   0.00000  Uiso   1.00
C1208  C     0.16560   0.31336   0.87655   0.00000  Uiso   1.00
C1209  C     0.15336   0.31220   0.79135   0.00000  Uiso   1.00
C1210  C     0.18129   0.02255   0.87685   0.00000  Uiso   1.00
C1211  C     0.15704   0.29067   0.83361   0.00000  Uiso   1.00
C1212  C     0.17864   0.04328   0.83427   0.00000  Uiso   1.00
C1213  C     0.13254   0.14071   0.68746   0.00000  Uiso   1.00
C1214  C     0.20205   0.19142   0.97939   0.00000  Uiso   1.00
C1215  C     0.13383   0.13887   0.97158   0.00000  Uiso   1.00
C1216  C     0.19994   0.19412   0.69508   0.00000  Uiso   1.00
C1217  C     0.32492   0.16820   0.76519   0.00000  Uiso   1.00
O1218  O     0.00307   0.19759   0.74143   0.00000  Uiso   1.00
O1219  O     0.29464   0.13364   0.74479   0.00000  Uiso   1.00
H1220  H     0.28237   0.13733   0.71061   0.00000  Uiso   1.00
C1221  C     0.00937   0.16908   0.90146   0.00000  Uiso   1.00
O1222  O     0.33232   0.14052   0.92677   0.00000  Uiso   1.00
O1223  O     0.04007   0.20429   0.91976   0.00000  Uiso   1.00
H1224  H     0.05336   0.20171   0.95393   0.00000  Uiso   1.00
C1225  C     0.20591   0.03358   0.75536   0.00000  Uiso   1.00
O1226  O     0.23113   0.06710   0.75847   0.00000  Uiso   1.00
O1227  O     0.21191   0.00578   0.71992   0.00000  Uiso   1.00
H1228  H     0.23949   0.01633   0.70096   0.00000  Uiso   1.00
C1229  C     0.14886   0.29459   0.91903   0.00000  Uiso   1.00
O1230  O     0.10578   0.27774   0.91716   0.00000  Uiso   1.00
O1231  O     0.18148   0.29589   0.96076   0.00000  Uiso   1.00
H1232  H     0.16491   0.28141   0.98645   0.00000  Uiso   1.00
C1233  C     0.11885   0.29562   0.74884   0.00000  Uiso   1.00
O1234  O     0.09341   0.26232   0.74936   0.00000  Uiso   1.00
O1235  O     0.11129   0.32016   0.70961   0.00000  Uiso   1.00
H1236  H     0.08564   0.30629   0.68385   0.00000  Uiso   1.00
C1237  C     0.20761   0.04453   0.91994   0.00000  Uiso   1.00
O1238  O     0.24876   0.06424   0.91894   0.00000  Uiso   1.00
O1239  O     0.18516   0.04449   0.96062   0.00000  Uiso   1.00
H1240  H     0.20442   0.06464   0.98520   0.00000  Uiso   1.00
N1241  N     0.09125   0.11856   0.70634   0.00000  Uiso   1.00
O1242  O     0.09743   0.08384   0.72717   0.00000  Uiso   1.00
O1243  O     0.04547   0.12695   0.69160   0.00000  Uiso   1.00
N1244  N     0.24660   0.20930   0.96165   0.00000  Uiso   1.00
O1245  O     0.29060   0.19967   0.98044   0.00000  Uiso   1.00
O1246  O     0.24478   0.24046   0.93400   0.00000  Uiso   1.00
C1247  C     0.10279   0.10231   0.94611   0.00000  Uiso   1.00
O1248  O     0.08364   0.10384   0.90591   0.00000  Uiso   1.00
O1249  O     0.09400   0.06530   0.96936   0.00000  Uiso   1.00
H1250  H     0.07249   0.04292   0.94895   0.00000  Uiso   1.00
C1251  C     0.23295   0.22993   0.72047   0.00000  Uiso   1.00
O1252  O     0.24727   0.22999   0.76192   0.00000  Uiso   1.00
O1253  O     0.25003   0.26403   0.69578   0.00000  Uiso   1.00
H1254  H     0.27600   0.28395   0.71552   0.00000  Uiso   1.00
O1255  O     0.50000   0.10655   0.87291   0.00000  Uiso   1.00
O1256  O     0.50000   0.22678   0.79375   0.00000  Uiso   1.00
O1257  O     0.50000   0.10654   0.79372   0.00000  Uiso   1.00
O1258  O     0.50000   0.22679   0.87294   0.00000  Uiso   1.00
C1259  C     0.50521   0.08796   0.83369   0.00000  Uiso   1.00
C1260  C     0.49529   0.24557   0.83313   0.00000  Uiso   1.00
O1261  O     0.42495   0.16667   0.86379   0.00000  Uiso   1.00
O1262  O     0.57505   0.16666   0.80288   0.00000  Uiso   1.00
O1263  O     0.42494   0.16666   0.78460   0.00000  Uiso   1.00
O1264  O     0.57506   0.16667   0.88207   0.00000  Uiso   1.00
C1265  C     0.40182   0.16732   0.82160   0.00000  Uiso   1.00
C1266  C     0.59829   0.16664   0.84509   0.00000  Uiso   1.00
Cu1267 Cu    0.50000   0.16667   0.88022   0.00000  Uiso   1.00
Cu1268 Cu    0.50000   0.16666   0.78645   0.00000  Uiso   1.00
N1269  N     0.50001   0.16668   0.95069   0.00000  Uiso   1.00
N1270  N     0.49999   0.16666   0.71597   0.00000  Uiso   1.00
C1271  C     0.34721   0.16797   0.81495   0.00000  Uiso   1.00
C1272  C     0.65312   0.16734   0.85175   0.00000  Uiso   1.00
C1273  C     0.50758   0.02016   0.79224   0.00000  Uiso   1.00
C1274  C     0.49893   0.31336   0.87655   0.00000  Uiso   1.00
C1275  C     0.48670   0.31220   0.79135   0.00000  Uiso   1.00
C1276  C     0.51462   0.02255   0.87685   0.00000  Uiso   1.00
C1277  C     0.49038   0.29067   0.83361   0.00000  Uiso   1.00
C1278  C     0.51198   0.04328   0.83427   0.00000  Uiso   1.00
C1279  C     0.46587   0.14071   0.68746   0.00000  Uiso   1.00
C1280  C     0.53539   0.19142   0.97939   0.00000  Uiso   1.00
C1281  C     0.46716   0.13887   0.97158   0.00000  Uiso   1.00
C1282  C     0.53328   0.19412   0.69508   0.00000  Uiso   1.00
C1283  C     0.65826   0.16820   0.76519   0.00000  Uiso   1.00
O1284  O     0.33640   0.19759   0.74143   0.00000  Uiso   1.00
O1285  O     0.62797   0.13364   0.74479   0.00000  Uiso   1.00
H1286  H     0.61570   0.13733   0.71061   0.00000  Uiso   1.00
C1287  C     0.34271   0.16908   0.90146   0.00000  Uiso   1.00
O1288  O     0.66565   0.14052   0.92677   0.00000  Uiso   1.00
O1289  O     0.37341   0.20429   0.91976   0.00000  Uiso   1.00
H1290  H     0.38669   0.20171   0.95393   0.00000  Uiso   1.00
C1291  C     0.53924   0.03358   0.75536   0.00000  Uiso   1.00
O1292  O     0.56446   0.06710   0.75847   0.00000  Uiso   1.00
O1293  O     0.54524   0.00578   0.71992   0.00000  Uiso   1.00
H1294  H     0.57282   0.01633   0.70096   0.00000  Uiso   1.00
C1295  C     0.48220   0.29459   0.91903   0.00000  Uiso   1.00
O1296  O     0.43911   0.27774   0.91716   0.00000  Uiso   1.00
O1297  O     0.51482   0.29589   0.96076   0.00000  Uiso   1.00
H1298  H     0.49824   0.28141   0.98645   0.00000  Uiso   1.00
C1299  C     0.45218   0.29562   0.74884   0.00000  Uiso   1.00
O1300  O     0.42674   0.26232   0.74936   0.00000  Uiso   1.00
O1301  O     0.44462   0.32016   0.70961   0.00000  Uiso   1.00
H1302  H     0.41897   0.30629   0.68385   0.00000  Uiso   1.00
C1303  C     0.54094   0.04453   0.91994   0.00000  Uiso   1.00
O1304  O     0.58209   0.06424   0.91894   0.00000  Uiso   1.00
O1305  O     0.51850   0.04449   0.96062   0.00000  Uiso   1.00
H1306  H     0.53776   0.06464   0.98520   0.00000  Uiso   1.00
N1307  N     0.42458   0.11856   0.70634   0.00000  Uiso   1.00
O1308  O     0.43077   0.08384   0.72717   0.00000  Uiso   1.00
O1309  O     0.37880   0.12695   0.69160   0.00000  Uiso   1.00
N1310  N     0.57993   0.20930   0.96165   0.00000  Uiso   1.00
O1311  O     0.62393   0.19967   0.98044   0.00000  Uiso   1.00
O1312  O     0.57812   0.24046   0.93400   0.00000  Uiso   1.00
C1313  C     0.43612   0.10231   0.94611   0.00000  Uiso   1.00
O1314  O     0.41697   0.10384   0.90591   0.00000  Uiso   1.00
O1315  O     0.42734   0.06530   0.96936   0.00000  Uiso   1.00
H1316  H     0.40582   0.04292   0.94895   0.00000  Uiso   1.00
C1317  C     0.56628   0.22993   0.72047   0.00000  Uiso   1.00
O1318  O     0.58060   0.22999   0.76192   0.00000  Uiso   1.00
O1319  O     0.58336   0.26403   0.69578   0.00000  Uiso   1.00
H1320  H     0.60933   0.28395   0.71552   0.00000  Uiso   1.00
O1321  O     0.83333   0.10655   0.87291   0.00000  Uiso   1.00
O1322  O     0.83334   0.22678   0.79375   0.00000  Uiso   1.00
O1323  O     0.83333   0.10654   0.79372   0.00000  Uiso   1.00
O1324  O     0.83334   0.22679   0.87294   0.00000  Uiso   1.00
C1325  C     0.83854   0.08796   0.83369   0.00000  Uiso   1.00
C1326  C     0.82862   0.24557   0.83313   0.00000  Uiso   1.00
O1327  O     0.75828   0.16667   0.86379   0.00000  Uiso   1.00
O1328  O     0.90839   0.16666   0.80288   0.00000  Uiso   1.00
O1329  O     0.75828   0.16666   0.78460   0.00000  Uiso   1.00
O1330  O     0.90839   0.16667   0.88207   0.00000  Uiso   1.00
C1331  C     0.73516   0.16732   0.82160   0.00000  Uiso   1.00
C1332  C     0.93163   0.16664   0.84509   0.00000  Uiso   1.00
Cu1333 Cu    0.83333   0.16667   0.88022   0.00000  Uiso   1.00
Cu1334 Cu    0.83333   0.16666   0.78645   0.00000  Uiso   1.00
N1335  N     0.83335   0.16668   0.95069   0.00000  Uiso   1.00
N1336  N     0.83332   0.16666   0.71597   0.00000  Uiso   1.00
C1337  C     0.68055   0.16797   0.81495   0.00000  Uiso   1.00
C1338  C     0.98645   0.16734   0.85175   0.00000  Uiso   1.00
C1339  C     0.84092   0.02016   0.79224   0.00000  Uiso   1.00
C1340  C     0.83227   0.31336   0.87655   0.00000  Uiso   1.00
C1341  C     0.82003   0.31220   0.79135   0.00000  Uiso   1.00
C1342  C     0.84795   0.02255   0.87685   0.00000  Uiso   1.00
C1343  C     0.82371   0.29067   0.83361   0.00000  Uiso   1.00
C1344  C     0.84531   0.04328   0.83427   0.00000  Uiso   1.00
C1345  C     0.79921   0.14071   0.68746   0.00000  Uiso   1.00
C1346  C     0.86872   0.19142   0.97939   0.00000  Uiso   1.00
C1347  C     0.80049   0.13887   0.97158   0.00000  Uiso   1.00
C1348  C     0.86661   0.19412   0.69508   0.00000  Uiso   1.00
C1349  C     0.99159   0.16820   0.76519   0.00000  Uiso   1.00
O1350  O     0.66974   0.19759   0.74143   0.00000  Uiso   1.00
O1351  O     0.96130   0.13364   0.74479   0.00000  Uiso   1.00
H1352  H     0.94903   0.13733   0.71061   0.00000  Uiso   1.00
C1353  C     0.67604   0.16908   0.90146   0.00000  Uiso   1.00
O1354  O     0.99899   0.14052   0.92677   0.00000  Uiso   1.00
O1355  O     0.70674   0.20429   0.91976   0.00000  Uiso   1.00
H1356  H     0.72003   0.20171   0.95393   0.00000  Uiso   1.00
C1357  C     0.87257   0.03358   0.75536   0.00000  Uiso   1.00
O1358  O     0.89780   0.06710   0.75847   0.00000  Uiso   1.00
O1359  O     0.87858   0.00578   0.71992   0.00000  Uiso   1.00
H1360  H     0.90616   0.01633   0.70096   0.00000  Uiso   1.00
C1361  C     0.81553   0.29459   0.91903   0.00000  Uiso   1.00
O1362  O     0.77245   0.27774   0.91716   0.00000  Uiso   1.00
O1363  O     0.84815   0.29589   0.96076   0.00000  Uiso   1.00
H1364  H     0.83157   0.28141   0.98645   0.00000  Uiso   1.00
C1365  C     0.78551   0.29562   0.74884   0.00000  Uiso   1.00
O1366  O     0.76007   0.26232   0.74936   0.00000  Uiso   1.00
O1367  O     0.77796   0.32016   0.70961   0.00000  Uiso   1.00
H1368  H     0.75231   0.30629   0.68385   0.00000  Uiso   1.00
C1369  C     0.87428   0.04453   0.91994   0.00000  Uiso   1.00
O1370  O     0.91543   0.06424   0.91894   0.00000  Uiso   1.00
O1371  O     0.85183   0.04449   0.96062   0.00000  Uiso   1.00
H1372  H     0.87109   0.06464   0.98520   0.00000  Uiso   1.00
N1373  N     0.75791   0.11856   0.70634   0.00000  Uiso   1.00
O1374  O     0.76410   0.08384   0.72717   0.00000  Uiso   1.00
O1375  O     0.71213   0.12695   0.69160   0.00000  Uiso   1.00
N1376  N     0.91326   0.20930   0.96165   0.00000  Uiso   1.00
O1377  O     0.95726   0.19967   0.98044   0.00000  Uiso   1.00
O1378  O     0.91145   0.24046   0.93400   0.00000  Uiso   1.00
C1379  C     0.76946   0.10231   0.94611   0.00000  Uiso   1.00
O1380  O     0.75030   0.10384   0.90591   0.00000  Uiso   1.00
O1381  O     0.76067   0.06530   0.96936   0.00000  Uiso   1.00
H1382  H     0.73915   0.04292   0.94895   0.00000  Uiso   1.00
C1383  C     0.89962   0.22993   0.72047   0.00000  Uiso   1.00
O1384  O     0.91394   0.22999   0.76192   0.00000  Uiso   1.00
O1385  O     0.91670   0.26403   0.69578   0.00000  Uiso   1.00
H1386  H     0.94267   0.28395   0.71552   0.00000  Uiso   1.00
O1387  O     0.16666   0.43989   0.87291   0.00000  Uiso   1.00
O1388  O     0.16667   0.56011   0.79375   0.00000  Uiso   1.00
O1389  O     0.16666   0.43988   0.79372   0.00000  Uiso   1.00
O1390  O     0.16667   0.56012   0.87294   0.00000  Uiso   1.00
C1391  C     0.17188   0.42129   0.83369   0.00000  Uiso   1.00
C1392  C     0.16196   0.57890   0.83313   0.00000  Uiso   1.00
O1393  O     0.09161   0.50000   0.86379   0.00000  Uiso   1.00
O1394  O     0.24172   0.50000   0.80288   0.00000  Uiso   1.00
O1395  O     0.09161   0.49999   0.78460   0.00000  Uiso   1.00
O1396  O     0.24172   0.50001   0.88207   0.00000  Uiso   1.00
C1397  C     0.06849   0.50065   0.82160   0.00000  Uiso   1.00
C1398  C     0.26496   0.49997   0.84509   0.00000  Uiso   1.00
Cu1399 Cu    0.16667   0.50001   0.88022   0.00000  Uiso   1.00
Cu1400 Cu    0.16667   0.49999   0.78645   0.00000  Uiso   1.00
N1401  N     0.16668   0.50001   0.95069   0.00000  Uiso   1.00
N1402  N     0.16665   0.49999   0.71597   0.00000  Uiso   1.00
C1403  C     0.01388   0.50130   0.81495   0.00000  Uiso   1.00
C1404  C     0.31979   0.50067   0.85175   0.00000  Uiso   1.00
C1405  C     0.17425   0.35349   0.79224   0.00000  Uiso   1.00
C1406  C     0.16560   0.64669   0.87655   0.00000  Uiso   1.00
C1407  C     0.15336   0.64553   0.79135   0.00000  Uiso   1.00
C1408  C     0.18129   0.35589   0.87685   0.00000  Uiso   1.00
C1409  C     0.15704   0.62400   0.83361   0.00000  Uiso   1.00
C1410  C     0.17864   0.37661   0.83427   0.00000  Uiso   1.00
C1411  C     0.13254   0.47404   0.68746   0.00000  Uiso   1.00
C1412  C     0.20205   0.52475   0.97939   0.00000  Uiso   1.00
C1413  C     0.13383   0.47220   0.97158   0.00000  Uiso   1.00
C1414  C     0.19994   0.52746   0.69508   0.00000  Uiso   1.00
C1415  C     0.32492   0.50153   0.76519   0.00000  Uiso   1.00
O1416  O     0.00307   0.53093   0.74143   0.00000  Uiso   1.00
O1417  O     0.29464   0.46698   0.74479   0.00000  Uiso   1.00
H1418  H     0.28237   0.47066   0.71061   0.00000  Uiso   1.00
C1419  C     0.00937   0.50242   0.90146   0.00000  Uiso   1.00
O1420  O     0.33232   0.47385   0.92677   0.00000  Uiso   1.00
O1421  O     0.04007   0.53763   0.91976   0.00000  Uiso   1.00
H1422  H     0.05336   0.53505   0.95393   0.00000  Uiso   1.00
C1423  C     0.20591   0.36691   0.75536   0.00000  Uiso   1.00
O1424  O     0.23113   0.40043   0.75847   0.00000  Uiso   1.00
O1425  O     0.21191   0.33911   0.71992   0.00000  Uiso   1.00
H1426  H     0.23949   0.34966   0.70096   0.00000  Uiso   1.00
C1427  C     0.14886   0.62792   0.91903   0.00000  Uiso   1.00
O1428  O     0.10578   0.61108   0.91716   0.00000  Uiso   1.00
O1429  O     0.18148   0.62922   0.96076   0.00000  Uiso   1.00
H1430  H     0.16491   0.61474   0.98645   0.00000  Uiso   1.00
C1431  C     0.11885   0.62895   0.74884   0.00000  Uiso   1.00
O1432  O     0.09341   0.59565   0.74936   0.00000  Uiso   1.00
O1433  O     0.11129   0.65350   0.70961   0.00000  Uiso   1.00
H1434  H     0.08564   0.63962   0.68385   0.00000  Uiso   1.00
C1435  C     0.20761   0.37786   0.91994   0.00000  Uiso   1.00
O1436  O     0.24876   0.39757   0.91894   0.00000  Uiso   1.00
O1437  O     0.18516   0.37782   0.96062   0.00000  Uiso   1.00
H1438  H     0.20442   0.39797   0.98520   0.00000  Uiso   1.00
N1439  N     0.09125   0.45190   0.70634   0.00000  Uiso   1.00
O1440  O     0.09743   0.41718   0.72717   0.00000  Uiso   1.00
O1441  O     0.04547   0.46029   0.69160   0.00000  Uiso   1.00
N1442  N     0.24660   0.54263   0.96165   0.00000  Uiso   1.00
O1443  O     0.29060   0.53300   0.98044   0.00000  Uiso   1.00
O1444  O     0.24478   0.57379   0.93400   0.00000  Uiso   1.00
C1445  C     0.10279   0.43565   0.94611   0.00000  Uiso   1.00
O1446  O     0.08364   0.43718   0.90591   0.00000  Uiso   1.00
O1447  O     0.09400   0.39863   0.96936   0.00000  Uiso   1.00
H1448  H     0.07249   0.37625   0.94895   0.00000  Uiso   1.00
C1449  C     0.23295   0.56326   0.72047   0.00000  Uiso   1.00
O1450  O     0.24727   0.56333   0.76192   0.00000  Uiso   1.00
O1451  O     0.25003   0.59736   0.69578   0.00000  Uiso   1.00
H1452  H     0.27600   0.61728   0.71552   0.00000  Uiso   1.00
O1453  O     0.50000   0.43989   0.87291   0.00000  Uiso   1.00
O1454  O     0.50000   0.56011   0.79375   0.00000  Uiso   1.00
O1455  O     0.50000   0.43988   0.79372   0.00000  Uiso   1.00
O1456  O     0.50000   0.56012   0.87294   0.00000  Uiso   1.00
C1457  C     0.50521   0.42129   0.83369   0.00000  Uiso   1.00
C1458  C     0.49529   0.57890   0.83313   0.00000  Uiso   1.00
O1459  O     0.42495   0.50000   0.86379   0.00000  Uiso   1.00
O1460  O     0.57505   0.50000   0.80288   0.00000  Uiso   1.00
O1461  O     0.42494   0.49999   0.78460   0.00000  Uiso   1.00
O1462  O     0.57506   0.50001   0.88207   0.00000  Uiso   1.00
C1463  C     0.40182   0.50065   0.82160   0.00000  Uiso   1.00
C1464  C     0.59829   0.49997   0.84509   0.00000  Uiso   1.00
Cu1465 Cu    0.50000   0.50001   0.88022   0.00000  Uiso   1.00
Cu1466 Cu    0.50000   0.49999   0.78645   0.00000  Uiso   1.00
N1467  N     0.50001   0.50001   0.95069   0.00000  Uiso   1.00
N1468  N     0.49999   0.49999   0.71597   0.00000  Uiso   1.00
C1469  C     0.34721   0.50130   0.81495   0.00000  Uiso   1.00
C1470  C     0.65312   0.50067   0.85175   0.00000  Uiso   1.00
C1471  C     0.50758   0.35349   0.79224   0.00000  Uiso   1.00
C1472  C     0.49893   0.64669   0.87655   0.00000  Uiso   1.00
C1473  C     0.48670   0.64553   0.79135   0.00000  Uiso   1.00
C1474  C     0.51462   0.35589   0.87685   0.00000  Uiso   1.00
C1475  C     0.49038   0.62400   0.83361   0.00000  Uiso   1.00
C1476  C     0.51198   0.37661   0.83427   0.00000  Uiso   1.00
C1477  C     0.46587   0.47404   0.68746   0.00000  Uiso   1.00
C1478  C     0.53539   0.52475   0.97939   0.00000  Uiso   1.00
C1479  C     0.46716   0.47220   0.97158   0.00000  Uiso   1.00
C1480  C     0.53328   0.52746   0.69508   0.00000  Uiso   1.00
C1481  C     0.65826   0.50153   0.76519   0.00000  Uiso   1.00
O1482  O     0.33640   0.53093   0.74143   0.00000  Uiso   1.00
O1483  O     0.62797   0.46698   0.74479   0.00000  Uiso   1.00
H1484  H     0.61570   0.47066   0.71061   0.00000  Uiso   1.00
C1485  C     0.34271   0.50242   0.90146   0.00000  Uiso   1.00
O1486  O     0.66565   0.47385   0.92677   0.00000  Uiso   1.00
O1487  O     0.37341   0.53763   0.91976   0.00000  Uiso   1.00
H1488  H     0.38669   0.53505   0.95393   0.00000  Uiso   1.00
C1489  C     0.53924   0.36691   0.75536   0.00000  Uiso   1.00
O1490  O     0.56446   0.40043   0.75847   0.00000  Uiso   1.00
O1491  O     0.54524   0.33911   0.71992   0.00000  Uiso   1.00
H1492  H     0.57282   0.34966   0.70096   0.00000  Uiso   1.00
C1493  C     0.48220   0.62792   0.91903   0.00000  Uiso   1.00
O1494  O     0.43911   0.61108   0.91716   0.00000  Uiso   1.00
O1495  O     0.51482   0.62922   0.96076   0.00000  Uiso   1.00
H1496  H     0.49824   0.61474   0.98645   0.00000  Uiso   1.00
C1497  C     0.45218   0.62895   0.74884   0.00000  Uiso   1.00
O1498  O     0.42674   0.59565   0.74936   0.00000  Uiso   1.00
O1499  O     0.44462   0.65350   0.70961   0.00000  Uiso   1.00
H1500  H     0.41897   0.63962   0.68385   0.00000  Uiso   1.00
C1501  C     0.54094   0.37786   0.91994   0.00000  Uiso   1.00
O1502  O     0.58209   0.39757   0.91894   0.00000  Uiso   1.00
O1503  O     0.51850   0.37782   0.96062   0.00000  Uiso   1.00
H1504  H     0.53776   0.39797   0.98520   0.00000  Uiso   1.00
N1505  N     0.42458   0.45190   0.70634   0.00000  Uiso   1.00
O1506  O     0.43077   0.41718   0.72717   0.00000  Uiso   1.00
O1507  O     0.37880   0.46029   0.69160   0.00000  Uiso   1.00
N1508  N     0.57993   0.54263   0.96165   0.00000  Uiso   1.00
O1509  O     0.62393   0.53300   0.98044   0.00000  Uiso   1.00
O1510  O     0.57812   0.57379   0.93400   0.00000  Uiso   1.00
C1511  C     0.43612   0.43565   0.94611   0.00000  Uiso   1.00
O1512  O     0.41697   0.43718   0.90591   0.00000  Uiso   1.00
O1513  O     0.42734   0.39863   0.96936   0.00000  Uiso   1.00
H1514  H     0.40582   0.37625   0.94895   0.00000  Uiso   1.00
C1515  C     0.56628   0.56326   0.72047   0.00000  Uiso   1.00
O1516  O     0.58060   0.56333   0.76192   0.00000  Uiso   1.00
O1517  O     0.58336   0.59736   0.69578   0.00000  Uiso   1.00
H1518  H     0.60933   0.61728   0.71552   0.00000  Uiso   1.00
O1519  O     0.83333   0.43989   0.87291   0.00000  Uiso   1.00
O1520  O     0.83334   0.56011   0.79375   0.00000  Uiso   1.00
O1521  O     0.83333   0.43988   0.79372   0.00000  Uiso   1.00
O1522  O     0.83334   0.56012   0.87294   0.00000  Uiso   1.00
C1523  C     0.83854   0.42129   0.83369   0.00000  Uiso   1.00
C1524  C     0.82862   0.57890   0.83313   0.00000  Uiso   1.00
O1525  O     0.75828   0.50000   0.86379   0.00000  Uiso   1.00
O1526  O     0.90839   0.50000   0.80288   0.00000  Uiso   1.00
O1527  O     0.75828   0.49999   0.78460   0.00000  Uiso   1.00
O1528  O     0.90839   0.50001   0.88207   0.00000  Uiso   1.00
C1529  C     0.73516   0.50065   0.82160   0.00000  Uiso   1.00
C1530  C     0.93163   0.49997   0.84509   0.00000  Uiso   1.00
Cu1531 Cu    0.83333   0.50001   0.88022   0.00000  Uiso   1.00
Cu1532 Cu    0.83333   0.49999   0.78645   0.00000  Uiso   1.00
N1533  N     0.83335   0.50001   0.95069   0.00000  Uiso   1.00
N1534  N     0.83332   0.49999   0.71597   0.00000  Uiso   1.00
C1535  C     0.68055   0.50130   0.81495   0.00000  Uiso   1.00
C1536  C     0.98645   0.50067   0.85175   0.00000  Uiso   1.00
C1537  C     0.84092   0.35349   0.79224   0.00000  Uiso   1.00
C1538  C     0.83227   0.64669   0.87655   0.00000  Uiso   1.00
C1539  C     0.82003   0.64553   0.79135   0.00000  Uiso   1.00
C1540  C     0.84795   0.35589   0.87685   0.00000  Uiso   1.00
C1541  C     0.82371   0.62400   0.83361   0.00000  Uiso   1.00
C1542  C     0.84531   0.37661   0.83427   0.00000  Uiso   1.00
C1543  C     0.79921   0.47404   0.68746   0.00000  Uiso   1.00
C1544  C     0.86872   0.52475   0.97939   0.00000  Uiso   1.00
C1545  C     0.80049   0.47220   0.97158   0.00000  Uiso   1.00
C1546  C     0.86661   0.52746   0.69508   0.00000  Uiso   1.00
C1547  C     0.99159   0.50153   0.76519   0.00000  Uiso   1.00
O1548  O     0.66974   0.53093   0.74143   0.00000  Uiso   1.00
O1549  O     0.96130   0.46698   0.74479   0.00000  Uiso   1.00
H1550  H     0.94903   0.47066   0.71061   0.00000  Uiso   1.00
C1551  C     0.67604   0.50242   0.90146   0.00000  Uiso   1.00
O1552  O     0.99899   0.47385   0.92677   0.00000  Uiso   1.00
O1553  O     0.70674   0.53763   0.91976   0.00000  Uiso   1.00
H1554  H     0.72003   0.53505   0.95393   0.00000  Uiso   1.00
C1555  C     0.87257   0.36691   0.75536   0.00000  Uiso   1.00
O1556  O     0.89780   0.40043   0.75847   0.00000  Uiso   1.00
O1557  O     0.87858   0.33911   0.71992   0.00000  Uiso   1.00
H1558  H     0.90616   0.34966   0.70096   0.00000  Uiso   1.00
C1559  C     0.81553   0.62792   0.91903   0.00000  Uiso   1.00
O1560  O     0.77245   0.61108   0.91716   0.00000  Uiso   1.00
O1561  O     0.84815   0.62922   0.96076   0.00000  Uiso   1.00
H1562  H     0.83157   0.61474   0.98645   0.00000  Uiso   1.00
C1563  C     0.78551   0.62895   0.74884   0.00000  Uiso   1.00
O1564  O     0.76007   0.59565   0.74936   0.00000  Uiso   1.00
O1565  O     0.77796   0.65350   0.70961   0.00000  Uiso   1.00
H1566  H     0.75231   0.63962   0.68385   0.00000  Uiso   1.00
C1567  C     0.87428   0.37786   0.91994   0.00000  Uiso   1.00
O1568  O     0.91543   0.39757   0.91894   0.00000  Uiso   1.00
O1569  O     0.85183   0.37782   0.96062   0.00000  Uiso   1.00
H1570  H     0.87109   0.39797   0.98520   0.00000  Uiso   1.00
N1571  N     0.75791   0.45190   0.70634   0.00000  Uiso   1.00
O1572  O     0.76410   0.41718   0.72717   0.00000  Uiso   1.00
O1573  O     0.71213   0.46029   0.69160   0.00000  Uiso   1.00
N1574  N     0.91326   0.54263   0.96165   0.00000  Uiso   1.00
O1575  O     0.95726   0.53300   0.98044   0.00000  Uiso   1.00
O1576  O     0.91145   0.57379   0.93400   0.00000  Uiso   1.00
C1577  C     0.76946   0.43565   0.94611   0.00000  Uiso   1.00
O1578  O     0.75030   0.43718   0.90591   0.00000  Uiso   1.00
O1579  O     0.76067   0.39863   0.96936   0.00000  Uiso   1.00
H1580  H     0.73915   0.37625   0.94895   0.00000  Uiso   1.00
C1581  C     0.89962   0.56326   0.72047   0.00000  Uiso   1.00
O1582  O     0.91394   0.56333   0.76192   0.00000  Uiso   1.00
O1583  O     0.91670   0.59736   0.69578   0.00000  Uiso   1.00
H1584  H     0.94267   0.61728   0.71552   0.00000  Uiso   1.00
O1585  O     0.16666   0.77322   0.87291   0.00000  Uiso   1.00
O1586  O     0.16667   0.89345   0.79375   0.00000  Uiso   1.00
O1587  O     0.16666   0.77321   0.79372   0.00000  Uiso   1.00
O1588  O     0.16667   0.89346   0.87294   0.00000  Uiso   1.00
C1589  C     0.17188   0.75463   0.83369   0.00000  Uiso   1.00
C1590  C     0.16196   0.91224   0.83313   0.00000  Uiso   1.00
O1591  O     0.09161   0.83334   0.86379   0.00000  Uiso   1.00
O1592  O     0.24172   0.83333   0.80288   0.00000  Uiso   1.00
O1593  O     0.09161   0.83333   0.78460   0.00000  Uiso   1.00
O1594  O     0.24172   0.83334   0.88207   0.00000  Uiso   1.00
C1595  C     0.06849   0.83398   0.82160   0.00000  Uiso   1.00
C1596  C     0.26496   0.83331   0.84509   0.00000  Uiso   1.00
Cu1597 Cu    0.16667   0.83334   0.88022   0.00000  Uiso   1.00
Cu1598 Cu    0.16667   0.83333   0.78645   0.00000  Uiso   1.00
N1599  N     0.16668   0.83334   0.95069   0.00000  Uiso   1.00
N1600  N     0.16665   0.83332   0.71597   0.00000  Uiso   1.00
C1601  C     0.01388   0.83463   0.81495   0.00000  Uiso   1.00
C1602  C     0.31979   0.83400   0.85175   0.00000  Uiso   1.00
C1603  C     0.17425   0.68682   0.79224   0.00000  Uiso   1.00
C1604  C     0.16560   0.98003   0.87655   0.00000  Uiso   1.00
C1605  C     0.15336   0.97887   0.79135   0.00000  Uiso   1.00
C1606  C     0.18129   0.68922   0.87685   0.00000  Uiso   1.00
C1607  C     0.15704   0.95733   0.83361   0.00000  Uiso   1.00
C1608  C     0.17864   0.70994   0.83427   0.00000  Uiso   1.00
C1609  C     0.13254   0.80737   0.68746   0.00000  Uiso   1.00
C1610  C     0.20205   0.85809   0.97939   0.00000  Uiso   1.00
C1611  C     0.13383   0.80553   0.97158   0.00000  Uiso   1.00
C1612  C     0.19994   0.86079   0.69508   0.00000  Uiso   1.00
C1613  C     0.32492   0.83486   0.76519   0.00000  Uiso   1.00
O1614  O     0.00307   0.86426   0.74143   0.00000  Uiso   1.00
O1615  O     0.29464   0.80031   0.74479   0.00000  Uiso   1.00
H1616  H     0.28237   0.80399   0.71061   0.00000  Uiso   1.00
C1617  C     0.00937   0.83575   0.90146   0.00000  Uiso   1.00
O1618  O     0.33232   0.80718   0.92677   0.00000  Uiso   1.00
O1619  O     0.04007   0.87096   0.91976   0.00000  Uiso   1.00
H1620  H     0.05336   0.86838   0.95393   0.00000  Uiso   1.00
C1621  C     0.20591   0.70025   0.75536   0.00000  Uiso   1.00
O1622  O     0.23113   0.73376   0.75847   0.00000  Uiso   1.00
O1623  O     0.21191   0.67244   0.71992   0.00000  Uiso   1.00
H1624  H     0.23949   0.68299   0.70096   0.00000  Uiso   1.00
C1625  C     0.14886   0.96125   0.91903   0.00000  Uiso   1.00
O1626  O     0.10578   0.94441   0.91716   0.00000  Uiso   1.00
O1627  O     0.18148   0.96256   0.96076   0.00000  Uiso   1.00
H1628  H     0.16491   0.94807   0.98645   0.00000  Uiso   1.00
C1629  C     0.11885   0.96229   0.74884   0.00000  Uiso   1.00
O1630  O     0.09341   0.92899   0.74936   0.00000  Uiso   1.00
O1631  O     0.11129   0.98683   0.70961   0.00000  Uiso   1.00
H1632  H     0.08564   0.97296   0.68385   0.00000  Uiso   1.00
C1633  C     0.20761   0.71120   0.91994   0.00000  Uiso   1.00
O1634  O     0.24876   0.73091   0.91894   0.00000  Uiso   1.00
O1635  O     0.18516   0.71116   0.96062   0.00000  Uiso   1.00
H1636  H     0.20442   0.73131   0.98520   0.00000  Uiso   1.00
N1637  N     0.09125   0.78523   0.70634   0.00000  Uiso   1.00
O1638  O     0.09743   0.75051   0.72717   0.00000  Uiso   1.00
O1639  O     0.04547   0.79362   0.69160   0.00000  Uiso   1.00
N1640  N     0.24660   0.87597   0.96165   0.00000  Uiso   1.00
O1641  O     0.29060   0.86634   0.98044   0.00000  Uiso   1.00
O1642  O     0.24478   0.90712   0.93400   0.00000  Uiso   1.00
C1643  C     0.10279   0.76898   0.94611   0.00000  Uiso   1.00
O1644  O     0.08364   0.77051   0.90591   0.00000  Uiso   1.00
O1645  O     0.09400   0.73197   0.96936   0.00000  Uiso   1.00
H1646  H     0.07249   0.70959   0.94895   0.00000  Uiso   1.00
C1647  C     0.23295   0.89660   0.72047   0.00000  Uiso   1.00
O1648  O     0.24727   0.89666   0.76192   0.00000  Uiso   1.00
O1649  O     0.25003   0.93069   0.69578   0.00000  Uiso   1.00
H1650  H     0.27600   0.95062   0.71552   0.00000  Uiso   1.00
O1651  O     0.50000   0.77322   0.87291   0.00000  Uiso   1.00
O1652  O     0.50000   0.89345   0.79375   0.00000  Uiso   1.00
O1653  O     0.50000   0.77321   0.79372   0.00000  Uiso   1.00
O1654  O     0.50000   0.89346   0.87294   0.00000  Uiso   1.00
C1655  C     0.50521   0.75463   0.83369   0.00000  Uiso   1.00
C1656  C     0.49529   0.91224   0.83313   0.00000  Uiso   1.00
O1657  O     0.42495   0.83334   0.86379   0.00000  Uiso   1.00
O1658  O     0.57505   0.83333   0.80288   0.00000  Uiso   1.00
O1659  O     0.42494   0.83333   0.78460   0.00000  Uiso   1.00
O1660  O     0.57506   0.83334   0.88207   0.00000  Uiso   1.00
C1661  C     0.40182   0.83398   0.82160   0.00000  Uiso   1.00
C1662  C     0.59829   0.83331   0.84509   0.00000  Uiso   1.00
Cu1663 Cu    0.50000   0.83334   0.88022   0.00000  Uiso   1.00
Cu1664 Cu    0.50000   0.83333   0.78645   0.00000  Uiso   1.00
N1665  N     0.50001   0.83334   0.95069   0.00000  Uiso   1.00
N1666  N     0.49999   0.83332   0.71597   0.00000  Uiso   1.00
C1667  C     0.34721   0.83463   0.81495   0.00000  Uiso   1.00
C1668  C     0.65312   0.83400   0.85175   0.00000  Uiso   1.00
C1669  C     0.50758   0.68682   0.79224   0.00000  Uiso   1.00
C1670  C     0.49893   0.98003   0.87655   0.00000  Uiso   1.00
C1671  C     0.48670   0.97887   0.79135   0.00000  Uiso   1.00
C1672  C     0.51462   0.68922   0.87685   0.00000  Uiso   1.00
C1673  C     0.49038   0.95733   0.83361   0.00000  Uiso   1.00
C1674  C     0.51198   0.70994   0.83427   0.00000  Uiso   1.00
C1675  C     0.46587   0.80737   0.68746   0.00000  Uiso   1.00
C1676  C     0.53539   0.85809   0.97939   0.00000  Uiso   1.00
C1677  C     0.46716   0.80553   0.97158   0.00000  Uiso   1.00
C1678  C     0.53328   0.86079   0.69508   0.00000  Uiso   1.00
C1679  C     0.65826   0.83486   0.76519   0.00000  Uiso   1.00
O1680  O     0.33640   0.86426   0.74143   0.00000  Uiso   1.00
O1681  O     0.62797   0.80031   0.74479   0.00000  Uiso   1.00
H1682  H     0.61570   0.80399   0.71061   0.00000  Uiso   1.00
C1683  C     0.34271   0.83575   0.90146   0.00000  Uiso   1.00
O1684  O     0.66565   0.80718   0.92677   0.00000  Uiso   1.00
O1685  O     0.37341   0.87096   0.91976   0.00000  Uiso   1.00
H1686  H     0.38669   0.86838   0.95393   0.00000  Uiso   1.00
C1687  C     0.53924   0.70025   0.75536   0.00000  Uiso   1.00
O1688  O     0.56446   0.73376   0.75847   0.00000  Uiso   1.00
O1689  O     0.54524   0.67244   0.71992   0.00000  Uiso   1.00
H1690  H     0.57282   0.68299   0.70096   0.00000  Uiso   1.00
C1691  C     0.48220   0.96125   0.91903   0.00000  Uiso   1.00
O1692  O     0.43911   0.94441   0.91716   0.00000  Uiso   1.00
O1693  O     0.51482   0.96256   0.96076   0.00000  Uiso   1.00
H1694  H     0.49824   0.94807   0.98645   0.00000  Uiso   1.00
C1695  C     0.45218   0.96229   0.74884   0.00000  Uiso   1.00
O1696  O     0.42674   0.92899   0.74936   0.00000  Uiso   1.00
O1697  O     0.44462   0.98683   0.70961   0.00000  Uiso   1.00
H1698  H     0.41897   0.97296   0.68385   0.00000  Uiso   1.00
C1699  C     0.54094   0.71120   0.91994   0.00000  Uiso   1.00
O1700  O     0.58209   0.73091   0.91894   0.00000  Uiso   1.00
O1701  O     0.51850   0.71116   0.96062   0.00000  Uiso   1.00
H1702  H     0.53776   0.73131   0.98520   0.00000  Uiso   1.00
N1703  N     0.42458   0.78523   0.70634   0.00000  Uiso   1.00
O1704  O     0.43077   0.75051   0.72717   0.00000  Uiso   1.00
O1705  O     0.37880   0.79362   0.69160   0.00000  Uiso   1.00
N1706  N     0.57993   0.87597   0.96165   0.00000  Uiso   1.00
O1707  O     0.62393   0.86634   0.98044   0.00000  Uiso   1.00
O1708  O     0.57812   0.90712   0.93400   0.00000  Uiso   1.00
C1709  C     0.43612   0.76898   0.94611   0.00000  Uiso   1.00
O1710  O     0.41697   0.77051   0.90591   0.00000  Uiso   1.00
O1711  O     0.42734   0.73197   0.96936   0.00000  Uiso   1.00
H1712  H     0.40582   0.70959   0.94895   0.00000  Uiso   1.00
C1713  C     0.56628   0.89660   0.72047   0.00000  Uiso   1.00
O1714  O     0.58060   0.89666   0.76192   0.00000  Uiso   1.00
O1715  O     0.58336   0.93069   0.69578   0.00000  Uiso   1.00
H1716  H     0.60933   0.95062   0.71552   0.00000  Uiso   1.00
O1717  O     0.83333   0.77322   0.87291   0.00000  Uiso   1.00
O1718  O     0.83334   0.89345   0.79375   0.00000  Uiso   1.00
O1719  O     0.83333   0.77321   0.79372   0.00000  Uiso   1.00
O1720  O     0.83334   0.89346   0.87294   0.00000  Uiso   1.00
C1721  C     0.83854   0.75463   0.83369   0.00000  Uiso   1.00
C1722  C     0.82862   0.91224   0.83313   0.00000  Uiso   1.00
O1723  O     0.75828   0.83334   0.86379   0.00000  Uiso   1.00
O1724  O     0.90839   0.83333   0.80288   0.00000  Uiso   1.00
O1725  O     0.75828   0.83333   0.78460   0.00000  Uiso   1.00
O1726  O     0.90839   0.83334   0.88207   0.00000  Uiso   1.00
C1727  C     0.73516   0.83398   0.82160   0.00000  Uiso   1.00
C1728  C     0.93163   0.83331   0.84509   0.00000  Uiso   1.00
Cu1729 Cu    0.83333   0.83334   0.88022   0.00000  Uiso   1.00
Cu1730 Cu    0.83333   0.83333   0.78645   0.00000  Uiso   1.00
N1731  N     0.83335   0.83334   0.95069   0.00000  Uiso   1.00
N1732  N     0.83332   0.83332   0.71597   0.00000  Uiso   1.00
C1733  C     0.68055   0.83463   0.81495   0.00000  Uiso   1.00
C1734  C     0.98645   0.83400   0.85175   0.00000  Uiso   1.00
C1735  C     0.84092   0.68682   0.79224   0.00000  Uiso   1.00
C1736  C     0.83227   0.98003   0.87655   0.00000  Uiso   1.00
C1737  C     0.82003   0.97887   0.79135   0.00000  Uiso   1.00
C1738  C     0.84795   0.68922   0.87685   0.00000  Uiso   1.00
C1739  C     0.82371   0.95733   0.83361   0.00000  Uiso   1.00
C1740  C     0.84531   0.70994   0.83427   0.00000  Uiso   1.00
C1741  C     0.79921   0.80737   0.68746   0.00000  Uiso   1.00
C1742  C     0.86872   0.85809   0.97939   0.00000  Uiso   1.00
C1743  C     0.80049   0.80553   0.97158   0.00000  Uiso   1.00
C1744  C     0.86661   0.86079   0.69508   0.00000  Uiso   1.00
C1745  C     0.99159   0.83486   0.76519   0.00000  Uiso   1.00
O1746  O     0.66974   0.86426   0.74143   0.00000  Uiso   1.00
O1747  O     0.96130   0.80031   0.74479   0.00000  Uiso   1.00
H1748  H     0.94903   0.80399   0.71061   0.00000  Uiso   1.00
C1749  C     0.67604   0.83575   0.90146   0.00000  Uiso   1.00
O1750  O     0.99899   0.80718   0.92677   0.00000  Uiso   1.00
O1751  O     0.70674   0.87096   0.91976   0.00000  Uiso   1.00
H1752  H     0.72003   0.86838   0.95393   0.00000  Uiso   1.00
C1753  C     0.87257   0.70025   0.75536   0.00000  Uiso   1.00
O1754  O     0.89780   0.73376   0.75847   0.00000  Uiso   1.00
O1755  O     0.87858   0.67244   0.71992   0.00000  Uiso   1.00
H1756  H     0.90616   0.68299   0.70096   0.00000  Uiso   1.00
C1757  C     0.81553   0.96125   0.91903   0.00000  Uiso   1.00
O1758  O     0.77245   0.94441   0.91716   0.00000  Uiso   1.00
O1759  O     0.84815   0.96256   0.96076   0.00000  Uiso   1.00
H1760  H     0.83157   0.94807   0.98645   0.00000  Uiso   1.00
C1761  C     0.78551   0.96229   0.74884   0.00000  Uiso   1.00
O1762  O     0.76007   0.92899   0.74936   0.00000  Uiso   1.00
O1763  O     0.77796   0.98683   0.70961   0.00000  Uiso   1.00
H1764  H     0.75231   0.97296   0.68385   0.00000  Uiso   1.00
C1765  C     0.87428   0.71120   0.91994   0.00000  Uiso   1.00
O1766  O     0.91543   0.73091   0.91894   0.00000  Uiso   1.00
O1767  O     0.85183   0.71116   0.96062   0.00000  Uiso   1.00
H1768  H     0.87109   0.73131   0.98520   0.00000  Uiso   1.00
N1769  N     0.75791   0.78523   0.70634   0.00000  Uiso   1.00
O1770  O     0.76410   0.75051   0.72717   0.00000  Uiso   1.00
O1771  O     0.71213   0.79362   0.69160   0.00000  Uiso   1.00
N1772  N     0.91326   0.87597   0.96165   0.00000  Uiso   1.00
O1773  O     0.95726   0.86634   0.98044   0.00000  Uiso   1.00
O1774  O     0.91145   0.90712   0.93400   0.00000  Uiso   1.00
C1775  C     0.76946   0.76898   0.94611   0.00000  Uiso   1.00
O1776  O     0.75030   0.77051   0.90591   0.00000  Uiso   1.00
O1777  O     0.76067   0.73197   0.96936   0.00000  Uiso   1.00
H1778  H     0.73915   0.70959   0.94895   0.00000  Uiso   1.00
C1779  C     0.89962   0.89660   0.72047   0.00000  Uiso   1.00
O1780  O     0.91394   0.89666   0.76192   0.00000  Uiso   1.00
O1781  O     0.91670   0.93069   0.69578   0.00000  Uiso   1.00
H1782  H     0.94267   0.95062   0.71552   0.00000  Uiso   1.00
loop_
_geom_bond_atom_site_label_1
_geom_bond_atom_site_label_2
_geom_bond_distance
_geom_bond_site_symmetry_2
_ccdc_geom_bond_type
O1     C5      1.311   .     A
O1     Cu13    1.962   .     S
O2     C6      1.314   .     A
O2     Cu14    1.962   .     S
O3     Cu14    1.966   .     S
O3     C5      1.309   .     A
O4     C6      1.308   .     A
O4     Cu13    1.966   .     S
C5     C24     1.480   .     S
C6     C23     1.484   .     S
O7     Cu13    2.004   .     S
O7     C11     1.296   .     A
O8     C12     1.297   .     A
O8     Cu14    2.004   .     S
O9     Cu14    2.004   .     S
O9     C11     1.308   .     A
O10    C12     1.308   .     A
O10    Cu13    2.004   .     S
C11    C17     1.452   .     S
C12    C18     1.454   .     S
Cu13   Cu14    2.717   .     S
Cu13   N15     2.042   .     S
Cu14   N16     2.042   .     S
N15    C27     1.398   .     A
N15    C26     1.365   .     A
N16    C28     1.399   .     A
N16    C25     1.365   .     A
C17    C150    1.372   1_455 S
C17    C161    1.486   1_455 S
C18    C83     1.372   .     S
C18    C99     1.487   .     S
C19    C24     1.409   .     A
C19    C37     1.493   .     S
C19    C417    1.401   1_545 S
C20    C23     1.419   .     A
C20    C41     1.482   .     S
C20    C220    1.404   .     S
C21    C45     1.500   .     S
C21    C23     1.414   .     A
C21    C217    1.401   .     S
C22    C49     1.488   .     S
C22    C24     1.409   .     A
C22    C416    1.404   1_545 S
C25    N53     1.433   .     S
C25    C1215   1.431   1_554 S
C26    N56     1.435   .     S
C26    C622    1.431   .     S
C27    C59     1.507   .     S
C27    C619    1.431   .     S
C28    C63     1.511   .     S
C28    C1214   1.431   1_554 S
C29    O31     1.396   .     S
C29    C83     1.486   .     S
C29    O96     1.222   .     S
O30    C161    1.222   1_455 S
O31    H32     1.014   .     S
C33    O35     1.398   .     S
C33    C150    1.487   1_455 S
C33    O166    1.223   1_455 S
O34    C99     1.223   .     S
O35    H36     1.014   .     S
C37    O39     1.395   .     S
C37    O38     1.220   .     D
O39    H40     1.013   .     S
C41    O42     1.222   .     D
C41    O43     1.393   .     S
O43    H44     1.013   .     S
C45    O47     1.400   .     S
C45    O46     1.222   .     D
O47    H48     1.014   .     S
C49    O50     1.224   .     D
C49    O51     1.392   .     S
O51    H52     1.014   .     S
N53    O55     1.300   .     A
N53    O54     1.299   .     A
N56    O58     1.298   .     A
N56    O57     1.300   .     A
C59    O60     1.213   .     D
C59    O61     1.400   .     S
O61    H62     1.014   .     S
C63    O65     1.398   .     S
C63    O64     1.211   .     D
O65    H66     1.014   .     S
O67    C71     1.311   .     A
O67    Cu79    1.962   .     S
O68    C72     1.314   .     A
O68    Cu80    1.962   .     S
O69    Cu80    1.966   .     S
O69    C71     1.309   .     A
O70    C72     1.308   .     A
O70    Cu79    1.966   .     S
C71    C90     1.480   .     S
C72    C89     1.484   .     S
O73    Cu79    2.004   .     S
O73    C77     1.296   .     A
O74    C78     1.297   .     A
O74    Cu80    2.004   .     S
O75    Cu80    2.004   .     S
O75    C77     1.308   .     A
O76    C78     1.308   .     A
O76    Cu79    2.004   .     S
C77    C83     1.452   .     S
C78    C84     1.454   .     S
Cu79   Cu80    2.717   .     S
Cu79   N81     2.042   .     S
Cu80   N82     2.042   .     S
N81    C93     1.398   .     A
N81    C92     1.365   .     A
N82    C94     1.399   .     A
N82    C91     1.365   .     A
C84    C149    1.372   .     S
C84    C165    1.487   .     S
C85    C90     1.409   .     A
C85    C103    1.493   .     S
C85    C483    1.401   1_545 S
C86    C89     1.419   .     A
C86    C107    1.482   .     S
C86    C286    1.404   .     S
C87    C111    1.500   .     S
C87    C89     1.414   .     A
C87    C283    1.401   .     S
C88    C115    1.488   .     S
C88    C90     1.409   .     A
C88    C482    1.404   1_545 S
C91    N119    1.433   .     S
C91    C1281   1.431   1_554 S
C92    N122    1.435   .     S
C92    C688    1.431   .     S
C93    C125    1.507   .     S
C93    C685    1.431   .     S
C94    C129    1.511   .     S
C94    C1280   1.431   1_554 S
C95    O97     1.396   .     S
C95    C149    1.486   .     S
C95    O162    1.222   .     S
O97    H98     1.014   .     S
C99    O101    1.398   .     S
O100   C165    1.223   .     S
O101   H102    1.014   .     S
C103   O105    1.395   .     S
C103   O104    1.220   .     D
O105   H106    1.013   .     S
C107   O108    1.222   .     D
C107   O109    1.393   .     S
O109   H110    1.013   .     S
C111   O113    1.400   .     S
C111   O112    1.222   .     D
O113   H114    1.014   .     S
C115   O116    1.224   .     D
C115   O117    1.392   .     S
O117   H118    1.014   .     S
N119   O121    1.300   .     A
N119   O120    1.299   .     A
N122   O124    1.298   .     A
N122   O123    1.300   .     A
C125   O126    1.213   .     D
C125   O127    1.400   .     S
O127   H128    1.014   .     S
C129   O131    1.398   .     S
C129   O130    1.211   .     D
O131   H132    1.014   .     S
O133   C137    1.311   .     A
O133   Cu145   1.962   .     S
O134   C138    1.314   .     A
O134   Cu146   1.962   .     S
O135   Cu146   1.966   .     S
O135   C137    1.309   .     A
O136   C138    1.308   .     A
O136   Cu145   1.966   .     S
C137   C156    1.480   .     S
C138   C155    1.484   .     S
O139   Cu145   2.004   .     S
O139   C143    1.296   .     A
O140   C144    1.297   .     A
O140   Cu146   2.004   .     S
O141   Cu146   2.004   .     S
O141   C143    1.308   .     A
O142   C144    1.308   .     A
O142   Cu145   2.004   .     S
C143   C149    1.452   .     S
C144   C150    1.454   .     S
Cu145  Cu146   2.717   .     S
Cu145  N147    2.042   .     S
Cu146  N148    2.042   .     S
N147   C159    1.398   .     A
N147   C158    1.365   .     A
N148   C160    1.399   .     A
N148   C157    1.365   .     A
C150   C17     1.372   1_655 S
C150   C33     1.487   1_655 S
C151   C156    1.409   .     A
C151   C169    1.493   .     S
C151   C549    1.401   1_545 S
C152   C155    1.419   .     A
C152   C173    1.482   .     S
C152   C352    1.404   .     S
C153   C177    1.500   .     S
C153   C155    1.414   .     A
C153   C349    1.401   .     S
C154   C181    1.488   .     S
C154   C156    1.409   .     A
C154   C548    1.404   1_545 S
C157   N185    1.433   .     S
C157   C1347   1.431   1_554 S
C158   N188    1.435   .     S
C158   C754    1.431   .     S
C159   C191    1.507   .     S
C159   C751    1.431   .     S
C160   C195    1.511   .     S
C160   C1346   1.431   1_554 S
C161   O163    1.396   .     S
C161   C17     1.486   1_655 S
C161   O30     1.222   1_655 S
O163   H164    1.014   .     S
C165   O167    1.398   .     S
O166   C33     1.223   1_655 S
O167   H168    1.014   .     S
C169   O171    1.395   .     S
C169   O170    1.220   .     D
O171   H172    1.013   .     S
C173   O174    1.222   .     D
C173   O175    1.393   .     S
O175   H176    1.013   .     S
C177   O179    1.400   .     S
C177   O178    1.222   .     D
O179   H180    1.014   .     S
C181   O182    1.224   .     D
C181   O183    1.392   .     S
O183   H184    1.014   .     S
N185   O187    1.300   .     A
N185   O186    1.299   .     A
N188   O190    1.298   .     A
N188   O189    1.300   .     A
C191   O192    1.213   .     D
C191   O193    1.400   .     S
O193   H194    1.014   .     S
C195   O197    1.398   .     S
C195   O196    1.211   .     D
O197   H198    1.014   .     S
O199   C203    1.311   .     A
O199   Cu211   1.962   .     S
O200   C204    1.314   .     A
O200   Cu212   1.962   .     S
O201   Cu212   1.966   .     S
O201   C203    1.309   .     A
O202   C204    1.308   .     A
O202   Cu211   1.966   .     S
C203   C222    1.480   .     S
C204   C221    1.484   .     S
O205   Cu211   2.004   .     S
O205   C209    1.296   .     A
O206   C210    1.297   .     A
O206   Cu212   2.004   .     S
O207   Cu212   2.004   .     S
O207   C209    1.308   .     A
O208   C210    1.308   .     A
O208   Cu211   2.004   .     S
C209   C215    1.452   .     S
C210   C216    1.454   .     S
Cu211  Cu212   2.717   .     S
Cu211  N213    2.042   .     S
Cu212  N214    2.042   .     S
N213   C225    1.398   .     A
N213   C224    1.365   .     A
N214   C226    1.399   .     A
N214   C223    1.365   .     A
C215   C348    1.372   1_455 S
C215   C359    1.486   1_455 S
C216   C281    1.372   .     S
C216   C297    1.487   .     S
C217   C222    1.409   .     A
C217   C235    1.493   .     S
C218   C221    1.419   .     A
C218   C239    1.482   .     S
C218   C418    1.404   .     S
C219   C243    1.500   .     S
C219   C221    1.414   .     A
C219   C415    1.401   .     S
C220   C247    1.488   .     S
C220   C222    1.409   .     A
C223   N251    1.433   .     S
C223   C1413   1.431   1_554 S
C224   N254    1.435   .     S
C224   C820    1.431   .     S
C225   C257    1.507   .     S
C225   C817    1.431   .     S
C226   C261    1.511   .     S
C226   C1412   1.431   1_554 S
C227   O229    1.396   .     S
C227   C281    1.486   .     S
C227   O294    1.222   .     S
O228   C359    1.222   1_455 S
O229   H230    1.014   .     S
C231   O233    1.398   .     S
C231   C348    1.487   1_455 S
C231   O364    1.223   1_455 S
O232   C297    1.223   .     S
O233   H234    1.014   .     S
C235   O237    1.395   .     S
C235   O236    1.220   .     D
O237   H238    1.013   .     S
C239   O240    1.222   .     D
C239   O241    1.393   .     S
O241   H242    1.013   .     S
C243   O245    1.400   .     S
C243   O244    1.222   .     D
O245   H246    1.014   .     S
C247   O248    1.224   .     D
C247   O249    1.392   .     S
O249   H250    1.014   .     S
N251   O253    1.300   .     A
N251   O252    1.299   .     A
N254   O256    1.298   .     A
N254   O255    1.300   .     A
C257   O258    1.213   .     D
C257   O259    1.400   .     S
O259   H260    1.014   .     S
C261   O263    1.398   .     S
C261   O262    1.211   .     D
O263   H264    1.014   .     S
O265   C269    1.311   .     A
O265   Cu277   1.962   .     S
O266   C270    1.314   .     A
O266   Cu278   1.962   .     S
O267   Cu278   1.966   .     S
O267   C269    1.309   .     A
O268   C270    1.308   .     A
O268   Cu277   1.966   .     S
C269   C288    1.480   .     S
C270   C287    1.484   .     S
O271   Cu277   2.004   .     S
O271   C275    1.296   .     A
O272   C276    1.297   .     A
O272   Cu278   2.004   .     S
O273   Cu278   2.004   .     S
O273   C275    1.308   .     A
O274   C276    1.308   .     A
O274   Cu277   2.004   .     S
C275   C281    1.452   .     S
C276   C282    1.454   .     S
Cu277  Cu278   2.717   .     S
Cu277  N279    2.042   .     S
Cu278  N280    2.042   .     S
N279   C291    1.398   .     A
N279   C290    1.365   .     A
N280   C292    1.399   .     A
N280   C289    1.365   .     A
C282   C347    1.372   .     S
C282   C363    1.487   .     S
C283   C288    1.409   .     A
C283   C301    1.493   .     S
C284   C287    1.419   .     A
C284   C305    1.482   .     S
C284   C484    1.404   .     S
C285   C309    1.500   .     S
C285   C287    1.414   .     A
C285   C481    1.401   .     S
C286   C313    1.488   .     S
C286   C288    1.409   .     A
C289   N317    1.433   .     S
C289   C1479   1.431   1_554 S
C290   N320    1.435   .     S
C290   C886    1.431   .     S
C291   C323    1.507   .     S
C291   C883    1.431   .     S
C292   C327    1.511   .     S
C292   C1478   1.431   1_554 S
C293   O295    1.396   .     S
C293   C347    1.486   .     S
C293   O360    1.222   .     S
O295   H296    1.014   .     S
C297   O299    1.398   .     S
O298   C363    1.223   .     S
O299   H300    1.014   .     S
C301   O303    1.395   .     S
C301   O302    1.220   .     D
O303   H304    1.013   .     S
C305   O306    1.222   .     D
C305   O307    1.393   .     S
O307   H308    1.013   .     S
C309   O311    1.400   .     S
C309   O310    1.222   .     D
O311   H312    1.014   .     S
C313   O314    1.224   .     D
C313   O315    1.392   .     S
O315   H316    1.014   .     S
N317   O319    1.300   .     A
N317   O318    1.299   .     A
N320   O322    1.298   .     A
N320   O321    1.300   .     A
C323   O324    1.213   .     D
C323   O325    1.400   .     S
O325   H326    1.014   .     S
C327   O329    1.398   .     S
C327   O328    1.211   .     D
O329   H330    1.014   .     S
O331   C335    1.311   .     A
O331   Cu343   1.962   .     S
O332   C336    1.314   .     A
O332   Cu344   1.962   .     S
O333   Cu344   1.966   .     S
O333   C335    1.309   .     A
O334   C336    1.308   .     A
O334   Cu343   1.966   .     S
C335   C354    1.480   .     S
C336   C353    1.484   .     S
O337   Cu343   2.004   .     S
O337   C341    1.296   .     A
O338   C342    1.297   .     A
O338   Cu344   2.004   .     S
O339   Cu344   2.004   .     S
O339   C341    1.308   .     A
O340   C342    1.308   .     A
O340   Cu343   2.004   .     S
C341   C347    1.452   .     S
C342   C348    1.454   .     S
Cu343  Cu344   2.717   .     S
Cu343  N345    2.042   .     S
Cu344  N346    2.042   .     S
N345   C357    1.398   .     A
N345   C356    1.365   .     A
N346   C358    1.399   .     A
N346   C355    1.365   .     A
C348   C215    1.372   1_655 S
C348   C231    1.487   1_655 S
C349   C354    1.409   .     A
C349   C367    1.493   .     S
C350   C353    1.419   .     A
C350   C371    1.482   .     S
C350   C550    1.404   .     S
C351   C375    1.500   .     S
C351   C353    1.414   .     A
C351   C547    1.401   .     S
C352   C379    1.488   .     S
C352   C354    1.409   .     A
C355   N383    1.433   .     S
C355   C1545   1.431   1_554 S
C356   N386    1.435   .     S
C356   C952    1.431   .     S
C357   C389    1.507   .     S
C357   C949    1.431   .     S
C358   C393    1.511   .     S
C358   C1544   1.431   1_554 S
C359   O361    1.396   .     S
C359   C215    1.486   1_655 S
C359   O228    1.222   1_655 S
O361   H362    1.014   .     S
C363   O365    1.398   .     S
O364   C231    1.223   1_655 S
O365   H366    1.014   .     S
C367   O369    1.395   .     S
C367   O368    1.220   .     D
O369   H370    1.013   .     S
C371   O372    1.222   .     D
C371   O373    1.393   .     S
O373   H374    1.013   .     S
C375   O377    1.400   .     S
C375   O376    1.222   .     D
O377   H378    1.014   .     S
C379   O380    1.224   .     D
C379   O381    1.392   .     S
O381   H382    1.014   .     S
N383   O385    1.300   .     A
N383   O384    1.299   .     A
N386   O388    1.298   .     A
N386   O387    1.300   .     A
C389   O390    1.213   .     D
C389   O391    1.400   .     S
O391   H392    1.014   .     S
C393   O395    1.398   .     S
C393   O394    1.211   .     D
O395   H396    1.014   .     S
O397   C401    1.311   .     A
O397   Cu409   1.962   .     S
O398   C402    1.314   .     A
O398   Cu410   1.962   .     S
O399   Cu410   1.966   .     S
O399   C401    1.309   .     A
O400   C402    1.308   .     A
O400   Cu409   1.966   .     S
C401   C420    1.480   .     S
C402   C419    1.484   .     S
O403   Cu409   2.004   .     S
O403   C407    1.296   .     A
O404   C408    1.297   .     A
O404   Cu410   2.004   .     S
O405   Cu410   2.004   .     S
O405   C407    1.308   .     A
O406   C408    1.308   .     A
O406   Cu409   2.004   .     S
C407   C413    1.452   .     S
C408   C414    1.454   .     S
Cu409  Cu410   2.717   .     S
Cu409  N411    2.042   .     S
Cu410  N412    2.042   .     S
N411   C423    1.398   .     A
N411   C422    1.365   .     A
N412   C424    1.399   .     A
N412   C421    1.365   .     A
C413   C546    1.372   1_455 S
C413   C557    1.486   1_455 S
C414   C479    1.372   .     S
C414   C495    1.487   .     S
C415   C420    1.409   .     A
C415   C433    1.493   .     S
C416   C419    1.419   .     A
C416   C437    1.482   .     S
C416   C22     1.404   1_565 S
C417   C441    1.500   .     S
C417   C419    1.414   .     A
C417   C19     1.401   1_565 S
C418   C445    1.488   .     S
C418   C420    1.409   .     A
C421   N449    1.433   .     S
C421   C1611   1.431   1_554 S
C422   N452    1.435   .     S
C422   C1018   1.431   .     S
C423   C455    1.507   .     S
C423   C1015   1.431   .     S
C424   C459    1.511   .     S
C424   C1610   1.431   1_554 S
C425   O427    1.396   .     S
C425   C479    1.486   .     S
C425   O492    1.222   .     S
O426   C557    1.222   1_455 S
O427   H428    1.014   .     S
C429   O431    1.398   .     S
C429   C546    1.487   1_455 S
C429   O562    1.223   1_455 S
O430   C495    1.223   .     S
O431   H432    1.014   .     S
C433   O435    1.395   .     S
C433   O434    1.220   .     D
O435   H436    1.013   .     S
C437   O438    1.222   .     D
C437   O439    1.393   .     S
O439   H440    1.013   .     S
C441   O443    1.400   .     S
C441   O442    1.222   .     D
O443   H444    1.014   .     S
C445   O446    1.224   .     D
C445   O447    1.392   .     S
O447   H448    1.014   .     S
N449   O451    1.300   .     A
N449   O450    1.299   .     A
N452   O454    1.298   .     A
N452   O453    1.300   .     A
C455   O456    1.213   .     D
C455   O457    1.400   .     S
O457   H458    1.014   .     S
C459   O461    1.398   .     S
C459   O460    1.211   .     D
O461   H462    1.014   .     S
O463   C467    1.311   .     A
O463   Cu475   1.962   .     S
O464   C468    1.314   .     A
O464   Cu476   1.962   .     S
O465   Cu476   1.966   .     S
O465   C467    1.309   .     A
O466   C468    1.308   .     A
O466   Cu475   1.966   .     S
C467   C486    1.480   .     S
C468   C485    1.484   .     S
O469   Cu475   2.004   .     S
O469   C473    1.296   .     A
O470   C474    1.297   .     A
O470   Cu476   2.004   .     S
O471   Cu476   2.004   .     S
O471   C473    1.308   .     A
O472   C474    1.308   .     A
O472   Cu475   2.004   .     S
C473   C479    1.452   .     S
C474   C480    1.454   .     S
Cu475  Cu476   2.717   .     S
Cu475  N477    2.042   .     S
Cu476  N478    2.042   .     S
N477   C489    1.398   .     A
N477   C488    1.365   .     A
N478   C490    1.399   .     A
N478   C487    1.365   .     A
C480   C545    1.372   .     S
C480   C561    1.487   .     S
C481   C486    1.409   .     A
C481   C499    1.493   .     S
C482   C485    1.419   .     A
C482   C503    1.482   .     S
C482   C88     1.404   1_565 S
C483   C507    1.500   .     S
C483   C485    1.414   .     A
C483   C85     1.401   1_565 S
C484   C511    1.488   .     S
C484   C486    1.409   .     A
C487   N515    1.433   .     S
C487   C1677   1.431   1_554 S
C488   N518    1.435   .     S
C488   C1084   1.431   .     S
C489   C521    1.507   .     S
C489   C1081   1.431   .     S
C490   C525    1.511   .     S
C490   C1676   1.431   1_554 S
C491   O493    1.396   .     S
C491   C545    1.486   .     S
C491   O558    1.222   .     S
O493   H494    1.014   .     S
C495   O497    1.398   .     S
O496   C561    1.223   .     S
O497   H498    1.014   .     S
C499   O501    1.395   .     S
C499   O500    1.220   .     D
O501   H502    1.013   .     S
C503   O504    1.222   .     D
C503   O505    1.393   .     S
O505   H506    1.013   .     S
C507   O509    1.400   .     S
C507   O508    1.222   .     D
O509   H510    1.014   .     S
C511   O512    1.224   .     D
C511   O513    1.392   .     S
O513   H514    1.014   .     S
N515   O517    1.300   .     A
N515   O516    1.299   .     A
N518   O520    1.298   .     A
N518   O519    1.300   .     A
C521   O522    1.213   .     D
C521   O523    1.400   .     S
O523   H524    1.014   .     S
C525   O527    1.398   .     S
C525   O526    1.211   .     D
O527   H528    1.014   .     S
O529   C533    1.311   .     A
O529   Cu541   1.962   .     S
O530   C534    1.314   .     A
O530   Cu542   1.962   .     S
O531   Cu542   1.966   .     S
O531   C533    1.309   .     A
O532   C534    1.308   .     A
O532   Cu541   1.966   .     S
C533   C552    1.480   .     S
C534   C551    1.484   .     S
O535   Cu541   2.004   .     S
O535   C539    1.296   .     A
O536   C540    1.297   .     A
O536   Cu542   2.004   .     S
O537   Cu542   2.004   .     S
O537   C539    1.308   .     A
O538   C540    1.308   .     A
O538   Cu541   2.004   .     S
C539   C545    1.452   .     S
C540   C546    1.454   .     S
Cu541  Cu542   2.717   .     S
Cu541  N543    2.042   .     S
Cu542  N544    2.042   .     S
N543   C555    1.398   .     A
N543   C554    1.365   .     A
N544   C556    1.399   .     A
N544   C553    1.365   .     A
C546   C413    1.372   1_655 S
C546   C429    1.487   1_655 S
C547   C552    1.409   .     A
C547   C565    1.493   .     S
C548   C551    1.419   .     A
C548   C569    1.482   .     S
C548   C154    1.404   1_565 S
C549   C573    1.500   .     S
C549   C551    1.414   .     A
C549   C151    1.401   1_565 S
C550   C577    1.488   .     S
C550   C552    1.409   .     A
C553   N581    1.433   .     S
C553   C1743   1.431   1_554 S
C554   N584    1.435   .     S
C554   C1150   1.431   .     S
C555   C587    1.507   .     S
C555   C1147   1.431   .     S
C556   C591    1.511   .     S
C556   C1742   1.431   1_554 S
C557   O559    1.396   .     S
C557   C413    1.486   1_655 S
C557   O426    1.222   1_655 S
O559   H560    1.014   .     S
C561   O563    1.398   .     S
O562   C429    1.223   1_655 S
O563   H564    1.014   .     S
C565   O567    1.395   .     S
C565   O566    1.220   .     D
O567   H568    1.013   .     S
C569   O570    1.222   .     D
C569   O571    1.393   .     S
O571   H572    1.013   .     S
C573   O575    1.400   .     S
C573   O574    1.222   .     D
O575   H576    1.014   .     S
C577   O578    1.224   .     D
C577   O579    1.392   .     S
O579   H580    1.014   .     S
N581   O583    1.300   .     A
N581   O582    1.299   .     A
N584   O586    1.298   .     A
N584   O585    1.300   .     A
C587   O588    1.213   .     D
C587   O589    1.400   .     S
O589   H590    1.014   .     S
C591   O593    1.398   .     S
C591   O592    1.211   .     D
O593   H594    1.014   .     S
O595   C599    1.311   .     A
O595   Cu607   1.962   .     S
O596   C600    1.314   .     A
O596   Cu608   1.962   .     S
O597   Cu608   1.966   .     S
O597   C599    1.309   .     A
O598   C600    1.308   .     A
O598   Cu607   1.966   .     S
C599   C618    1.480   .     S
C600   C617    1.484   .     S
O601   Cu607   2.004   .     S
O601   C605    1.296   .     A
O602   C606    1.297   .     A
O602   Cu608   2.004   .     S
O603   Cu608   2.004   .     S
O603   C605    1.308   .     A
O604   C606    1.308   .     A
O604   Cu607   2.004   .     S
C605   C611    1.452   .     S
C606   C612    1.454   .     S
Cu607  Cu608   2.717   .     S
Cu607  N609    2.042   .     S
Cu608  N610    2.042   .     S
N609   C621    1.398   .     A
N609   C620    1.365   .     A
N610   C622    1.399   .     A
N610   C619    1.365   .     A
C611   C744    1.372   1_455 S
C611   C755    1.486   1_455 S
C612   C677    1.372   .     S
C612   C693    1.487   .     S
C613   C618    1.409   .     A
C613   C631    1.493   .     S
C613   C1011   1.401   1_545 S
C614   C617    1.419   .     A
C614   C635    1.482   .     S
C614   C814    1.404   .     S
C615   C639    1.500   .     S
C615   C617    1.414   .     A
C615   C811    1.401   .     S
C616   C643    1.488   .     S
C616   C618    1.409   .     A
C616   C1010   1.404   1_545 S
C619   N647    1.433   .     S
C620   N650    1.435   .     S
C620   C1216   1.431   .     S
C621   C653    1.507   .     S
C621   C1213   1.431   .     S
C622   C657    1.511   .     S
C623   O625    1.396   .     S
C623   C677    1.486   .     S
C623   O690    1.222   .     S
O624   C755    1.222   1_455 S
O625   H626    1.014   .     S
C627   O629    1.398   .     S
C627   C744    1.487   1_455 S
C627   O760    1.223   1_455 S
O628   C693    1.223   .     S
O629   H630    1.014   .     S
C631   O633    1.395   .     S
C631   O632    1.220   .     D
O633   H634    1.013   .     S
C635   O636    1.222   .     D
C635   O637    1.393   .     S
O637   H638    1.013   .     S
C639   O641    1.400   .     S
C639   O640    1.222   .     D
O641   H642    1.014   .     S
C643   O644    1.224   .     D
C643   O645    1.392   .     S
O645   H646    1.014   .     S
N647   O649    1.300   .     A
N647   O648    1.299   .     A
N650   O652    1.298   .     A
N650   O651    1.300   .     A
C653   O654    1.213   .     D
C653   O655    1.400   .     S
O655   H656    1.014   .     S
C657   O659    1.398   .     S
C657   O658    1.211   .     D
O659   H660    1.014   .     S
O661   C665    1.311   .     A
O661   Cu673   1.962   .     S
O662   C666    1.314   .     A
O662   Cu674   1.962   .     S
O663   Cu674   1.966   .     S
O663   C665    1.309   .     A
O664   C666    1.308   .     A
O664   Cu673   1.966   .     S
C665   C684    1.480   .     S
C666   C683    1.484   .     S
O667   Cu673   2.004   .     S
O667   C671    1.296   .     A
O668   C672    1.297   .     A
O668   Cu674   2.004   .     S
O669   Cu674   2.004   .     S
O669   C671    1.308   .     A
O670   C672    1.308   .     A
O670   Cu673   2.004   .     S
C671   C677    1.452   .     S
C672   C678    1.454   .     S
Cu673  Cu674   2.717   .     S
Cu673  N675    2.042   .     S
Cu674  N676    2.042   .     S
N675   C687    1.398   .     A
N675   C686    1.365   .     A
N676   C688    1.399   .     A
N676   C685    1.365   .     A
C678   C743    1.372   .     S
C678   C759    1.487   .     S
C679   C684    1.409   .     A
C679   C697    1.493   .     S
C679   C1077   1.401   1_545 S
C680   C683    1.419   .     A
C680   C701    1.482   .     S
C680   C880    1.404   .     S
C681   C705    1.500   .     S
C681   C683    1.414   .     A
C681   C877    1.401   .     S
C682   C709    1.488   .     S
C682   C684    1.409   .     A
C682   C1076   1.404   1_545 S
C685   N713    1.433   .     S
C686   N716    1.435   .     S
C686   C1282   1.431   .     S
C687   C719    1.507   .     S
C687   C1279   1.431   .     S
C688   C723    1.511   .     S
C689   O691    1.396   .     S
C689   C743    1.486   .     S
C689   O756    1.222   .     S
O691   H692    1.014   .     S
C693   O695    1.398   .     S
O694   C759    1.223   .     S
O695   H696    1.014   .     S
C697   O699    1.395   .     S
C697   O698    1.220   .     D
O699   H700    1.013   .     S
C701   O702    1.222   .     D
C701   O703    1.393   .     S
O703   H704    1.013   .     S
C705   O707    1.400   .     S
C705   O706    1.222   .     D
O707   H708    1.014   .     S
C709   O710    1.224   .     D
C709   O711    1.392   .     S
O711   H712    1.014   .     S
N713   O715    1.300   .     A
N713   O714    1.299   .     A
N716   O718    1.298   .     A
N716   O717    1.300   .     A
C719   O720    1.213   .     D
C719   O721    1.400   .     S
O721   H722    1.014   .     S
C723   O725    1.398   .     S
C723   O724    1.211   .     D
O725   H726    1.014   .     S
O727   C731    1.311   .     A
O727   Cu739   1.962   .     S
O728   C732    1.314   .     A
O728   Cu740   1.962   .     S
O729   Cu740   1.966   .     S
O729   C731    1.309   .     A
O730   C732    1.308   .     A
O730   Cu739   1.966   .     S
C731   C750    1.480   .     S
C732   C749    1.484   .     S
O733   Cu739   2.004   .     S
O733   C737    1.296   .     A
O734   C738    1.297   .     A
O734   Cu740   2.004   .     S
O735   Cu740   2.004   .     S
O735   C737    1.308   .     A
O736   C738    1.308   .     A
O736   Cu739   2.004   .     S
C737   C743    1.452   .     S
C738   C744    1.454   .     S
Cu739  Cu740   2.717   .     S
Cu739  N741    2.042   .     S
Cu740  N742    2.042   .     S
N741   C753    1.398   .     A
N741   C752    1.365   .     A
N742   C754    1.399   .     A
N742   C751    1.365   .     A
C744   C611    1.372   1_655 S
C744   C627    1.487   1_655 S
C745   C750    1.409   .     A
C745   C763    1.493   .     S
C745   C1143   1.401   1_545 S
C746   C749    1.419   .     A
C746   C767    1.482   .     S
C746   C946    1.404   .     S
C747   C771    1.500   .     S
C747   C749    1.414   .     A
C747   C943    1.401   .     S
C748   C775    1.488   .     S
C748   C750    1.409   .     A
C748   C1142   1.404   1_545 S
C751   N779    1.433   .     S
C752   N782    1.435   .     S
C752   C1348   1.431   .     S
C753   C785    1.507   .     S
C753   C1345   1.431   .     S
C754   C789    1.511   .     S
C755   O757    1.396   .     S
C755   C611    1.486   1_655 S
C755   O624    1.222   1_655 S
O757   H758    1.014   .     S
C759   O761    1.398   .     S
O760   C627    1.223   1_655 S
O761   H762    1.014   .     S
C763   O765    1.395   .     S
C763   O764    1.220   .     D
O765   H766    1.013   .     S
C767   O768    1.222   .     D
C767   O769    1.393   .     S
O769   H770    1.013   .     S
C771   O773    1.400   .     S
C771   O772    1.222   .     D
O773   H774    1.014   .     S
C775   O776    1.224   .     D
C775   O777    1.392   .     S
O777   H778    1.014   .     S
N779   O781    1.300   .     A
N779   O780    1.299   .     A
N782   O784    1.298   .     A
N782   O783    1.300   .     A
C785   O786    1.213   .     D
C785   O787    1.400   .     S
O787   H788    1.014   .     S
C789   O791    1.398   .     S
C789   O790    1.211   .     D
O791   H792    1.014   .     S
O793   C797    1.311   .     A
O793   Cu805   1.962   .     S
O794   C798    1.314   .     A
O794   Cu806   1.962   .     S
O795   Cu806   1.966   .     S
O795   C797    1.309   .     A
O796   C798    1.308   .     A
O796   Cu805   1.966   .     S
C797   C816    1.480   .     S
C798   C815    1.484   .     S
O799   Cu805   2.004   .     S
O799   C803    1.296   .     A
O800   C804    1.297   .     A
O800   Cu806   2.004   .     S
O801   Cu806   2.004   .     S
O801   C803    1.308   .     A
O802   C804    1.308   .     A
O802   Cu805   2.004   .     S
C803   C809    1.452   .     S
C804   C810    1.454   .     S
Cu805  Cu806   2.717   .     S
Cu805  N807    2.042   .     S
Cu806  N808    2.042   .     S
N807   C819    1.398   .     A
N807   C818    1.365   .     A
N808   C820    1.399   .     A
N808   C817    1.365   .     A
C809   C942    1.372   1_455 S
C809   C953    1.486   1_455 S
C810   C875    1.372   .     S
C810   C891    1.487   .     S
C811   C816    1.409   .     A
C811   C829    1.493   .     S
C812   C815    1.419   .     A
C812   C833    1.482   .     S
C812   C1012   1.404   .     S
C813   C837    1.500   .     S
C813   C815    1.414   .     A
C813   C1009   1.401   .     S
C814   C841    1.488   .     S
C814   C816    1.409   .     A
C817   N845    1.433   .     S
C818   N848    1.435   .     S
C818   C1414   1.431   .     S
C819   C851    1.507   .     S
C819   C1411   1.431   .     S
C820   C855    1.511   .     S
C821   O823    1.396   .     S
C821   C875    1.486   .     S
C821   O888    1.222   .     S
O822   C953    1.222   1_455 S
O823   H824    1.014   .     S
C825   O827    1.398   .     S
C825   C942    1.487   1_455 S
C825   O958    1.223   1_455 S
O826   C891    1.223   .     S
O827   H828    1.014   .     S
C829   O831    1.395   .     S
C829   O830    1.220   .     D
O831   H832    1.013   .     S
C833   O834    1.222   .     D
C833   O835    1.393   .     S
O835   H836    1.013   .     S
C837   O839    1.400   .     S
C837   O838    1.222   .     D
O839   H840    1.014   .     S
C841   O842    1.224   .     D
C841   O843    1.392   .     S
O843   H844    1.014   .     S
N845   O847    1.300   .     A
N845   O846    1.299   .     A
N848   O850    1.298   .     A
N848   O849    1.300   .     A
C851   O852    1.213   .     D
C851   O853    1.400   .     S
O853   H854    1.014   .     S
C855   O857    1.398   .     S
C855   O856    1.211   .     D
O857   H858    1.014   .     S
O859   C863    1.311   .     A
O859   Cu871   1.962   .     S
O860   C864    1.314   .     A
O860   Cu872   1.962   .     S
O861   Cu872   1.966   .     S
O861   C863    1.309   .     A
O862   C864    1.308   .     A
O862   Cu871   1.966   .     S
C863   C882    1.480   .     S
C864   C881    1.484   .     S
O865   Cu871   2.004   .     S
O865   C869    1.296   .     A
O866   C870    1.297   .     A
O866   Cu872   2.004   .     S
O867   Cu872   2.004   .     S
O867   C869    1.308   .     A
O868   C870    1.308   .     A
O868   Cu871   2.004   .     S
C869   C875    1.452   .     S
C870   C876    1.454   .     S
Cu871  Cu872   2.717   .     S
Cu871  N873    2.042   .     S
Cu872  N874    2.042   .     S
N873   C885    1.398   .     A
N873   C884    1.365   .     A
N874   C886    1.399   .     A
N874   C883    1.365   .     A
C876   C941    1.372   .     S
C876   C957    1.487   .     S
C877   C882    1.409   .     A
C877   C895    1.493   .     S
C878   C881    1.419   .     A
C878   C899    1.482   .     S
C878   C1078   1.404   .     S
C879   C903    1.500   .     S
C879   C881    1.414   .     A
C879   C1075   1.401   .     S
C880   C907    1.488   .     S
C880   C882    1.409   .     A
C883   N911    1.433   .     S
C884   N914    1.435   .     S
C884   C1480   1.431   .     S
C885   C917    1.507   .     S
C885   C1477   1.431   .     S
C886   C921    1.511   .     S
C887   O889    1.396   .     S
C887   C941    1.486   .     S
C887   O954    1.222   .     S
O889   H890    1.014   .     S
C891   O893    1.398   .     S
O892   C957    1.223   .     S
O893   H894    1.014   .     S
C895   O897    1.395   .     S
C895   O896    1.220   .     D
O897   H898    1.013   .     S
C899   O900    1.222   .     D
C899   O901    1.393   .     S
O901   H902    1.013   .     S
C903   O905    1.400   .     S
C903   O904    1.222   .     D
O905   H906    1.014   .     S
C907   O908    1.224   .     D
C907   O909    1.392   .     S
O909   H910    1.014   .     S
N911   O913    1.300   .     A
N911   O912    1.299   .     A
N914   O916    1.298   .     A
N914   O915    1.300   .     A
C917   O918    1.213   .     D
C917   O919    1.400   .     S
O919   H920    1.014   .     S
C921   O923    1.398   .     S
C921   O922    1.211   .     D
O923   H924    1.014   .     S
O925   C929    1.311   .     A
O925   Cu937   1.962   .     S
O926   C930    1.314   .     A
O926   Cu938   1.962   .     S
O927   Cu938   1.966   .     S
O927   C929    1.309   .     A
O928   C930    1.308   .     A
O928   Cu937   1.966   .     S
C929   C948    1.480   .     S
C930   C947    1.484   .     S
O931   Cu937   2.004   .     S
O931   C935    1.296   .     A
O932   C936    1.297   .     A
O932   Cu938   2.004   .     S
O933   Cu938   2.004   .     S
O933   C935    1.308   .     A
O934   C936    1.308   .     A
O934   Cu937   2.004   .     S
C935   C941    1.452   .     S
C936   C942    1.454   .     S
Cu937  Cu938   2.717   .     S
Cu937  N939    2.042   .     S
Cu938  N940    2.042   .     S
N939   C951    1.398   .     A
N939   C950    1.365   .     A
N940   C952    1.399   .     A
N940   C949    1.365   .     A
C942   C809    1.372   1_655 S
C942   C825    1.487   1_655 S
C943   C948    1.409   .     A
C943   C961    1.493   .     S
C944   C947    1.419   .     A
C944   C965    1.482   .     S
C944   C1144   1.404   .     S
C945   C969    1.500   .     S
C945   C947    1.414   .     A
C945   C1141   1.401   .     S
C946   C973    1.488   .     S
C946   C948    1.409   .     A
C949   N977    1.433   .     S
C950   N980    1.435   .     S
C950   C1546   1.431   .     S
C951   C983    1.507   .     S
C951   C1543   1.431   .     S
C952   C987    1.511   .     S
C953   O955    1.396   .     S
C953   C809    1.486   1_655 S
C953   O822    1.222   1_655 S
O955   H956    1.014   .     S
C957   O959    1.398   .     S
O958   C825    1.223   1_655 S
O959   H960    1.014   .     S
C961   O963    1.395   .     S
C961   O962    1.220   .     D
O963   H964    1.013   .     S
C965   O966    1.222   .     D
C965   O967    1.393   .     S
O967   H968    1.013   .     S
C969   O971    1.400   .     S
C969   O970    1.222   .     D
O971   H972    1.014   .     S
C973   O974    1.224   .     D
C973   O975    1.392   .     S
O975   H976    1.014   .     S
N977   O979    1.300   .     A
N977   O978    1.299   .     A
N980   O982    1.298   .     A
N980   O981    1.300   .     A
C983   O984    1.213   .     D
C983   O985    1.400   .     S
O985   H986    1.014   .     S
C987   O989    1.398   .     S
C987   O988    1.211   .     D
O989   H990    1.014   .     S
O991   C995    1.311   .     A
O991   Cu1003  1.962   .     S
O992   C996    1.314   .     A
O992   Cu1004  1.962   .     S
O993   Cu1004  1.966   .     S
O993   C995    1.309   .     A
O994   C996    1.308   .     A
O994   Cu1003  1.966   .     S
C995   C1014   1.480   .     S
C996   C1013   1.484   .     S
O997   Cu1003  2.004   .     S
O997   C1001   1.296   .     A
O998   C1002   1.297   .     A
O998   Cu1004  2.004   .     S
O999   Cu1004  2.004   .     S
O999   C1001   1.308   .     A
O1000  C1002   1.308   .     A
O1000  Cu1003  2.004   .     S
C1001  C1007   1.452   .     S
C1002  C1008   1.454   .     S
Cu1003 Cu1004  2.717   .     S
Cu1003 N1005   2.042   .     S
Cu1004 N1006   2.042   .     S
N1005  C1017   1.398   .     A
N1005  C1016   1.365   .     A
N1006  C1018   1.399   .     A
N1006  C1015   1.365   .     A
C1007  C1140   1.372   1_455 S
C1007  C1151   1.486   1_455 S
C1008  C1073   1.372   .     S
C1008  C1089   1.487   .     S
C1009  C1014   1.409   .     A
C1009  C1027   1.493   .     S
C1010  C1013   1.419   .     A
C1010  C1031   1.482   .     S
C1010  C616    1.404   1_565 S
C1011  C1035   1.500   .     S
C1011  C1013   1.414   .     A
C1011  C613    1.401   1_565 S
C1012  C1039   1.488   .     S
C1012  C1014   1.409   .     A
C1015  N1043   1.433   .     S
C1016  N1046   1.435   .     S
C1016  C1612   1.431   .     S
C1017  C1049   1.507   .     S
C1017  C1609   1.431   .     S
C1018  C1053   1.511   .     S
C1019  O1021   1.396   .     S
C1019  C1073   1.486   .     S
C1019  O1086   1.222   .     S
O1020  C1151   1.222   1_455 S
O1021  H1022   1.014   .     S
C1023  O1025   1.398   .     S
C1023  C1140   1.487   1_455 S
C1023  O1156   1.223   1_455 S
O1024  C1089   1.223   .     S
O1025  H1026   1.014   .     S
C1027  O1029   1.395   .     S
C1027  O1028   1.220   .     D
O1029  H1030   1.013   .     S
C1031  O1032   1.222   .     D
C1031  O1033   1.393   .     S
O1033  H1034   1.013   .     S
C1035  O1037   1.400   .     S
C1035  O1036   1.222   .     D
O1037  H1038   1.014   .     S
C1039  O1040   1.224   .     D
C1039  O1041   1.392   .     S
O1041  H1042   1.014   .     S
N1043  O1045   1.300   .     A
N1043  O1044   1.299   .     A
N1046  O1048   1.298   .     A
N1046  O1047   1.300   .     A
C1049  O1050   1.213   .     D
C1049  O1051   1.400   .     S
O1051  H1052   1.014   .     S
C1053  O1055   1.398   .     S
C1053  O1054   1.211   .     D
O1055  H1056   1.014   .     S
O1057  C1061   1.311   .     A
O1057  Cu1069  1.962   .     S
O1058  C1062   1.314   .     A
O1058  Cu1070  1.962   .     S
O1059  Cu1070  1.966   .     S
O1059  C1061   1.309   .     A
O1060  C1062   1.308   .     A
O1060  Cu1069  1.966   .     S
C1061  C1080   1.480   .     S
C1062  C1079   1.484   .     S
O1063  Cu1069  2.004   .     S
O1063  C1067   1.296   .     A
O1064  C1068   1.297   .     A
O1064  Cu1070  2.004   .     S
O1065  Cu1070  2.004   .     S
O1065  C1067   1.308   .     A
O1066  C1068   1.308   .     A
O1066  Cu1069  2.004   .     S
C1067  C1073   1.452   .     S
C1068  C1074   1.454   .     S
Cu1069 Cu1070  2.717   .     S
Cu1069 N1071   2.042   .     S
Cu1070 N1072   2.042   .     S
N1071  C1083   1.398   .     A
N1071  C1082   1.365   .     A
N1072  C1084   1.399   .     A
N1072  C1081   1.365   .     A
C1074  C1139   1.372   .     S
C1074  C1155   1.487   .     S
C1075  C1080   1.409   .     A
C1075  C1093   1.493   .     S
C1076  C1079   1.419   .     A
C1076  C1097   1.482   .     S
C1076  C682    1.404   1_565 S
C1077  C1101   1.500   .     S
C1077  C1079   1.414   .     A
C1077  C679    1.401   1_565 S
C1078  C1105   1.488   .     S
C1078  C1080   1.409   .     A
C1081  N1109   1.433   .     S
C1082  N1112   1.435   .     S
C1082  C1678   1.431   .     S
C1083  C1115   1.507   .     S
C1083  C1675   1.431   .     S
C1084  C1119   1.511   .     S
C1085  O1087   1.396   .     S
C1085  C1139   1.486   .     S
C1085  O1152   1.222   .     S
O1087  H1088   1.014   .     S
C1089  O1091   1.398   .     S
O1090  C1155   1.223   .     S
O1091  H1092   1.014   .     S
C1093  O1095   1.395   .     S
C1093  O1094   1.220   .     D
O1095  H1096   1.013   .     S
C1097  O1098   1.222   .     D
C1097  O1099   1.393   .     S
O1099  H1100   1.013   .     S
C1101  O1103   1.400   .     S
C1101  O1102   1.222   .     D
O1103  H1104   1.014   .     S
C1105  O1106   1.224   .     D
C1105  O1107   1.392   .     S
O1107  H1108   1.014   .     S
N1109  O1111   1.300   .     A
N1109  O1110   1.299   .     A
N1112  O1114   1.298   .     A
N1112  O1113   1.300   .     A
C1115  O1116   1.213   .     D
C1115  O1117   1.400   .     S
O1117  H1118   1.014   .     S
C1119  O1121   1.398   .     S
C1119  O1120   1.211   .     D
O1121  H1122   1.014   .     S
O1123  C1127   1.311   .     A
O1123  Cu1135  1.962   .     S
O1124  C1128   1.314   .     A
O1124  Cu1136  1.962   .     S
O1125  Cu1136  1.966   .     S
O1125  C1127   1.309   .     A
O1126  C1128   1.308   .     A
O1126  Cu1135  1.966   .     S
C1127  C1146   1.480   .     S
C1128  C1145   1.484   .     S
O1129  Cu1135  2.004   .     S
O1129  C1133   1.296   .     A
O1130  C1134   1.297   .     A
O1130  Cu1136  2.004   .     S
O1131  Cu1136  2.004   .     S
O1131  C1133   1.308   .     A
O1132  C1134   1.308   .     A
O1132  Cu1135  2.004   .     S
C1133  C1139   1.452   .     S
C1134  C1140   1.454   .     S
Cu1135 Cu1136  2.717   .     S
Cu1135 N1137   2.042   .     S
Cu1136 N1138   2.042   .     S
N1137  C1149   1.398   .     A
N1137  C1148   1.365   .     A
N1138  C1150   1.399   .     A
N1138  C1147   1.365   .     A
C1140  C1007   1.372   1_655 S
C1140  C1023   1.487   1_655 S
C1141  C1146   1.409   .     A
C1141  C1159   1.493   .     S
C1142  C1145   1.419   .     A
C1142  C1163   1.482   .     S
C1142  C748    1.404   1_565 S
C1143  C1167   1.500   .     S
C1143  C1145   1.414   .     A
C1143  C745    1.401   1_565 S
C1144  C1171   1.488   .     S
C1144  C1146   1.409   .     A
C1147  N1175   1.433   .     S
C1148  N1178   1.435   .     S
C1148  C1744   1.431   .     S
C1149  C1181   1.507   .     S
C1149  C1741   1.431   .     S
C1150  C1185   1.511   .     S
C1151  O1153   1.396   .     S
C1151  C1007   1.486   1_655 S
C1151  O1020   1.222   1_655 S
O1153  H1154   1.014   .     S
C1155  O1157   1.398   .     S
O1156  C1023   1.223   1_655 S
O1157  H1158   1.014   .     S
C1159  O1161   1.395   .     S
C1159  O1160   1.220   .     D
O1161  H1162   1.013   .     S
C1163  O1164   1.222   .     D
C1163  O1165   1.393   .     S
O1165  H1166   1.013   .     S
C1167  O1169   1.400   .     S
C1167  O1168   1.222   .     D
O1169  H1170   1.014   .     S
C1171  O1172   1.224   .     D
C1171  O1173   1.392   .     S
O1173  H1174   1.014   .     S
N1175  O1177   1.300   .     A
N1175  O1176   1.299   .     A
N1178  O1180   1.298   .     A
N1178  O1179   1.300   .     A
C1181  O1182   1.213   .     D
C1181  O1183   1.400   .     S
O1183  H1184   1.014   .     S
C1185  O1187   1.398   .     S
C1185  O1186   1.211   .     D
O1187  H1188   1.014   .     S
O1189  C1193   1.311   .     A
O1189  Cu1201  1.962   .     S
O1190  C1194   1.314   .     A
O1190  Cu1202  1.962   .     S
O1191  Cu1202  1.966   .     S
O1191  C1193   1.309   .     A
O1192  C1194   1.308   .     A
O1192  Cu1201  1.966   .     S
C1193  C1212   1.480   .     S
C1194  C1211   1.484   .     S
O1195  Cu1201  2.004   .     S
O1195  C1199   1.296   .     A
O1196  C1200   1.297   .     A
O1196  Cu1202  2.004   .     S
O1197  Cu1202  2.004   .     S
O1197  C1199   1.308   .     A
O1198  C1200   1.308   .     A
O1198  Cu1201  2.004   .     S
C1199  C1205   1.452   .     S
C1200  C1206   1.454   .     S
Cu1201 Cu1202  2.717   .     S
Cu1201 N1203   2.042   .     S
Cu1202 N1204   2.042   .     S
N1203  C1215   1.398   .     A
N1203  C1214   1.365   .     A
N1204  C1216   1.399   .     A
N1204  C1213   1.365   .     A
C1205  C1338   1.372   1_455 S
C1205  C1349   1.486   1_455 S
C1206  C1271   1.372   .     S
C1206  C1287   1.487   .     S
C1207  C1212   1.409   .     A
C1207  C1225   1.493   .     S
C1207  C1605   1.401   1_545 S
C1208  C1211   1.419   .     A
C1208  C1229   1.482   .     S
C1208  C1408   1.404   .     S
C1209  C1233   1.500   .     S
C1209  C1211   1.414   .     A
C1209  C1405   1.401   .     S
C1210  C1237   1.488   .     S
C1210  C1212   1.409   .     A
C1210  C1604   1.404   1_545 S
C1213  N1241   1.433   .     S
C1214  N1244   1.435   .     S
C1214  C28     1.431   1_556 S
C1215  C1247   1.507   .     S
C1215  C25     1.431   1_556 S
C1216  C1251   1.511   .     S
C1217  O1219   1.396   .     S
C1217  C1271   1.486   .     S
C1217  O1284   1.222   .     S
O1218  C1349   1.222   1_455 S
O1219  H1220   1.014   .     S
C1221  O1223   1.398   .     S
C1221  C1338   1.487   1_455 S
C1221  O1354   1.223   1_455 S
O1222  C1287   1.223   .     S
O1223  H1224   1.014   .     S
C1225  O1227   1.395   .     S
C1225  O1226   1.220   .     D
O1227  H1228   1.013   .     S
C1229  O1230   1.222   .     D
C1229  O1231   1.393   .     S
O1231  H1232   1.013   .     S
C1233  O1235   1.400   .     S
C1233  O1234   1.222   .     D
O1235  H1236   1.014   .     S
C1237  O1238   1.224   .     D
C1237  O1239   1.392   .     S
O1239  H1240   1.014   .     S
N1241  O1243   1.300   .     A
N1241  O1242   1.299   .     A
N1244  O1246   1.298   .     A
N1244  O1245   1.300   .     A
C1247  O1248   1.213   .     D
C1247  O1249   1.400   .     S
O1249  H1250   1.014   .     S
C1251  O1253   1.398   .     S
C1251  O1252   1.211   .     D
O1253  H1254   1.014   .     S
O1255  C1259   1.311   .     A
O1255  Cu1267  1.962   .     S
O1256  C1260   1.314   .     A
O1256  Cu1268  1.962   .     S
O1257  Cu1268  1.966   .     S
O1257  C1259   1.309   .     A
O1258  C1260   1.308   .     A
O1258  Cu1267  1.966   .     S
C1259  C1278   1.480   .     S
C1260  C1277   1.484   .     S
O1261  Cu1267  2.004   .     S
O1261  C1265   1.296   .     A
O1262  C1266   1.297   .     A
O1262  Cu1268  2.004   .     S
O1263  Cu1268  2.004   .     S
O1263  C1265   1.308   .     A
O1264  C1266   1.308   .     A
O1264  Cu1267  2.004   .     S
C1265  C1271   1.452   .     S
C1266  C1272   1.454   .     S
Cu1267 Cu1268  2.717   .     S
Cu1267 N1269   2.042   .     S
Cu1268 N1270   2.042   .     S
N1269  C1281   1.398   .     A
N1269  C1280   1.365   .     A
N1270  C1282   1.399   .     A
N1270  C1279   1.365   .     A
C1272  C1337   1.372   .     S
C1272  C1353   1.487   .     S
C1273  C1278   1.409   .     A
C1273  C1291   1.493   .     S
C1273  C1671   1.401   1_545 S
C1274  C1277   1.419   .     A
C1274  C1295   1.482   .     S
C1274  C1474   1.404   .     S
C1275  C1299   1.500   .     S
C1275  C1277   1.414   .     A
C1275  C1471   1.401   .     S
C1276  C1303   1.488   .     S
C1276  C1278   1.409   .     A
C1276  C1670   1.404   1_545 S
C1279  N1307   1.433   .     S
C1280  N1310   1.435   .     S
C1280  C94     1.431   1_556 S
C1281  C1313   1.507   .     S
C1281  C91     1.431   1_556 S
C1282  C1317   1.511   .     S
C1283  O1285   1.396   .     S
C1283  C1337   1.486   .     S
C1283  O1350   1.222   .     S
O1285  H1286   1.014   .     S
C1287  O1289   1.398   .     S
O1288  C1353   1.223   .     S
O1289  H1290   1.014   .     S
C1291  O1293   1.395   .     S
C1291  O1292   1.220   .     D
O1293  H1294   1.013   .     S
C1295  O1296   1.222   .     D
C1295  O1297   1.393   .     S
O1297  H1298   1.013   .     S
C1299  O1301   1.400   .     S
C1299  O1300   1.222   .     D
O1301  H1302   1.014   .     S
C1303  O1304   1.224   .     D
C1303  O1305   1.392   .     S
O1305  H1306   1.014   .     S
N1307  O1309   1.300   .     A
N1307  O1308   1.299   .     A
N1310  O1312   1.298   .     A
N1310  O1311   1.300   .     A
C1313  O1314   1.213   .     D
C1313  O1315   1.400   .     S
O1315  H1316   1.014   .     S
C1317  O1319   1.398   .     S
C1317  O1318   1.211   .     D
O1319  H1320   1.014   .     S
O1321  C1325   1.311   .     A
O1321  Cu1333  1.962   .     S
O1322  C1326   1.314   .     A
O1322  Cu1334  1.962   .     S
O1323  Cu1334  1.966   .     S
O1323  C1325   1.309   .     A
O1324  C1326   1.308   .     A
O1324  Cu1333  1.966   .     S
C1325  C1344   1.480   .     S
C1326  C1343   1.484   .     S
O1327  Cu1333  2.004   .     S
O1327  C1331   1.296   .     A
O1328  C1332   1.297   .     A
O1328  Cu1334  2.004   .     S
O1329  Cu1334  2.004   .     S
O1329  C1331   1.308   .     A
O1330  C1332   1.308   .     A
O1330  Cu1333  2.004   .     S
C1331  C1337   1.452   .     S
C1332  C1338   1.454   .     S
Cu1333 Cu1334  2.717   .     S
Cu1333 N1335   2.042   .     S
Cu1334 N1336   2.042   .     S
N1335  C1347   1.398   .     A
N1335  C1346   1.365   .     A
N1336  C1348   1.399   .     A
N1336  C1345   1.365   .     A
C1338  C1205   1.372   1_655 S
C1338  C1221   1.487   1_655 S
C1339  C1344   1.409   .     A
C1339  C1357   1.493   .     S
C1339  C1737   1.401   1_545 S
C1340  C1343   1.419   .     A
C1340  C1361   1.482   .     S
C1340  C1540   1.404   .     S
C1341  C1365   1.500   .     S
C1341  C1343   1.414   .     A
C1341  C1537   1.401   .     S
C1342  C1369   1.488   .     S
C1342  C1344   1.409   .     A
C1342  C1736   1.404   1_545 S
C1345  N1373   1.433   .     S
C1346  N1376   1.435   .     S
C1346  C160    1.431   1_556 S
C1347  C1379   1.507   .     S
C1347  C157    1.431   1_556 S
C1348  C1383   1.511   .     S
C1349  O1351   1.396   .     S
C1349  C1205   1.486   1_655 S
C1349  O1218   1.222   1_655 S
O1351  H1352   1.014   .     S
C1353  O1355   1.398   .     S
O1354  C1221   1.223   1_655 S
O1355  H1356   1.014   .     S
C1357  O1359   1.395   .     S
C1357  O1358   1.220   .     D
O1359  H1360   1.013   .     S
C1361  O1362   1.222   .     D
C1361  O1363   1.393   .     S
O1363  H1364   1.013   .     S
C1365  O1367   1.400   .     S
C1365  O1366   1.222   .     D
O1367  H1368   1.014   .     S
C1369  O1370   1.224   .     D
C1369  O1371   1.392   .     S
O1371  H1372   1.014   .     S
N1373  O1375   1.300   .     A
N1373  O1374   1.299   .     A
N1376  O1378   1.298   .     A
N1376  O1377   1.300   .     A
C1379  O1380   1.213   .     D
C1379  O1381   1.400   .     S
O1381  H1382   1.014   .     S
C1383  O1385   1.398   .     S
C1383  O1384   1.211   .     D
O1385  H1386   1.014   .     S
O1387  C1391   1.311   .     A
O1387  Cu1399  1.962   .     S
O1388  C1392   1.314   .     A
O1388  Cu1400  1.962   .     S
O1389  Cu1400  1.966   .     S
O1389  C1391   1.309   .     A
O1390  C1392   1.308   .     A
O1390  Cu1399  1.966   .     S
C1391  C1410   1.480   .     S
C1392  C1409   1.484   .     S
O1393  Cu1399  2.004   .     S
O1393  C1397   1.296   .     A
O1394  C1398   1.297   .     A
O1394  Cu1400  2.004   .     S
O1395  Cu1400  2.004   .     S
O1395  C1397   1.308   .     A
O1396  C1398   1.308   .     A
O1396  Cu1399  2.004   .     S
C1397  C1403   1.452   .     S
C1398  C1404   1.454   .     S
Cu1399 Cu1400  2.717   .     S
Cu1399 N1401   2.042   .     S
Cu1400 N1402   2.042   .     S
N1401  C1413   1.398   .     A
N1401  C1412   1.365   .     A
N1402  C1414   1.399   .     A
N1402  C1411   1.365   .     A
C1403  C1536   1.372   1_455 S
C1403  C1547   1.486   1_455 S
C1404  C1469   1.372   .     S
C1404  C1485   1.487   .     S
C1405  C1410   1.409   .     A
C1405  C1423   1.493   .     S
C1406  C1409   1.419   .     A
C1406  C1427   1.482   .     S
C1406  C1606   1.404   .     S
C1407  C1431   1.500   .     S
C1407  C1409   1.414   .     A
C1407  C1603   1.401   .     S
C1408  C1435   1.488   .     S
C1408  C1410   1.409   .     A
C1411  N1439   1.433   .     S
C1412  N1442   1.435   .     S
C1412  C226    1.431   1_556 S
C1413  C1445   1.507   .     S
C1413  C223    1.431   1_556 S
C1414  C1449   1.511   .     S
C1415  O1417   1.396   .     S
C1415  C1469   1.486   .     S
C1415  O1482   1.222   .     S
O1416  C1547   1.222   1_455 S
O1417  H1418   1.014   .     S
C1419  O1421   1.398   .     S
C1419  C1536   1.487   1_455 S
C1419  O1552   1.223   1_455 S
O1420  C1485   1.223   .     S
O1421  H1422   1.014   .     S
C1423  O1425   1.395   .     S
C1423  O1424   1.220   .     D
O1425  H1426   1.013   .     S
C1427  O1428   1.222   .     D
C1427  O1429   1.393   .     S
O1429  H1430   1.013   .     S
C1431  O1433   1.400   .     S
C1431  O1432   1.222   .     D
O1433  H1434   1.014   .     S
C1435  O1436   1.224   .     D
C1435  O1437   1.392   .     S
O1437  H1438   1.014   .     S
N1439  O1441   1.300   .     A
N1439  O1440   1.299   .     A
N1442  O1444   1.298   .     A
N1442  O1443   1.300   .     A
C1445  O1446   1.213   .     D
C1445  O1447   1.400   .     S
O1447  H1448   1.014   .     S
C1449  O1451   1.398   .     S
C1449  O1450   1.211   .     D
O1451  H1452   1.014   .     S
O1453  C1457   1.311   .     A
O1453  Cu1465  1.962   .     S
O1454  C1458   1.314   .     A
O1454  Cu1466  1.962   .     S
O1455  Cu1466  1.966   .     S
O1455  C1457   1.309   .     A
O1456  C1458   1.308   .     A
O1456  Cu1465  1.966   .     S
C1457  C1476   1.480   .     S
C1458  C1475   1.484   .     S
O1459  Cu1465  2.004   .     S
O1459  C1463   1.296   .     A
O1460  C1464   1.297   .     A
O1460  Cu1466  2.004   .     S
O1461  Cu1466  2.004   .     S
O1461  C1463   1.308   .     A
O1462  C1464   1.308   .     A
O1462  Cu1465  2.004   .     S
C1463  C1469   1.452   .     S
C1464  C1470   1.454   .     S
Cu1465 Cu1466  2.717   .     S
Cu1465 N1467   2.042   .     S
Cu1466 N1468   2.042   .     S
N1467  C1479   1.398   .     A
N1467  C1478   1.365   .     A
N1468  C1480   1.399   .     A
N1468  C1477   1.365   .     A
C1470  C1535   1.372   .     S
C1470  C1551   1.487   .     S
C1471  C1476   1.409   .     A
C1471  C1489   1.493   .     S
C1472  C1475   1.419   .     A
C1472  C1493   1.482   .     S
C1472  C1672   1.404   .     S
C1473  C1497   1.500   .     S
C1473  C1475   1.414   .     A
C1473  C1669   1.401   .     S
C1474  C1501   1.488   .     S
C1474  C1476   1.409   .     A
C1477  N1505   1.433   .     S
C1478  N1508   1.435   .     S
C1478  C292    1.431   1_556 S
C1479  C1511   1.507   .     S
C1479  C289    1.431   1_556 S
C1480  C1515   1.511   .     S
C1481  O1483   1.396   .     S
C1481  C1535   1.486   .     S
C1481  O1548   1.222   .     S
O1483  H1484   1.014   .     S
C1485  O1487   1.398   .     S
O1486  C1551   1.223   .     S
O1487  H1488   1.014   .     S
C1489  O1491   1.395   .     S
C1489  O1490   1.220   .     D
O1491  H1492   1.013   .     S
C1493  O1494   1.222   .     D
C1493  O1495   1.393   .     S
O1495  H1496   1.013   .     S
C1497  O1499   1.400   .     S
C1497  O1498   1.222   .     D
O1499  H1500   1.014   .     S
C1501  O1502   1.224   .     D
C1501  O1503   1.392   .     S
O1503  H1504   1.014   .     S
N1505  O1507   1.300   .     A
N1505  O1506   1.299   .     A
N1508  O1510   1.298   .     A
N1508  O1509   1.300   .     A
C1511  O1512   1.213   .     D
C1511  O1513   1.400   .     S
O1513  H1514   1.014   .     S
C1515  O1517   1.398   .     S
C1515  O1516   1.211   .     D
O1517  H1518   1.014   .     S
O1519  C1523   1.311   .     A
O1519  Cu1531  1.962   .     S
O1520  C1524   1.314   .     A
O1520  Cu1532  1.962   .     S
O1521  Cu1532  1.966   .     S
O1521  C1523   1.309   .     A
O1522  C1524   1.308   .     A
O1522  Cu1531  1.966   .     S
C1523  C1542   1.480   .     S
C1524  C1541   1.484   .     S
O1525  Cu1531  2.004   .     S
O1525  C1529   1.296   .     A
O1526  C1530   1.297   .     A
O1526  Cu1532  2.004   .     S
O1527  Cu1532  2.004   .     S
O1527  C1529   1.308   .     A
O1528  C1530   1.308   .     A
O1528  Cu1531  2.004   .     S
C1529  C1535   1.452   .     S
C1530  C1536   1.454   .     S
Cu1531 Cu1532  2.717   .     S
Cu1531 N1533   2.042   .     S
Cu1532 N1534   2.042   .     S
N1533  C1545   1.398   .     A
N1533  C1544   1.365   .     A
N1534  C1546   1.399   .     A
N1534  C1543   1.365   .     A
C1536  C1403   1.372   1_655 S
C1536  C1419   1.487   1_655 S
C1537  C1542   1.409   .     A
C1537  C1555   1.493   .     S
C1538  C1541   1.419   .     A
C1538  C1559   1.482   .     S
C1538  C1738   1.404   .     S
C1539  C1563   1.500   .     S
C1539  C1541   1.414   .     A
C1539  C1735   1.401   .     S
C1540  C1567   1.488   .     S
C1540  C1542   1.409   .     A
C1543  N1571   1.433   .     S
C1544  N1574   1.435   .     S
C1544  C358    1.431   1_556 S
C1545  C1577   1.507   .     S
C1545  C355    1.431   1_556 S
C1546  C1581   1.511   .     S
C1547  O1549   1.396   .     S
C1547  C1403   1.486   1_655 S
C1547  O1416   1.222   1_655 S
O1549  H1550   1.014   .     S
C1551  O1553   1.398   .     S
O1552  C1419   1.223   1_655 S
O1553  H1554   1.014   .     S
C1555  O1557   1.395   .     S
C1555  O1556   1.220   .     D
O1557  H1558   1.013   .     S
C1559  O1560   1.222   .     D
C1559  O1561   1.393   .     S
O1561  H1562   1.013   .     S
C1563  O1565   1.400   .     S
C1563  O1564   1.222   .     D
O1565  H1566   1.014   .     S
C1567  O1568   1.224   .     D
C1567  O1569   1.392   .     S
O1569  H1570   1.014   .     S
N1571  O1573   1.300   .     A
N1571  O1572   1.299   .     A
N1574  O1576   1.298   .     A
N1574  O1575   1.300   .     A
C1577  O1578   1.213   .     D
C1577  O1579   1.400   .     S
O1579  H1580   1.014   .     S
C1581  O1583   1.398   .     S
C1581  O1582   1.211   .     D
O1583  H1584   1.014   .     S
O1585  C1589   1.311   .     A
O1585  Cu1597  1.962   .     S
O1586  C1590   1.314   .     A
O1586  Cu1598  1.962   .     S
O1587  Cu1598  1.966   .     S
O1587  C1589   1.309   .     A
O1588  C1590   1.308   .     A
O1588  Cu1597  1.966   .     S
C1589  C1608   1.480   .     S
C1590  C1607   1.484   .     S
O1591  Cu1597  2.004   .     S
O1591  C1595   1.296   .     A
O1592  C1596   1.297   .     A
O1592  Cu1598  2.004   .     S
O1593  Cu1598  2.004   .     S
O1593  C1595   1.308   .     A
O1594  C1596   1.308   .     A
O1594  Cu1597  2.004   .     S
C1595  C1601   1.452   .     S
C1596  C1602   1.454   .     S
Cu1597 Cu1598  2.717   .     S
Cu1597 N1599   2.042   .     S
Cu1598 N1600   2.042   .     S
N1599  C1611   1.398   .     A
N1599  C1610   1.365   .     A
N1600  C1612   1.399   .     A
N1600  C1609   1.365   .     A
C1601  C1734   1.372   1_455 S
C1601  C1745   1.486   1_455 S
C1602  C1667   1.372   .     S
C1602  C1683   1.487   .     S
C1603  C1608   1.409   .     A
C1603  C1621   1.493   .     S
C1604  C1607   1.419   .     A
C1604  C1625   1.482   .     S
C1604  C1210   1.404   1_565 S
C1605  C1629   1.500   .     S
C1605  C1607   1.414   .     A
C1605  C1207   1.401   1_565 S
C1606  C1633   1.488   .     S
C1606  C1608   1.409   .     A
C1609  N1637   1.433   .     S
C1610  N1640   1.435   .     S
C1610  C424    1.431   1_556 S
C1611  C1643   1.507   .     S
C1611  C421    1.431   1_556 S
C1612  C1647   1.511   .     S
C1613  O1615   1.396   .     S
C1613  C1667   1.486   .     S
C1613  O1680   1.222   .     S
O1614  C1745   1.222   1_455 S
O1615  H1616   1.014   .     S
C1617  O1619   1.398   .     S
C1617  C1734   1.487   1_455 S
C1617  O1750   1.223   1_455 S
O1618  C1683   1.223   .     S
O1619  H1620   1.014   .     S
C1621  O1623   1.395   .     S
C1621  O1622   1.220   .     D
O1623  H1624   1.013   .     S
C1625  O1626   1.222   .     D
C1625  O1627   1.393   .     S
O1627  H1628   1.013   .     S
C1629  O1631   1.400   .     S
C1629  O1630   1.222   .     D
O1631  H1632   1.014   .     S
C1633  O1634   1.224   .     D
C1633  O1635   1.392   .     S
O1635  H1636   1.014   .     S
N1637  O1639   1.300   .     A
N1637  O1638   1.299   .     A
N1640  O1642   1.298   .     A
N1640  O1641   1.300   .     A
C1643  O1644   1.213   .     D
C1643  O1645   1.400   .     S
O1645  H1646   1.014   .     S
C1647  O1649   1.398   .     S
C1647  O1648   1.211   .     D
O1649  H1650   1.014   .     S
O1651  C1655   1.311   .     A
O1651  Cu1663  1.962   .     S
O1652  C1656   1.314   .     A
O1652  Cu1664  1.962   .     S
O1653  Cu1664  1.966   .     S
O1653  C1655   1.309   .     A
O1654  C1656   1.308   .     A
O1654  Cu1663  1.966   .     S
C1655  C1674   1.480   .     S
C1656  C1673   1.484   .     S
O1657  Cu1663  2.004   .     S
O1657  C1661   1.296   .     A
O1658  C1662   1.297   .     A
O1658  Cu1664  2.004   .     S
O1659  Cu1664  2.004   .     S
O1659  C1661   1.308   .     A
O1660  C1662   1.308   .     A
O1660  Cu1663  2.004   .     S
C1661  C1667   1.452   .     S
C1662  C1668   1.454   .     S
Cu1663 Cu1664  2.717   .     S
Cu1663 N1665   2.042   .     S
Cu1664 N1666   2.042   .     S
N1665  C1677   1.398   .     A
N1665  C1676   1.365   .     A
N1666  C1678   1.399   .     A
N1666  C1675   1.365   .     A
C1668  C1733   1.372   .     S
C1668  C1749   1.487   .     S
C1669  C1674   1.409   .     A
C1669  C1687   1.493   .     S
C1670  C1673   1.419   .     A
C1670  C1691   1.482   .     S
C1670  C1276   1.404   1_565 S
C1671  C1695   1.500   .     S
C1671  C1673   1.414   .     A
C1671  C1273   1.401   1_565 S
C1672  C1699   1.488   .     S
C1672  C1674   1.409   .     A
C1675  N1703   1.433   .     S
C1676  N1706   1.435   .     S
C1676  C490    1.431   1_556 S
C1677  C1709   1.507   .     S
C1677  C487    1.431   1_556 S
C1678  C1713   1.511   .     S
C1679  O1681   1.396   .     S
C1679  C1733   1.486   .     S
C1679  O1746   1.222   .     S
O1681  H1682   1.014   .     S
C1683  O1685   1.398   .     S
O1684  C1749   1.223   .     S
O1685  H1686   1.014   .     S
C1687  O1689   1.395   .     S
C1687  O1688   1.220   .     D
O1689  H1690   1.013   .     S
C1691  O1692   1.222   .     D
C1691  O1693   1.393   .     S
O1693  H1694   1.013   .     S
C1695  O1697   1.400   .     S
C1695  O1696   1.222   .     D
O1697  H1698   1.014   .     S
C1699  O1700   1.224   .     D
C1699  O1701   1.392   .     S
O1701  H1702   1.014   .     S
N1703  O1705   1.300   .     A
N1703  O1704   1.299   .     A
N1706  O1708   1.298   .     A
N1706  O1707   1.300   .     A
C1709  O1710   1.213   .     D
C1709  O1711   1.400   .     S
O1711  H1712   1.014   .     S
C1713  O1715   1.398   .     S
C1713  O1714   1.211   .     D
O1715  H1716   1.014   .     S
O1717  C1721   1.311   .     A
O1717  Cu1729  1.962   .     S
O1718  C1722   1.314   .     A
O1718  Cu1730  1.962   .     S
O1719  Cu1730  1.966   .     S
O1719  C1721   1.309   .     A
O1720  C1722   1.308   .     A
O1720  Cu1729  1.966   .     S
C1721  C1740   1.480   .     S
C1722  C1739   1.484   .     S
O1723  Cu1729  2.004   .     S
O1723  C1727   1.296   .     A
O1724  C1728   1.297   .     A
O1724  Cu1730  2.004   .     S
O1725  Cu1730  2.004   .     S
O1725  C1727   1.308   .     A
O1726  C1728   1.308   .     A
O1726  Cu1729  2.004   .     S
C1727  C1733   1.452   .     S
C1728  C1734   1.454   .     S
Cu1729 Cu1730  2.717   .     S
Cu1729 N1731   2.042   .     S
Cu1730 N1732   2.042   .     S
N1731  C1743   1.398   .     A
N1731  C1742   1.365   .     A
N1732  C1744   1.399   .     A
N1732  C1741   1.365   .     A
C1734  C1601   1.372   1_655 S
C1734  C1617   1.487   1_655 S
C1735  C1740   1.409   .     A
C1735  C1753   1.493   .     S
C1736  C1739   1.419   .     A
C1736  C1757   1.482   .     S
C1736  C1342   1.404   1_565 S
C1737  C1761   1.500   .     S
C1737  C1739   1.414   .     A
C1737  C1339   1.401   1_565 S
C1738  C1765   1.488   .     S
C1738  C1740   1.409   .     A
C1741  N1769   1.433   .     S
C1742  N1772   1.435   .     S
C1742  C556    1.431   1_556 S
C1743  C1775   1.507   .     S
C1743  C553    1.431   1_556 S
C1744  C1779   1.511   .     S
C1745  O1747   1.396   .     S
C1745  C1601   1.486   1_655 S
C1745  O1614   1.222   1_655 S
O1747  H1748   1.014   .     S
C1749  O1751   1.398   .     S
O1750  C1617   1.223   1_655 S
O1751  H1752   1.014   .     S
C1753  O1755   1.395   .     S
C1753  O1754   1.220   .     D
O1755  H1756   1.013   .     S
C1757  O1758   1.222   .     D
C1757  O1759   1.393   .     S
O1759  H1760   1.013   .     S
C1761  O1763   1.400   .     S
C1761  O1762   1.222   .     D
O1763  H1764   1.014   .     S
C1765  O1766   1.224   .     D
C1765  O1767   1.392   .     S
O1767  H1768   1.014   .     S
N1769  O1771   1.300   .     A
N1769  O1770   1.299   .     A
N1772  O1774   1.298   .     A
N1772  O1773   1.300   .     A
C1775  O1776   1.213   .     D
C1775  O1777   1.400   .     S
O1777  H1778   1.014   .     S
C1779  O1781   1.398   .     S
C1779  O1780   1.211   .     D
O1781  H1782   1.014   .     S
