data_str_m2_o1_o16_pcu_sym.134
_audit_creation_date              2020-01-03
_audit_creation_method            'Materials Studio'
_symmetry_space_group_name_H-M    'P1'
_symmetry_Int_Tables_number       1
_symmetry_cell_setting            triclinic
loop_
_symmetry_equiv_pos_as_xyz
  x,y,z
_cell_length_a                    28.7405
_cell_length_b                    32.3871
_cell_length_c                    26.8271
_cell_angle_alpha                 90.7953
_cell_angle_beta                  72.1948
_cell_angle_gamma                 88.8073
loop_
_atom_site_label
_atom_site_type_symbol
_atom_site_fract_x
_atom_site_fract_y
_atom_site_fract_z
_atom_site_U_iso_or_equiv
_atom_site_adp_type
_atom_site_occupancy
C1     C     0.16646   0.24591   0.24983   0.00000  Uiso   1.00
C2     C     0.14364   0.17180   0.49045   0.00000  Uiso   1.00
C3     C     0.15515   0.18208   0.43693   0.00000  Uiso   1.00
C4     C     0.17973   0.17700   0.01639   0.00000  Uiso   1.00
C5     C     0.22215   0.19964   0.49158   0.00000  Uiso   1.00
C6     C     0.22932   0.21461   0.44147   0.00000  Uiso   1.00
C7     C     0.19653   0.20589   0.41444   0.00000  Uiso   1.00
C8     C     0.17609   0.15961   0.06544   0.00000  Uiso   1.00
C9     C     0.24876   0.19528   0.06866   0.00000  Uiso   1.00
C10    C     0.12388   0.16952   0.40794   0.00000  Uiso   1.00
C11    C     0.20083   0.31148   0.26745   0.00000  Uiso   1.00
C12    C     0.14029   0.16827   0.35019   0.00000  Uiso   1.00
C13    C     0.20159   0.02085   0.26680   0.00000  Uiso   1.00
C14    C     0.16765   0.04281   0.24893   0.00000  Uiso   1.00
C15    C     0.13356   0.02190   0.23084   0.00000  Uiso   1.00
C16    C     0.13349   0.31255   0.23042   0.00000  Uiso   1.00
C17    C     0.16655   0.29057   0.24955   0.00000  Uiso   1.00
C18    C     0.29895   0.19580   0.27734   0.00000  Uiso   1.00
C19    C     0.01512   0.19775   0.27605   0.00000  Uiso   1.00
C20    C     0.03295   0.13641   0.22396   0.00000  Uiso   1.00
C21    C     0.31701   0.13678   0.22336   0.00000  Uiso   1.00
C22    C     0.16710   0.08744   0.24960   0.00000  Uiso   1.00
C23    C     0.19292   0.16696   0.15000   0.00000  Uiso   1.00
C24    C     0.25672   0.20777   0.01744   0.00000  Uiso   1.00
C25    C     0.20768   0.17237   0.09333   0.00000  Uiso   1.00
C26    C     0.07749   0.15476   0.43454   0.00000  Uiso   1.00
C27    C     0.06293   0.15107   0.48857   0.00000  Uiso   1.00
C28    C     0.09560   0.15903   0.01635   0.00000  Uiso   1.00
Cu29   Cu    0.11978   0.16666   0.25000   0.00000  Uiso   1.00
Cu30   Cu    0.21355   0.16667   0.25000   0.00000  Uiso   1.00
H31    H     0.27374   0.20472   0.08954   0.00000  Uiso   1.00
H32    H     0.22800   0.03666   0.28109   0.00000  Uiso   1.00
H33    H     0.10738   0.03851   0.21642   0.00000  Uiso   1.00
H34    H     0.10833   0.29691   0.21423   0.00000  Uiso   1.00
H35    H     0.27222   0.21897   0.29827   0.00000  Uiso   1.00
H36    H     0.05799   0.11224   0.20278   0.00000  Uiso   1.00
H37    H     0.30533   0.11286   0.20164   0.00000  Uiso   1.00
H38    H     0.26071   0.23286   0.42280   0.00000  Uiso   1.00
H39    H     0.28885   0.22538   0.49880   0.00000  Uiso   1.00
H40    H     0.05241   0.14584   0.41353   0.00000  Uiso   1.00
H41    H     0.08146   0.15707   0.05835   0.00000  Uiso   1.00
H42    H     0.02641   0.14112   0.00898   0.00000  Uiso   1.00
H43    H     0.20292   0.21975   0.37665   0.00000  Uiso   1.00
H44    H     0.22679   0.29487   0.28226   0.00000  Uiso   1.00
N45    N     0.04931   0.16666   0.24998   0.00000  Uiso   1.00
N46    N     0.28402   0.16669   0.25000   0.00000  Uiso   1.00
O47    O     0.12708   0.22678   0.25000   0.00000  Uiso   1.00
O48    O     0.20627   0.22679   0.25000   0.00000  Uiso   1.00
O49    O     0.10775   0.16665   0.32549   0.00000  Uiso   1.00
O50    O     0.18694   0.16666   0.32549   0.00000  Uiso   1.00
O51    O     0.12706   0.10654   0.25000   0.00000  Uiso   1.00
O52    O     0.20625   0.10655   0.25000   0.00000  Uiso   1.00
O53    O     0.14640   0.16667   0.17451   0.00000  Uiso   1.00
O54    O     0.22559   0.16668   0.17451   0.00000  Uiso   1.00
C55    C     0.02651   0.23898   0.29792   0.00000  Uiso   1.00
C56    C     0.03739   0.23727   0.35054   0.00000  Uiso   1.00
C57    C     0.02298   0.27775   0.38215   0.00000  Uiso   1.00
H58    H     0.04405   0.30356   0.35994   0.00000  Uiso   1.00
H59    H     0.31669   0.28495   0.39081   0.00000  Uiso   1.00
H60    H     0.03128   0.27508   0.41981   0.00000  Uiso   1.00
H61    H     0.01783   0.21147   0.37428   0.00000  Uiso   1.00
H62    H     0.07701   0.23340   0.34362   0.00000  Uiso   1.00
H63    H     0.05323   0.25619   0.26801   0.00000  Uiso   1.00
H64    H     0.32782   0.26058   0.30439   0.00000  Uiso   1.00
O65    O     0.14236   0.12966   0.08625   0.00000  Uiso   1.00
C66    C     0.16610   0.09044   0.07584   0.00000  Uiso   1.00
H67    H     0.19173   0.08665   0.09943   0.00000  Uiso   1.00
H68    H     0.18671   0.08618   0.03339   0.00000  Uiso   1.00
C69    C     0.12768   0.05716   0.09094   0.00000  Uiso   1.00
H70    H     0.10497   0.06220   0.13231   0.00000  Uiso   1.00
H71    H     0.10334   0.05949   0.06582   0.00000  Uiso   1.00
C72    C     0.15129   0.01396   0.08454   0.00000  Uiso   1.00
H73    H     0.17329   0.00786   0.04310   0.00000  Uiso   1.00
H74    H     0.12242   0.32393   0.09610   0.00000  Uiso   1.00
H75    H     0.17526   0.01080   0.10990   0.00000  Uiso   1.00
C76    C     0.49979   0.24591   0.24983   0.00000  Uiso   1.00
C77    C     0.47697   0.17180   0.49045   0.00000  Uiso   1.00
C78    C     0.48848   0.18208   0.43693   0.00000  Uiso   1.00
C79    C     0.51306   0.17700   0.01639   0.00000  Uiso   1.00
C80    C     0.55548   0.19964   0.49158   0.00000  Uiso   1.00
C81    C     0.56266   0.21461   0.44147   0.00000  Uiso   1.00
C82    C     0.52986   0.20589   0.41444   0.00000  Uiso   1.00
C83    C     0.50943   0.15961   0.06544   0.00000  Uiso   1.00
C84    C     0.58209   0.19528   0.06866   0.00000  Uiso   1.00
C85    C     0.45721   0.16952   0.40794   0.00000  Uiso   1.00
C86    C     0.53416   0.31148   0.26745   0.00000  Uiso   1.00
C87    C     0.47362   0.16827   0.35019   0.00000  Uiso   1.00
C88    C     0.53493   0.02085   0.26680   0.00000  Uiso   1.00
C89    C     0.50098   0.04281   0.24893   0.00000  Uiso   1.00
C90    C     0.46689   0.02190   0.23084   0.00000  Uiso   1.00
C91    C     0.46682   0.31255   0.23042   0.00000  Uiso   1.00
C92    C     0.49988   0.29057   0.24955   0.00000  Uiso   1.00
C93    C     0.63228   0.19580   0.27734   0.00000  Uiso   1.00
C94    C     0.34846   0.19775   0.27605   0.00000  Uiso   1.00
C95    C     0.36628   0.13641   0.22396   0.00000  Uiso   1.00
C96    C     0.65035   0.13678   0.22336   0.00000  Uiso   1.00
C97    C     0.50044   0.08744   0.24960   0.00000  Uiso   1.00
C98    C     0.52626   0.16696   0.15000   0.00000  Uiso   1.00
C99    C     0.59005   0.20777   0.01744   0.00000  Uiso   1.00
C100   C     0.54101   0.17237   0.09333   0.00000  Uiso   1.00
C101   C     0.41083   0.15476   0.43454   0.00000  Uiso   1.00
C102   C     0.39627   0.15107   0.48857   0.00000  Uiso   1.00
C103   C     0.42893   0.15903   0.01635   0.00000  Uiso   1.00
Cu104  Cu    0.45311   0.16666   0.25000   0.00000  Uiso   1.00
Cu105  Cu    0.54689   0.16667   0.25000   0.00000  Uiso   1.00
H106   H     0.60708   0.20472   0.08954   0.00000  Uiso   1.00
H107   H     0.56134   0.03666   0.28109   0.00000  Uiso   1.00
H108   H     0.44072   0.03851   0.21642   0.00000  Uiso   1.00
H109   H     0.44167   0.29691   0.21423   0.00000  Uiso   1.00
H110   H     0.60555   0.21897   0.29827   0.00000  Uiso   1.00
H111   H     0.39133   0.11224   0.20278   0.00000  Uiso   1.00
H112   H     0.63866   0.11286   0.20164   0.00000  Uiso   1.00
H113   H     0.59404   0.23286   0.42280   0.00000  Uiso   1.00
H114   H     0.62219   0.22538   0.49880   0.00000  Uiso   1.00
H115   H     0.38574   0.14584   0.41353   0.00000  Uiso   1.00
H116   H     0.41479   0.15707   0.05835   0.00000  Uiso   1.00
H117   H     0.35975   0.14112   0.00898   0.00000  Uiso   1.00
H118   H     0.53625   0.21975   0.37665   0.00000  Uiso   1.00
H119   H     0.56012   0.29487   0.28226   0.00000  Uiso   1.00
N120   N     0.38265   0.16666   0.24998   0.00000  Uiso   1.00
N121   N     0.61735   0.16669   0.25000   0.00000  Uiso   1.00
O122   O     0.46042   0.22678   0.25000   0.00000  Uiso   1.00
O123   O     0.53961   0.22679   0.25000   0.00000  Uiso   1.00
O124   O     0.44108   0.16665   0.32549   0.00000  Uiso   1.00
O125   O     0.52027   0.16666   0.32549   0.00000  Uiso   1.00
O126   O     0.46039   0.10654   0.25000   0.00000  Uiso   1.00
O127   O     0.53958   0.10655   0.25000   0.00000  Uiso   1.00
O128   O     0.47973   0.16667   0.17451   0.00000  Uiso   1.00
O129   O     0.55892   0.16668   0.17451   0.00000  Uiso   1.00
C130   C     0.35984   0.23898   0.29792   0.00000  Uiso   1.00
C131   C     0.37073   0.23727   0.35054   0.00000  Uiso   1.00
C132   C     0.35632   0.27775   0.38215   0.00000  Uiso   1.00
H133   H     0.37739   0.30356   0.35994   0.00000  Uiso   1.00
H134   H     0.65003   0.28495   0.39081   0.00000  Uiso   1.00
H135   H     0.36461   0.27508   0.41981   0.00000  Uiso   1.00
H136   H     0.35117   0.21147   0.37428   0.00000  Uiso   1.00
H137   H     0.41035   0.23340   0.34362   0.00000  Uiso   1.00
H138   H     0.38657   0.25619   0.26801   0.00000  Uiso   1.00
H139   H     0.66115   0.26058   0.30439   0.00000  Uiso   1.00
O140   O     0.47569   0.12966   0.08625   0.00000  Uiso   1.00
C141   C     0.49943   0.09044   0.07584   0.00000  Uiso   1.00
H142   H     0.52506   0.08665   0.09943   0.00000  Uiso   1.00
H143   H     0.52005   0.08618   0.03339   0.00000  Uiso   1.00
C144   C     0.46101   0.05716   0.09094   0.00000  Uiso   1.00
H145   H     0.43831   0.06220   0.13231   0.00000  Uiso   1.00
H146   H     0.43668   0.05949   0.06582   0.00000  Uiso   1.00
C147   C     0.48463   0.01396   0.08454   0.00000  Uiso   1.00
H148   H     0.50662   0.00786   0.04310   0.00000  Uiso   1.00
H149   H     0.45575   0.32393   0.09610   0.00000  Uiso   1.00
H150   H     0.50860   0.01080   0.10990   0.00000  Uiso   1.00
C151   C     0.83312   0.24591   0.24983   0.00000  Uiso   1.00
C152   C     0.81030   0.17180   0.49045   0.00000  Uiso   1.00
C153   C     0.82181   0.18208   0.43693   0.00000  Uiso   1.00
C154   C     0.84640   0.17700   0.01639   0.00000  Uiso   1.00
C155   C     0.88882   0.19964   0.49158   0.00000  Uiso   1.00
C156   C     0.89599   0.21461   0.44147   0.00000  Uiso   1.00
C157   C     0.86319   0.20589   0.41444   0.00000  Uiso   1.00
C158   C     0.84276   0.15961   0.06544   0.00000  Uiso   1.00
C159   C     0.91542   0.19528   0.06866   0.00000  Uiso   1.00
C160   C     0.79055   0.16952   0.40794   0.00000  Uiso   1.00
C161   C     0.86750   0.31148   0.26745   0.00000  Uiso   1.00
C162   C     0.80695   0.16827   0.35019   0.00000  Uiso   1.00
C163   C     0.86826   0.02085   0.26680   0.00000  Uiso   1.00
C164   C     0.83431   0.04281   0.24893   0.00000  Uiso   1.00
C165   C     0.80022   0.02190   0.23084   0.00000  Uiso   1.00
C166   C     0.80016   0.31255   0.23042   0.00000  Uiso   1.00
C167   C     0.83321   0.29057   0.24955   0.00000  Uiso   1.00
C168   C     0.96561   0.19580   0.27734   0.00000  Uiso   1.00
C169   C     0.68179   0.19775   0.27605   0.00000  Uiso   1.00
C170   C     0.69961   0.13641   0.22396   0.00000  Uiso   1.00
C171   C     0.98368   0.13678   0.22336   0.00000  Uiso   1.00
C172   C     0.83377   0.08744   0.24960   0.00000  Uiso   1.00
C173   C     0.85959   0.16696   0.15000   0.00000  Uiso   1.00
C174   C     0.92338   0.20777   0.01744   0.00000  Uiso   1.00
C175   C     0.87434   0.17237   0.09333   0.00000  Uiso   1.00
C176   C     0.74416   0.15476   0.43454   0.00000  Uiso   1.00
C177   C     0.72960   0.15107   0.48857   0.00000  Uiso   1.00
C178   C     0.76227   0.15903   0.01635   0.00000  Uiso   1.00
Cu179  Cu    0.78645   0.16666   0.25000   0.00000  Uiso   1.00
Cu180  Cu    0.88022   0.16667   0.25000   0.00000  Uiso   1.00
H181   H     0.94041   0.20472   0.08954   0.00000  Uiso   1.00
H182   H     0.89467   0.03666   0.28109   0.00000  Uiso   1.00
H183   H     0.77405   0.03851   0.21642   0.00000  Uiso   1.00
H184   H     0.77500   0.29691   0.21423   0.00000  Uiso   1.00
H185   H     0.93888   0.21897   0.29827   0.00000  Uiso   1.00
H186   H     0.72466   0.11224   0.20278   0.00000  Uiso   1.00
H187   H     0.97200   0.11286   0.20164   0.00000  Uiso   1.00
H188   H     0.92738   0.23286   0.42280   0.00000  Uiso   1.00
H189   H     0.95552   0.22538   0.49880   0.00000  Uiso   1.00
H190   H     0.71908   0.14584   0.41353   0.00000  Uiso   1.00
H191   H     0.74812   0.15707   0.05835   0.00000  Uiso   1.00
H192   H     0.69308   0.14112   0.00898   0.00000  Uiso   1.00
H193   H     0.86958   0.21975   0.37665   0.00000  Uiso   1.00
H194   H     0.89346   0.29487   0.28226   0.00000  Uiso   1.00
N195   N     0.71598   0.16666   0.24998   0.00000  Uiso   1.00
N196   N     0.95069   0.16669   0.25000   0.00000  Uiso   1.00
O197   O     0.79375   0.22678   0.25000   0.00000  Uiso   1.00
O198   O     0.87294   0.22679   0.25000   0.00000  Uiso   1.00
O199   O     0.77441   0.16665   0.32549   0.00000  Uiso   1.00
O200   O     0.85360   0.16666   0.32549   0.00000  Uiso   1.00
O201   O     0.79373   0.10654   0.25000   0.00000  Uiso   1.00
O202   O     0.87292   0.10655   0.25000   0.00000  Uiso   1.00
O203   O     0.81306   0.16667   0.17451   0.00000  Uiso   1.00
O204   O     0.89225   0.16668   0.17451   0.00000  Uiso   1.00
C205   C     0.69318   0.23898   0.29792   0.00000  Uiso   1.00
C206   C     0.70406   0.23727   0.35054   0.00000  Uiso   1.00
C207   C     0.68965   0.27775   0.38215   0.00000  Uiso   1.00
H208   H     0.71072   0.30356   0.35994   0.00000  Uiso   1.00
H209   H     0.98336   0.28495   0.39081   0.00000  Uiso   1.00
H210   H     0.69794   0.27508   0.41981   0.00000  Uiso   1.00
H211   H     0.68450   0.21147   0.37428   0.00000  Uiso   1.00
H212   H     0.74368   0.23340   0.34362   0.00000  Uiso   1.00
H213   H     0.71990   0.25619   0.26801   0.00000  Uiso   1.00
H214   H     0.99449   0.26058   0.30439   0.00000  Uiso   1.00
O215   O     0.80902   0.12966   0.08625   0.00000  Uiso   1.00
C216   C     0.83277   0.09044   0.07584   0.00000  Uiso   1.00
H217   H     0.85839   0.08665   0.09943   0.00000  Uiso   1.00
H218   H     0.85338   0.08618   0.03339   0.00000  Uiso   1.00
C219   C     0.79434   0.05716   0.09094   0.00000  Uiso   1.00
H220   H     0.77164   0.06220   0.13231   0.00000  Uiso   1.00
H221   H     0.77001   0.05949   0.06582   0.00000  Uiso   1.00
C222   C     0.81796   0.01396   0.08454   0.00000  Uiso   1.00
H223   H     0.83995   0.00786   0.04310   0.00000  Uiso   1.00
H224   H     0.78908   0.32393   0.09610   0.00000  Uiso   1.00
H225   H     0.84193   0.01080   0.10990   0.00000  Uiso   1.00
C226   C     0.16646   0.57924   0.24983   0.00000  Uiso   1.00
C227   C     0.14364   0.50513   0.49045   0.00000  Uiso   1.00
C228   C     0.15515   0.51541   0.43693   0.00000  Uiso   1.00
C229   C     0.17973   0.51034   0.01639   0.00000  Uiso   1.00
C230   C     0.22215   0.53298   0.49158   0.00000  Uiso   1.00
C231   C     0.22932   0.54794   0.44147   0.00000  Uiso   1.00
C232   C     0.19653   0.53922   0.41444   0.00000  Uiso   1.00
C233   C     0.17609   0.49294   0.06544   0.00000  Uiso   1.00
C234   C     0.24876   0.52861   0.06866   0.00000  Uiso   1.00
C235   C     0.12388   0.50285   0.40794   0.00000  Uiso   1.00
C236   C     0.20083   0.64481   0.26745   0.00000  Uiso   1.00
C237   C     0.14029   0.50160   0.35019   0.00000  Uiso   1.00
C238   C     0.20159   0.35419   0.26680   0.00000  Uiso   1.00
C239   C     0.16765   0.37614   0.24893   0.00000  Uiso   1.00
C240   C     0.13356   0.35524   0.23084   0.00000  Uiso   1.00
C241   C     0.13349   0.64588   0.23042   0.00000  Uiso   1.00
C242   C     0.16655   0.62390   0.24955   0.00000  Uiso   1.00
C243   C     0.29895   0.52913   0.27734   0.00000  Uiso   1.00
C244   C     0.01512   0.53109   0.27605   0.00000  Uiso   1.00
C245   C     0.03295   0.46974   0.22396   0.00000  Uiso   1.00
C246   C     0.31701   0.47011   0.22336   0.00000  Uiso   1.00
C247   C     0.16710   0.42077   0.24960   0.00000  Uiso   1.00
C248   C     0.19292   0.50030   0.15000   0.00000  Uiso   1.00
C249   C     0.25672   0.54110   0.01744   0.00000  Uiso   1.00
C250   C     0.20768   0.50570   0.09333   0.00000  Uiso   1.00
C251   C     0.07749   0.48809   0.43454   0.00000  Uiso   1.00
C252   C     0.06293   0.48440   0.48857   0.00000  Uiso   1.00
C253   C     0.09560   0.49236   0.01635   0.00000  Uiso   1.00
Cu254  Cu    0.11978   0.49999   0.25000   0.00000  Uiso   1.00
Cu255  Cu    0.21355   0.50001   0.25000   0.00000  Uiso   1.00
H256   H     0.27374   0.53806   0.08954   0.00000  Uiso   1.00
H257   H     0.22800   0.36999   0.28109   0.00000  Uiso   1.00
H258   H     0.10738   0.37184   0.21642   0.00000  Uiso   1.00
H259   H     0.10833   0.63024   0.21423   0.00000  Uiso   1.00
H260   H     0.27222   0.55230   0.29827   0.00000  Uiso   1.00
H261   H     0.05799   0.44557   0.20278   0.00000  Uiso   1.00
H262   H     0.30533   0.44620   0.20164   0.00000  Uiso   1.00
H263   H     0.26071   0.56620   0.42280   0.00000  Uiso   1.00
H264   H     0.28885   0.55871   0.49880   0.00000  Uiso   1.00
H265   H     0.05241   0.47918   0.41353   0.00000  Uiso   1.00
H266   H     0.08146   0.49040   0.05835   0.00000  Uiso   1.00
H267   H     0.02641   0.47445   0.00898   0.00000  Uiso   1.00
H268   H     0.20292   0.55308   0.37665   0.00000  Uiso   1.00
H269   H     0.22679   0.62820   0.28226   0.00000  Uiso   1.00
N270   N     0.04931   0.49999   0.24998   0.00000  Uiso   1.00
N271   N     0.28402   0.50002   0.25000   0.00000  Uiso   1.00
O272   O     0.12708   0.56011   0.25000   0.00000  Uiso   1.00
O273   O     0.20627   0.56012   0.25000   0.00000  Uiso   1.00
O274   O     0.10775   0.49998   0.32549   0.00000  Uiso   1.00
O275   O     0.18694   0.49999   0.32549   0.00000  Uiso   1.00
O276   O     0.12706   0.43988   0.25000   0.00000  Uiso   1.00
O277   O     0.20625   0.43989   0.25000   0.00000  Uiso   1.00
O278   O     0.14640   0.50001   0.17451   0.00000  Uiso   1.00
O279   O     0.22559   0.50002   0.17451   0.00000  Uiso   1.00
C280   C     0.02651   0.57231   0.29792   0.00000  Uiso   1.00
C281   C     0.03739   0.57061   0.35054   0.00000  Uiso   1.00
C282   C     0.02298   0.61108   0.38215   0.00000  Uiso   1.00
H283   H     0.04405   0.63690   0.35994   0.00000  Uiso   1.00
H284   H     0.31669   0.61829   0.39081   0.00000  Uiso   1.00
H285   H     0.03128   0.60841   0.41981   0.00000  Uiso   1.00
H286   H     0.01783   0.54480   0.37428   0.00000  Uiso   1.00
H287   H     0.07701   0.56673   0.34362   0.00000  Uiso   1.00
H288   H     0.05323   0.58952   0.26801   0.00000  Uiso   1.00
H289   H     0.32782   0.59392   0.30439   0.00000  Uiso   1.00
O290   O     0.14236   0.46299   0.08625   0.00000  Uiso   1.00
C291   C     0.16610   0.42377   0.07584   0.00000  Uiso   1.00
H292   H     0.19173   0.41998   0.09943   0.00000  Uiso   1.00
H293   H     0.18671   0.41951   0.03339   0.00000  Uiso   1.00
C294   C     0.12768   0.39049   0.09094   0.00000  Uiso   1.00
H295   H     0.10497   0.39553   0.13231   0.00000  Uiso   1.00
H296   H     0.10334   0.39283   0.06582   0.00000  Uiso   1.00
C297   C     0.15129   0.34729   0.08454   0.00000  Uiso   1.00
H298   H     0.17329   0.34119   0.04310   0.00000  Uiso   1.00
H299   H     0.12242   0.65726   0.09610   0.00000  Uiso   1.00
H300   H     0.17526   0.34414   0.10990   0.00000  Uiso   1.00
C301   C     0.49979   0.57924   0.24983   0.00000  Uiso   1.00
C302   C     0.47697   0.50513   0.49045   0.00000  Uiso   1.00
C303   C     0.48848   0.51541   0.43693   0.00000  Uiso   1.00
C304   C     0.51306   0.51034   0.01639   0.00000  Uiso   1.00
C305   C     0.55548   0.53298   0.49158   0.00000  Uiso   1.00
C306   C     0.56266   0.54794   0.44147   0.00000  Uiso   1.00
C307   C     0.52986   0.53922   0.41444   0.00000  Uiso   1.00
C308   C     0.50943   0.49294   0.06544   0.00000  Uiso   1.00
C309   C     0.58209   0.52861   0.06866   0.00000  Uiso   1.00
C310   C     0.45721   0.50285   0.40794   0.00000  Uiso   1.00
C311   C     0.53416   0.64481   0.26745   0.00000  Uiso   1.00
C312   C     0.47362   0.50160   0.35019   0.00000  Uiso   1.00
C313   C     0.53493   0.35419   0.26680   0.00000  Uiso   1.00
C314   C     0.50098   0.37614   0.24893   0.00000  Uiso   1.00
C315   C     0.46689   0.35524   0.23084   0.00000  Uiso   1.00
C316   C     0.46682   0.64588   0.23042   0.00000  Uiso   1.00
C317   C     0.49988   0.62390   0.24955   0.00000  Uiso   1.00
C318   C     0.63228   0.52913   0.27734   0.00000  Uiso   1.00
C319   C     0.34846   0.53109   0.27605   0.00000  Uiso   1.00
C320   C     0.36628   0.46974   0.22396   0.00000  Uiso   1.00
C321   C     0.65035   0.47011   0.22336   0.00000  Uiso   1.00
C322   C     0.50044   0.42077   0.24960   0.00000  Uiso   1.00
C323   C     0.52626   0.50030   0.15000   0.00000  Uiso   1.00
C324   C     0.59005   0.54110   0.01744   0.00000  Uiso   1.00
C325   C     0.54101   0.50570   0.09333   0.00000  Uiso   1.00
C326   C     0.41083   0.48809   0.43454   0.00000  Uiso   1.00
C327   C     0.39627   0.48440   0.48857   0.00000  Uiso   1.00
C328   C     0.42893   0.49236   0.01635   0.00000  Uiso   1.00
Cu329  Cu    0.45311   0.49999   0.25000   0.00000  Uiso   1.00
Cu330  Cu    0.54689   0.50001   0.25000   0.00000  Uiso   1.00
H331   H     0.60708   0.53806   0.08954   0.00000  Uiso   1.00
H332   H     0.56134   0.36999   0.28109   0.00000  Uiso   1.00
H333   H     0.44072   0.37184   0.21642   0.00000  Uiso   1.00
H334   H     0.44167   0.63024   0.21423   0.00000  Uiso   1.00
H335   H     0.60555   0.55230   0.29827   0.00000  Uiso   1.00
H336   H     0.39133   0.44557   0.20278   0.00000  Uiso   1.00
H337   H     0.63866   0.44620   0.20164   0.00000  Uiso   1.00
H338   H     0.59404   0.56620   0.42280   0.00000  Uiso   1.00
H339   H     0.62219   0.55871   0.49880   0.00000  Uiso   1.00
H340   H     0.38574   0.47918   0.41353   0.00000  Uiso   1.00
H341   H     0.41479   0.49040   0.05835   0.00000  Uiso   1.00
H342   H     0.35975   0.47445   0.00898   0.00000  Uiso   1.00
H343   H     0.53625   0.55308   0.37665   0.00000  Uiso   1.00
H344   H     0.56012   0.62820   0.28226   0.00000  Uiso   1.00
N345   N     0.38265   0.49999   0.24998   0.00000  Uiso   1.00
N346   N     0.61735   0.50002   0.25000   0.00000  Uiso   1.00
O347   O     0.46042   0.56011   0.25000   0.00000  Uiso   1.00
O348   O     0.53961   0.56012   0.25000   0.00000  Uiso   1.00
O349   O     0.44108   0.49998   0.32549   0.00000  Uiso   1.00
O350   O     0.52027   0.49999   0.32549   0.00000  Uiso   1.00
O351   O     0.46039   0.43988   0.25000   0.00000  Uiso   1.00
O352   O     0.53958   0.43989   0.25000   0.00000  Uiso   1.00
O353   O     0.47973   0.50001   0.17451   0.00000  Uiso   1.00
O354   O     0.55892   0.50002   0.17451   0.00000  Uiso   1.00
C355   C     0.35984   0.57231   0.29792   0.00000  Uiso   1.00
C356   C     0.37073   0.57061   0.35054   0.00000  Uiso   1.00
C357   C     0.35632   0.61108   0.38215   0.00000  Uiso   1.00
H358   H     0.37739   0.63690   0.35994   0.00000  Uiso   1.00
H359   H     0.65003   0.61829   0.39081   0.00000  Uiso   1.00
H360   H     0.36461   0.60841   0.41981   0.00000  Uiso   1.00
H361   H     0.35117   0.54480   0.37428   0.00000  Uiso   1.00
H362   H     0.41035   0.56673   0.34362   0.00000  Uiso   1.00
H363   H     0.38657   0.58952   0.26801   0.00000  Uiso   1.00
H364   H     0.66115   0.59392   0.30439   0.00000  Uiso   1.00
O365   O     0.47569   0.46299   0.08625   0.00000  Uiso   1.00
C366   C     0.49943   0.42377   0.07584   0.00000  Uiso   1.00
H367   H     0.52506   0.41998   0.09943   0.00000  Uiso   1.00
H368   H     0.52005   0.41951   0.03339   0.00000  Uiso   1.00
C369   C     0.46101   0.39049   0.09094   0.00000  Uiso   1.00
H370   H     0.43831   0.39553   0.13231   0.00000  Uiso   1.00
H371   H     0.43668   0.39283   0.06582   0.00000  Uiso   1.00
C372   C     0.48463   0.34729   0.08454   0.00000  Uiso   1.00
H373   H     0.50662   0.34119   0.04310   0.00000  Uiso   1.00
H374   H     0.45575   0.65726   0.09610   0.00000  Uiso   1.00
H375   H     0.50860   0.34414   0.10990   0.00000  Uiso   1.00
C376   C     0.83312   0.57924   0.24983   0.00000  Uiso   1.00
C377   C     0.81030   0.50513   0.49045   0.00000  Uiso   1.00
C378   C     0.82181   0.51541   0.43693   0.00000  Uiso   1.00
C379   C     0.84640   0.51034   0.01639   0.00000  Uiso   1.00
C380   C     0.88882   0.53298   0.49158   0.00000  Uiso   1.00
C381   C     0.89599   0.54794   0.44147   0.00000  Uiso   1.00
C382   C     0.86319   0.53922   0.41444   0.00000  Uiso   1.00
C383   C     0.84276   0.49294   0.06544   0.00000  Uiso   1.00
C384   C     0.91542   0.52861   0.06866   0.00000  Uiso   1.00
C385   C     0.79055   0.50285   0.40794   0.00000  Uiso   1.00
C386   C     0.86750   0.64481   0.26745   0.00000  Uiso   1.00
C387   C     0.80695   0.50160   0.35019   0.00000  Uiso   1.00
C388   C     0.86826   0.35419   0.26680   0.00000  Uiso   1.00
C389   C     0.83431   0.37614   0.24893   0.00000  Uiso   1.00
C390   C     0.80022   0.35524   0.23084   0.00000  Uiso   1.00
C391   C     0.80016   0.64588   0.23042   0.00000  Uiso   1.00
C392   C     0.83321   0.62390   0.24955   0.00000  Uiso   1.00
C393   C     0.96561   0.52913   0.27734   0.00000  Uiso   1.00
C394   C     0.68179   0.53109   0.27605   0.00000  Uiso   1.00
C395   C     0.69961   0.46974   0.22396   0.00000  Uiso   1.00
C396   C     0.98368   0.47011   0.22336   0.00000  Uiso   1.00
C397   C     0.83377   0.42077   0.24960   0.00000  Uiso   1.00
C398   C     0.85959   0.50030   0.15000   0.00000  Uiso   1.00
C399   C     0.92338   0.54110   0.01744   0.00000  Uiso   1.00
C400   C     0.87434   0.50570   0.09333   0.00000  Uiso   1.00
C401   C     0.74416   0.48809   0.43454   0.00000  Uiso   1.00
C402   C     0.72960   0.48440   0.48857   0.00000  Uiso   1.00
C403   C     0.76227   0.49236   0.01635   0.00000  Uiso   1.00
Cu404  Cu    0.78645   0.49999   0.25000   0.00000  Uiso   1.00
Cu405  Cu    0.88022   0.50001   0.25000   0.00000  Uiso   1.00
H406   H     0.94041   0.53806   0.08954   0.00000  Uiso   1.00
H407   H     0.89467   0.36999   0.28109   0.00000  Uiso   1.00
H408   H     0.77405   0.37184   0.21642   0.00000  Uiso   1.00
H409   H     0.77500   0.63024   0.21423   0.00000  Uiso   1.00
H410   H     0.93888   0.55230   0.29827   0.00000  Uiso   1.00
H411   H     0.72466   0.44557   0.20278   0.00000  Uiso   1.00
H412   H     0.97200   0.44620   0.20164   0.00000  Uiso   1.00
H413   H     0.92738   0.56620   0.42280   0.00000  Uiso   1.00
H414   H     0.95552   0.55871   0.49880   0.00000  Uiso   1.00
H415   H     0.71908   0.47918   0.41353   0.00000  Uiso   1.00
H416   H     0.74812   0.49040   0.05835   0.00000  Uiso   1.00
H417   H     0.69308   0.47445   0.00898   0.00000  Uiso   1.00
H418   H     0.86958   0.55308   0.37665   0.00000  Uiso   1.00
H419   H     0.89346   0.62820   0.28226   0.00000  Uiso   1.00
N420   N     0.71598   0.49999   0.24998   0.00000  Uiso   1.00
N421   N     0.95069   0.50002   0.25000   0.00000  Uiso   1.00
O422   O     0.79375   0.56011   0.25000   0.00000  Uiso   1.00
O423   O     0.87294   0.56012   0.25000   0.00000  Uiso   1.00
O424   O     0.77441   0.49998   0.32549   0.00000  Uiso   1.00
O425   O     0.85360   0.49999   0.32549   0.00000  Uiso   1.00
O426   O     0.79373   0.43988   0.25000   0.00000  Uiso   1.00
O427   O     0.87292   0.43989   0.25000   0.00000  Uiso   1.00
O428   O     0.81306   0.50001   0.17451   0.00000  Uiso   1.00
O429   O     0.89225   0.50002   0.17451   0.00000  Uiso   1.00
C430   C     0.69318   0.57231   0.29792   0.00000  Uiso   1.00
C431   C     0.70406   0.57061   0.35054   0.00000  Uiso   1.00
C432   C     0.68965   0.61108   0.38215   0.00000  Uiso   1.00
H433   H     0.71072   0.63690   0.35994   0.00000  Uiso   1.00
H434   H     0.98336   0.61829   0.39081   0.00000  Uiso   1.00
H435   H     0.69794   0.60841   0.41981   0.00000  Uiso   1.00
H436   H     0.68450   0.54480   0.37428   0.00000  Uiso   1.00
H437   H     0.74368   0.56673   0.34362   0.00000  Uiso   1.00
H438   H     0.71990   0.58952   0.26801   0.00000  Uiso   1.00
H439   H     0.99449   0.59392   0.30439   0.00000  Uiso   1.00
O440   O     0.80902   0.46299   0.08625   0.00000  Uiso   1.00
C441   C     0.83277   0.42377   0.07584   0.00000  Uiso   1.00
H442   H     0.85839   0.41998   0.09943   0.00000  Uiso   1.00
H443   H     0.85338   0.41951   0.03339   0.00000  Uiso   1.00
C444   C     0.79434   0.39049   0.09094   0.00000  Uiso   1.00
H445   H     0.77164   0.39553   0.13231   0.00000  Uiso   1.00
H446   H     0.77001   0.39283   0.06582   0.00000  Uiso   1.00
C447   C     0.81796   0.34729   0.08454   0.00000  Uiso   1.00
H448   H     0.83995   0.34119   0.04310   0.00000  Uiso   1.00
H449   H     0.78908   0.65726   0.09610   0.00000  Uiso   1.00
H450   H     0.84193   0.34414   0.10990   0.00000  Uiso   1.00
C451   C     0.16646   0.91258   0.24983   0.00000  Uiso   1.00
C452   C     0.14364   0.83846   0.49045   0.00000  Uiso   1.00
C453   C     0.15515   0.84874   0.43693   0.00000  Uiso   1.00
C454   C     0.17973   0.84367   0.01639   0.00000  Uiso   1.00
C455   C     0.22215   0.86631   0.49158   0.00000  Uiso   1.00
C456   C     0.22932   0.88128   0.44147   0.00000  Uiso   1.00
C457   C     0.19653   0.87256   0.41444   0.00000  Uiso   1.00
C458   C     0.17609   0.82627   0.06544   0.00000  Uiso   1.00
C459   C     0.24876   0.86194   0.06866   0.00000  Uiso   1.00
C460   C     0.12388   0.83618   0.40794   0.00000  Uiso   1.00
C461   C     0.20083   0.97814   0.26745   0.00000  Uiso   1.00
C462   C     0.14029   0.83493   0.35019   0.00000  Uiso   1.00
C463   C     0.20159   0.68752   0.26680   0.00000  Uiso   1.00
C464   C     0.16765   0.70947   0.24893   0.00000  Uiso   1.00
C465   C     0.13356   0.68857   0.23084   0.00000  Uiso   1.00
C466   C     0.13349   0.97921   0.23042   0.00000  Uiso   1.00
C467   C     0.16655   0.95723   0.24955   0.00000  Uiso   1.00
C468   C     0.29895   0.86247   0.27734   0.00000  Uiso   1.00
C469   C     0.01512   0.86442   0.27605   0.00000  Uiso   1.00
C470   C     0.03295   0.80308   0.22396   0.00000  Uiso   1.00
C471   C     0.31701   0.80344   0.22336   0.00000  Uiso   1.00
C472   C     0.16710   0.75411   0.24960   0.00000  Uiso   1.00
C473   C     0.19292   0.83363   0.15000   0.00000  Uiso   1.00
C474   C     0.25672   0.87444   0.01744   0.00000  Uiso   1.00
C475   C     0.20768   0.83904   0.09333   0.00000  Uiso   1.00
C476   C     0.07749   0.82143   0.43454   0.00000  Uiso   1.00
C477   C     0.06293   0.81773   0.48857   0.00000  Uiso   1.00
C478   C     0.09560   0.82570   0.01635   0.00000  Uiso   1.00
Cu479  Cu    0.11978   0.83333   0.25000   0.00000  Uiso   1.00
Cu480  Cu    0.21355   0.83334   0.25000   0.00000  Uiso   1.00
H481   H     0.27374   0.87139   0.08954   0.00000  Uiso   1.00
H482   H     0.22800   0.70332   0.28109   0.00000  Uiso   1.00
H483   H     0.10738   0.70518   0.21642   0.00000  Uiso   1.00
H484   H     0.10833   0.96358   0.21423   0.00000  Uiso   1.00
H485   H     0.27222   0.88564   0.29827   0.00000  Uiso   1.00
H486   H     0.05799   0.77890   0.20278   0.00000  Uiso   1.00
H487   H     0.30533   0.77953   0.20164   0.00000  Uiso   1.00
H488   H     0.26071   0.89953   0.42280   0.00000  Uiso   1.00
H489   H     0.28885   0.89204   0.49880   0.00000  Uiso   1.00
H490   H     0.05241   0.81251   0.41353   0.00000  Uiso   1.00
H491   H     0.08146   0.82374   0.05835   0.00000  Uiso   1.00
H492   H     0.02641   0.80778   0.00898   0.00000  Uiso   1.00
H493   H     0.20292   0.88642   0.37665   0.00000  Uiso   1.00
H494   H     0.22679   0.96153   0.28226   0.00000  Uiso   1.00
N495   N     0.04931   0.83332   0.24998   0.00000  Uiso   1.00
N496   N     0.28402   0.83335   0.25000   0.00000  Uiso   1.00
O497   O     0.12708   0.89345   0.25000   0.00000  Uiso   1.00
O498   O     0.20627   0.89346   0.25000   0.00000  Uiso   1.00
O499   O     0.10775   0.83332   0.32549   0.00000  Uiso   1.00
O500   O     0.18694   0.83333   0.32549   0.00000  Uiso   1.00
O501   O     0.12706   0.77321   0.25000   0.00000  Uiso   1.00
O502   O     0.20625   0.77322   0.25000   0.00000  Uiso   1.00
O503   O     0.14640   0.83334   0.17451   0.00000  Uiso   1.00
O504   O     0.22559   0.83335   0.17451   0.00000  Uiso   1.00
C505   C     0.02651   0.90564   0.29792   0.00000  Uiso   1.00
C506   C     0.03739   0.90394   0.35054   0.00000  Uiso   1.00
C507   C     0.02298   0.94441   0.38215   0.00000  Uiso   1.00
H508   H     0.04405   0.97023   0.35994   0.00000  Uiso   1.00
H509   H     0.31669   0.95162   0.39081   0.00000  Uiso   1.00
H510   H     0.03128   0.94174   0.41981   0.00000  Uiso   1.00
H511   H     0.01783   0.87813   0.37428   0.00000  Uiso   1.00
H512   H     0.07701   0.90007   0.34362   0.00000  Uiso   1.00
H513   H     0.05323   0.92285   0.26801   0.00000  Uiso   1.00
H514   H     0.32782   0.92725   0.30439   0.00000  Uiso   1.00
O515   O     0.14236   0.79633   0.08625   0.00000  Uiso   1.00
C516   C     0.16610   0.75710   0.07584   0.00000  Uiso   1.00
H517   H     0.19173   0.75331   0.09943   0.00000  Uiso   1.00
H518   H     0.18671   0.75285   0.03339   0.00000  Uiso   1.00
C519   C     0.12768   0.72382   0.09094   0.00000  Uiso   1.00
H520   H     0.10497   0.72887   0.13231   0.00000  Uiso   1.00
H521   H     0.10334   0.72616   0.06582   0.00000  Uiso   1.00
C522   C     0.15129   0.68063   0.08454   0.00000  Uiso   1.00
H523   H     0.17329   0.67453   0.04310   0.00000  Uiso   1.00
H524   H     0.12242   0.99060   0.09610   0.00000  Uiso   1.00
H525   H     0.17526   0.67747   0.10990   0.00000  Uiso   1.00
C526   C     0.49979   0.91258   0.24983   0.00000  Uiso   1.00
C527   C     0.47697   0.83846   0.49045   0.00000  Uiso   1.00
C528   C     0.48848   0.84874   0.43693   0.00000  Uiso   1.00
C529   C     0.51306   0.84367   0.01639   0.00000  Uiso   1.00
C530   C     0.55548   0.86631   0.49158   0.00000  Uiso   1.00
C531   C     0.56266   0.88128   0.44147   0.00000  Uiso   1.00
C532   C     0.52986   0.87256   0.41444   0.00000  Uiso   1.00
C533   C     0.50943   0.82627   0.06544   0.00000  Uiso   1.00
C534   C     0.58209   0.86194   0.06866   0.00000  Uiso   1.00
C535   C     0.45721   0.83618   0.40794   0.00000  Uiso   1.00
C536   C     0.53416   0.97814   0.26745   0.00000  Uiso   1.00
C537   C     0.47362   0.83493   0.35019   0.00000  Uiso   1.00
C538   C     0.53493   0.68752   0.26680   0.00000  Uiso   1.00
C539   C     0.50098   0.70947   0.24893   0.00000  Uiso   1.00
C540   C     0.46689   0.68857   0.23084   0.00000  Uiso   1.00
C541   C     0.46682   0.97921   0.23042   0.00000  Uiso   1.00
C542   C     0.49988   0.95723   0.24955   0.00000  Uiso   1.00
C543   C     0.63228   0.86247   0.27734   0.00000  Uiso   1.00
C544   C     0.34846   0.86442   0.27605   0.00000  Uiso   1.00
C545   C     0.36628   0.80308   0.22396   0.00000  Uiso   1.00
C546   C     0.65035   0.80344   0.22336   0.00000  Uiso   1.00
C547   C     0.50044   0.75411   0.24960   0.00000  Uiso   1.00
C548   C     0.52626   0.83363   0.15000   0.00000  Uiso   1.00
C549   C     0.59005   0.87444   0.01744   0.00000  Uiso   1.00
C550   C     0.54101   0.83904   0.09333   0.00000  Uiso   1.00
C551   C     0.41083   0.82143   0.43454   0.00000  Uiso   1.00
C552   C     0.39627   0.81773   0.48857   0.00000  Uiso   1.00
C553   C     0.42893   0.82570   0.01635   0.00000  Uiso   1.00
Cu554  Cu    0.45311   0.83333   0.25000   0.00000  Uiso   1.00
Cu555  Cu    0.54689   0.83334   0.25000   0.00000  Uiso   1.00
H556   H     0.60708   0.87139   0.08954   0.00000  Uiso   1.00
H557   H     0.56134   0.70332   0.28109   0.00000  Uiso   1.00
H558   H     0.44072   0.70518   0.21642   0.00000  Uiso   1.00
H559   H     0.44167   0.96358   0.21423   0.00000  Uiso   1.00
H560   H     0.60555   0.88564   0.29827   0.00000  Uiso   1.00
H561   H     0.39133   0.77890   0.20278   0.00000  Uiso   1.00
H562   H     0.63866   0.77953   0.20164   0.00000  Uiso   1.00
H563   H     0.59404   0.89953   0.42280   0.00000  Uiso   1.00
H564   H     0.62219   0.89204   0.49880   0.00000  Uiso   1.00
H565   H     0.38574   0.81251   0.41353   0.00000  Uiso   1.00
H566   H     0.41479   0.82374   0.05835   0.00000  Uiso   1.00
H567   H     0.35975   0.80778   0.00898   0.00000  Uiso   1.00
H568   H     0.53625   0.88642   0.37665   0.00000  Uiso   1.00
H569   H     0.56012   0.96153   0.28226   0.00000  Uiso   1.00
N570   N     0.38265   0.83332   0.24998   0.00000  Uiso   1.00
N571   N     0.61735   0.83335   0.25000   0.00000  Uiso   1.00
O572   O     0.46042   0.89345   0.25000   0.00000  Uiso   1.00
O573   O     0.53961   0.89346   0.25000   0.00000  Uiso   1.00
O574   O     0.44108   0.83332   0.32549   0.00000  Uiso   1.00
O575   O     0.52027   0.83333   0.32549   0.00000  Uiso   1.00
O576   O     0.46039   0.77321   0.25000   0.00000  Uiso   1.00
O577   O     0.53958   0.77322   0.25000   0.00000  Uiso   1.00
O578   O     0.47973   0.83334   0.17451   0.00000  Uiso   1.00
O579   O     0.55892   0.83335   0.17451   0.00000  Uiso   1.00
C580   C     0.35984   0.90564   0.29792   0.00000  Uiso   1.00
C581   C     0.37073   0.90394   0.35054   0.00000  Uiso   1.00
C582   C     0.35632   0.94441   0.38215   0.00000  Uiso   1.00
H583   H     0.37739   0.97023   0.35994   0.00000  Uiso   1.00
H584   H     0.65003   0.95162   0.39081   0.00000  Uiso   1.00
H585   H     0.36461   0.94174   0.41981   0.00000  Uiso   1.00
H586   H     0.35117   0.87813   0.37428   0.00000  Uiso   1.00
H587   H     0.41035   0.90007   0.34362   0.00000  Uiso   1.00
H588   H     0.38657   0.92285   0.26801   0.00000  Uiso   1.00
H589   H     0.66115   0.92725   0.30439   0.00000  Uiso   1.00
O590   O     0.47569   0.79633   0.08625   0.00000  Uiso   1.00
C591   C     0.49943   0.75710   0.07584   0.00000  Uiso   1.00
H592   H     0.52506   0.75331   0.09943   0.00000  Uiso   1.00
H593   H     0.52005   0.75285   0.03339   0.00000  Uiso   1.00
C594   C     0.46101   0.72382   0.09094   0.00000  Uiso   1.00
H595   H     0.43831   0.72887   0.13231   0.00000  Uiso   1.00
H596   H     0.43668   0.72616   0.06582   0.00000  Uiso   1.00
C597   C     0.48463   0.68063   0.08454   0.00000  Uiso   1.00
H598   H     0.50662   0.67453   0.04310   0.00000  Uiso   1.00
H599   H     0.45575   0.99060   0.09610   0.00000  Uiso   1.00
H600   H     0.50860   0.67747   0.10990   0.00000  Uiso   1.00
C601   C     0.83312   0.91258   0.24983   0.00000  Uiso   1.00
C602   C     0.81030   0.83846   0.49045   0.00000  Uiso   1.00
C603   C     0.82181   0.84874   0.43693   0.00000  Uiso   1.00
C604   C     0.84640   0.84367   0.01639   0.00000  Uiso   1.00
C605   C     0.88882   0.86631   0.49158   0.00000  Uiso   1.00
C606   C     0.89599   0.88128   0.44147   0.00000  Uiso   1.00
C607   C     0.86319   0.87256   0.41444   0.00000  Uiso   1.00
C608   C     0.84276   0.82627   0.06544   0.00000  Uiso   1.00
C609   C     0.91542   0.86194   0.06866   0.00000  Uiso   1.00
C610   C     0.79055   0.83618   0.40794   0.00000  Uiso   1.00
C611   C     0.86750   0.97814   0.26745   0.00000  Uiso   1.00
C612   C     0.80695   0.83493   0.35019   0.00000  Uiso   1.00
C613   C     0.86826   0.68752   0.26680   0.00000  Uiso   1.00
C614   C     0.83431   0.70947   0.24893   0.00000  Uiso   1.00
C615   C     0.80022   0.68857   0.23084   0.00000  Uiso   1.00
C616   C     0.80016   0.97921   0.23042   0.00000  Uiso   1.00
C617   C     0.83321   0.95723   0.24955   0.00000  Uiso   1.00
C618   C     0.96561   0.86247   0.27734   0.00000  Uiso   1.00
C619   C     0.68179   0.86442   0.27605   0.00000  Uiso   1.00
C620   C     0.69961   0.80308   0.22396   0.00000  Uiso   1.00
C621   C     0.98368   0.80344   0.22336   0.00000  Uiso   1.00
C622   C     0.83377   0.75411   0.24960   0.00000  Uiso   1.00
C623   C     0.85959   0.83363   0.15000   0.00000  Uiso   1.00
C624   C     0.92338   0.87444   0.01744   0.00000  Uiso   1.00
C625   C     0.87434   0.83904   0.09333   0.00000  Uiso   1.00
C626   C     0.74416   0.82143   0.43454   0.00000  Uiso   1.00
C627   C     0.72960   0.81773   0.48857   0.00000  Uiso   1.00
C628   C     0.76227   0.82570   0.01635   0.00000  Uiso   1.00
Cu629  Cu    0.78645   0.83333   0.25000   0.00000  Uiso   1.00
Cu630  Cu    0.88022   0.83334   0.25000   0.00000  Uiso   1.00
H631   H     0.94041   0.87139   0.08954   0.00000  Uiso   1.00
H632   H     0.89467   0.70332   0.28109   0.00000  Uiso   1.00
H633   H     0.77405   0.70518   0.21642   0.00000  Uiso   1.00
H634   H     0.77500   0.96358   0.21423   0.00000  Uiso   1.00
H635   H     0.93888   0.88564   0.29827   0.00000  Uiso   1.00
H636   H     0.72466   0.77890   0.20278   0.00000  Uiso   1.00
H637   H     0.97200   0.77953   0.20164   0.00000  Uiso   1.00
H638   H     0.92738   0.89953   0.42280   0.00000  Uiso   1.00
H639   H     0.95552   0.89204   0.49880   0.00000  Uiso   1.00
H640   H     0.71908   0.81251   0.41353   0.00000  Uiso   1.00
H641   H     0.74812   0.82374   0.05835   0.00000  Uiso   1.00
H642   H     0.69308   0.80778   0.00898   0.00000  Uiso   1.00
H643   H     0.86958   0.88642   0.37665   0.00000  Uiso   1.00
H644   H     0.89346   0.96153   0.28226   0.00000  Uiso   1.00
N645   N     0.71598   0.83332   0.24998   0.00000  Uiso   1.00
N646   N     0.95069   0.83335   0.25000   0.00000  Uiso   1.00
O647   O     0.79375   0.89345   0.25000   0.00000  Uiso   1.00
O648   O     0.87294   0.89346   0.25000   0.00000  Uiso   1.00
O649   O     0.77441   0.83332   0.32549   0.00000  Uiso   1.00
O650   O     0.85360   0.83333   0.32549   0.00000  Uiso   1.00
O651   O     0.79373   0.77321   0.25000   0.00000  Uiso   1.00
O652   O     0.87292   0.77322   0.25000   0.00000  Uiso   1.00
O653   O     0.81306   0.83334   0.17451   0.00000  Uiso   1.00
O654   O     0.89225   0.83335   0.17451   0.00000  Uiso   1.00
C655   C     0.69318   0.90564   0.29792   0.00000  Uiso   1.00
C656   C     0.70406   0.90394   0.35054   0.00000  Uiso   1.00
C657   C     0.68965   0.94441   0.38215   0.00000  Uiso   1.00
H658   H     0.71072   0.97023   0.35994   0.00000  Uiso   1.00
H659   H     0.98336   0.95162   0.39081   0.00000  Uiso   1.00
H660   H     0.69794   0.94174   0.41981   0.00000  Uiso   1.00
H661   H     0.68450   0.87813   0.37428   0.00000  Uiso   1.00
H662   H     0.74368   0.90007   0.34362   0.00000  Uiso   1.00
H663   H     0.71990   0.92285   0.26801   0.00000  Uiso   1.00
H664   H     0.99449   0.92725   0.30439   0.00000  Uiso   1.00
O665   O     0.80902   0.79633   0.08625   0.00000  Uiso   1.00
C666   C     0.83277   0.75710   0.07584   0.00000  Uiso   1.00
H667   H     0.85839   0.75331   0.09943   0.00000  Uiso   1.00
H668   H     0.85338   0.75285   0.03339   0.00000  Uiso   1.00
C669   C     0.79434   0.72382   0.09094   0.00000  Uiso   1.00
H670   H     0.77164   0.72887   0.13231   0.00000  Uiso   1.00
H671   H     0.77001   0.72616   0.06582   0.00000  Uiso   1.00
C672   C     0.81796   0.68063   0.08454   0.00000  Uiso   1.00
H673   H     0.83995   0.67453   0.04310   0.00000  Uiso   1.00
H674   H     0.78908   0.99060   0.09610   0.00000  Uiso   1.00
H675   H     0.84193   0.67747   0.10990   0.00000  Uiso   1.00
C676   C     0.16646   0.24591   0.74983   0.00000  Uiso   1.00
C677   C     0.14364   0.17180   0.99045   0.00000  Uiso   1.00
C678   C     0.15515   0.18208   0.93693   0.00000  Uiso   1.00
C679   C     0.17973   0.17700   0.51639   0.00000  Uiso   1.00
C680   C     0.22215   0.19964   0.99158   0.00000  Uiso   1.00
C681   C     0.22932   0.21461   0.94147   0.00000  Uiso   1.00
C682   C     0.19653   0.20589   0.91444   0.00000  Uiso   1.00
C683   C     0.17609   0.15961   0.56544   0.00000  Uiso   1.00
C684   C     0.24876   0.19528   0.56866   0.00000  Uiso   1.00
C685   C     0.12388   0.16952   0.90794   0.00000  Uiso   1.00
C686   C     0.20083   0.31148   0.76745   0.00000  Uiso   1.00
C687   C     0.14029   0.16827   0.85019   0.00000  Uiso   1.00
C688   C     0.20159   0.02085   0.76680   0.00000  Uiso   1.00
C689   C     0.16765   0.04281   0.74893   0.00000  Uiso   1.00
C690   C     0.13356   0.02190   0.73084   0.00000  Uiso   1.00
C691   C     0.13349   0.31255   0.73042   0.00000  Uiso   1.00
C692   C     0.16655   0.29057   0.74955   0.00000  Uiso   1.00
C693   C     0.29895   0.19580   0.77734   0.00000  Uiso   1.00
C694   C     0.01512   0.19775   0.77605   0.00000  Uiso   1.00
C695   C     0.03295   0.13641   0.72396   0.00000  Uiso   1.00
C696   C     0.31701   0.13678   0.72336   0.00000  Uiso   1.00
C697   C     0.16710   0.08744   0.74960   0.00000  Uiso   1.00
C698   C     0.19292   0.16696   0.65000   0.00000  Uiso   1.00
C699   C     0.25672   0.20777   0.51744   0.00000  Uiso   1.00
C700   C     0.20768   0.17237   0.59333   0.00000  Uiso   1.00
C701   C     0.07749   0.15476   0.93454   0.00000  Uiso   1.00
C702   C     0.06293   0.15107   0.98857   0.00000  Uiso   1.00
C703   C     0.09560   0.15903   0.51635   0.00000  Uiso   1.00
Cu704  Cu    0.11978   0.16666   0.75000   0.00000  Uiso   1.00
Cu705  Cu    0.21355   0.16667   0.75000   0.00000  Uiso   1.00
H706   H     0.27374   0.20472   0.58954   0.00000  Uiso   1.00
H707   H     0.22800   0.03666   0.78109   0.00000  Uiso   1.00
H708   H     0.10738   0.03851   0.71642   0.00000  Uiso   1.00
H709   H     0.10833   0.29691   0.71423   0.00000  Uiso   1.00
H710   H     0.27222   0.21897   0.79827   0.00000  Uiso   1.00
H711   H     0.05799   0.11224   0.70278   0.00000  Uiso   1.00
H712   H     0.30533   0.11286   0.70164   0.00000  Uiso   1.00
H713   H     0.26071   0.23286   0.92280   0.00000  Uiso   1.00
H714   H     0.28885   0.22538   0.99880   0.00000  Uiso   1.00
H715   H     0.05241   0.14584   0.91353   0.00000  Uiso   1.00
H716   H     0.08146   0.15707   0.55835   0.00000  Uiso   1.00
H717   H     0.02641   0.14112   0.50898   0.00000  Uiso   1.00
H718   H     0.20292   0.21975   0.87665   0.00000  Uiso   1.00
H719   H     0.22679   0.29487   0.78226   0.00000  Uiso   1.00
N720   N     0.04931   0.16666   0.74998   0.00000  Uiso   1.00
N721   N     0.28402   0.16669   0.75000   0.00000  Uiso   1.00
O722   O     0.12708   0.22678   0.75000   0.00000  Uiso   1.00
O723   O     0.20627   0.22679   0.75000   0.00000  Uiso   1.00
O724   O     0.10775   0.16665   0.82549   0.00000  Uiso   1.00
O725   O     0.18694   0.16666   0.82549   0.00000  Uiso   1.00
O726   O     0.12706   0.10654   0.75000   0.00000  Uiso   1.00
O727   O     0.20625   0.10655   0.75000   0.00000  Uiso   1.00
O728   O     0.14640   0.16667   0.67451   0.00000  Uiso   1.00
O729   O     0.22559   0.16668   0.67451   0.00000  Uiso   1.00
C730   C     0.02651   0.23898   0.79792   0.00000  Uiso   1.00
C731   C     0.03739   0.23727   0.85054   0.00000  Uiso   1.00
C732   C     0.02298   0.27775   0.88215   0.00000  Uiso   1.00
H733   H     0.04405   0.30356   0.85994   0.00000  Uiso   1.00
H734   H     0.31669   0.28495   0.89081   0.00000  Uiso   1.00
H735   H     0.03128   0.27508   0.91981   0.00000  Uiso   1.00
H736   H     0.01783   0.21147   0.87428   0.00000  Uiso   1.00
H737   H     0.07701   0.23340   0.84362   0.00000  Uiso   1.00
H738   H     0.05323   0.25619   0.76801   0.00000  Uiso   1.00
H739   H     0.32782   0.26058   0.80439   0.00000  Uiso   1.00
O740   O     0.14236   0.12966   0.58625   0.00000  Uiso   1.00
C741   C     0.16610   0.09044   0.57584   0.00000  Uiso   1.00
H742   H     0.19173   0.08665   0.59943   0.00000  Uiso   1.00
H743   H     0.18671   0.08618   0.53339   0.00000  Uiso   1.00
C744   C     0.12768   0.05716   0.59094   0.00000  Uiso   1.00
H745   H     0.10497   0.06220   0.63231   0.00000  Uiso   1.00
H746   H     0.10334   0.05949   0.56582   0.00000  Uiso   1.00
C747   C     0.15129   0.01396   0.58454   0.00000  Uiso   1.00
H748   H     0.17329   0.00786   0.54310   0.00000  Uiso   1.00
H749   H     0.12242   0.32393   0.59610   0.00000  Uiso   1.00
H750   H     0.17526   0.01080   0.60990   0.00000  Uiso   1.00
C751   C     0.49979   0.24591   0.74983   0.00000  Uiso   1.00
C752   C     0.47697   0.17180   0.99045   0.00000  Uiso   1.00
C753   C     0.48848   0.18208   0.93693   0.00000  Uiso   1.00
C754   C     0.51306   0.17700   0.51639   0.00000  Uiso   1.00
C755   C     0.55548   0.19964   0.99158   0.00000  Uiso   1.00
C756   C     0.56266   0.21461   0.94147   0.00000  Uiso   1.00
C757   C     0.52986   0.20589   0.91444   0.00000  Uiso   1.00
C758   C     0.50943   0.15961   0.56544   0.00000  Uiso   1.00
C759   C     0.58209   0.19528   0.56866   0.00000  Uiso   1.00
C760   C     0.45721   0.16952   0.90794   0.00000  Uiso   1.00
C761   C     0.53416   0.31148   0.76745   0.00000  Uiso   1.00
C762   C     0.47362   0.16827   0.85019   0.00000  Uiso   1.00
C763   C     0.53493   0.02085   0.76680   0.00000  Uiso   1.00
C764   C     0.50098   0.04281   0.74893   0.00000  Uiso   1.00
C765   C     0.46689   0.02190   0.73084   0.00000  Uiso   1.00
C766   C     0.46682   0.31255   0.73042   0.00000  Uiso   1.00
C767   C     0.49988   0.29057   0.74955   0.00000  Uiso   1.00
C768   C     0.63228   0.19580   0.77734   0.00000  Uiso   1.00
C769   C     0.34846   0.19775   0.77605   0.00000  Uiso   1.00
C770   C     0.36628   0.13641   0.72396   0.00000  Uiso   1.00
C771   C     0.65035   0.13678   0.72336   0.00000  Uiso   1.00
C772   C     0.50044   0.08744   0.74960   0.00000  Uiso   1.00
C773   C     0.52626   0.16696   0.65000   0.00000  Uiso   1.00
C774   C     0.59005   0.20777   0.51744   0.00000  Uiso   1.00
C775   C     0.54101   0.17237   0.59333   0.00000  Uiso   1.00
C776   C     0.41083   0.15476   0.93454   0.00000  Uiso   1.00
C777   C     0.39627   0.15107   0.98857   0.00000  Uiso   1.00
C778   C     0.42893   0.15903   0.51635   0.00000  Uiso   1.00
Cu779  Cu    0.45311   0.16666   0.75000   0.00000  Uiso   1.00
Cu780  Cu    0.54689   0.16667   0.75000   0.00000  Uiso   1.00
H781   H     0.60708   0.20472   0.58954   0.00000  Uiso   1.00
H782   H     0.56134   0.03666   0.78109   0.00000  Uiso   1.00
H783   H     0.44072   0.03851   0.71642   0.00000  Uiso   1.00
H784   H     0.44167   0.29691   0.71423   0.00000  Uiso   1.00
H785   H     0.60555   0.21897   0.79827   0.00000  Uiso   1.00
H786   H     0.39133   0.11224   0.70278   0.00000  Uiso   1.00
H787   H     0.63866   0.11286   0.70164   0.00000  Uiso   1.00
H788   H     0.59404   0.23286   0.92280   0.00000  Uiso   1.00
H789   H     0.62219   0.22538   0.99880   0.00000  Uiso   1.00
H790   H     0.38574   0.14584   0.91353   0.00000  Uiso   1.00
H791   H     0.41479   0.15707   0.55835   0.00000  Uiso   1.00
H792   H     0.35975   0.14112   0.50898   0.00000  Uiso   1.00
H793   H     0.53625   0.21975   0.87665   0.00000  Uiso   1.00
H794   H     0.56012   0.29487   0.78226   0.00000  Uiso   1.00
N795   N     0.38265   0.16666   0.74998   0.00000  Uiso   1.00
N796   N     0.61735   0.16669   0.75000   0.00000  Uiso   1.00
O797   O     0.46042   0.22678   0.75000   0.00000  Uiso   1.00
O798   O     0.53961   0.22679   0.75000   0.00000  Uiso   1.00
O799   O     0.44108   0.16665   0.82549   0.00000  Uiso   1.00
O800   O     0.52027   0.16666   0.82549   0.00000  Uiso   1.00
O801   O     0.46039   0.10654   0.75000   0.00000  Uiso   1.00
O802   O     0.53958   0.10655   0.75000   0.00000  Uiso   1.00
O803   O     0.47973   0.16667   0.67451   0.00000  Uiso   1.00
O804   O     0.55892   0.16668   0.67451   0.00000  Uiso   1.00
C805   C     0.35984   0.23898   0.79792   0.00000  Uiso   1.00
C806   C     0.37073   0.23727   0.85054   0.00000  Uiso   1.00
C807   C     0.35632   0.27775   0.88215   0.00000  Uiso   1.00
H808   H     0.37739   0.30356   0.85994   0.00000  Uiso   1.00
H809   H     0.65003   0.28495   0.89081   0.00000  Uiso   1.00
H810   H     0.36461   0.27508   0.91981   0.00000  Uiso   1.00
H811   H     0.35117   0.21147   0.87428   0.00000  Uiso   1.00
H812   H     0.41035   0.23340   0.84362   0.00000  Uiso   1.00
H813   H     0.38657   0.25619   0.76801   0.00000  Uiso   1.00
H814   H     0.66115   0.26058   0.80439   0.00000  Uiso   1.00
O815   O     0.47569   0.12966   0.58625   0.00000  Uiso   1.00
C816   C     0.49943   0.09044   0.57584   0.00000  Uiso   1.00
H817   H     0.52506   0.08665   0.59943   0.00000  Uiso   1.00
H818   H     0.52005   0.08618   0.53339   0.00000  Uiso   1.00
C819   C     0.46101   0.05716   0.59094   0.00000  Uiso   1.00
H820   H     0.43831   0.06220   0.63231   0.00000  Uiso   1.00
H821   H     0.43668   0.05949   0.56582   0.00000  Uiso   1.00
C822   C     0.48463   0.01396   0.58454   0.00000  Uiso   1.00
H823   H     0.50662   0.00786   0.54310   0.00000  Uiso   1.00
H824   H     0.45575   0.32393   0.59610   0.00000  Uiso   1.00
H825   H     0.50860   0.01080   0.60990   0.00000  Uiso   1.00
C826   C     0.83312   0.24591   0.74983   0.00000  Uiso   1.00
C827   C     0.81030   0.17180   0.99045   0.00000  Uiso   1.00
C828   C     0.82181   0.18208   0.93693   0.00000  Uiso   1.00
C829   C     0.84640   0.17700   0.51639   0.00000  Uiso   1.00
C830   C     0.88882   0.19964   0.99158   0.00000  Uiso   1.00
C831   C     0.89599   0.21461   0.94147   0.00000  Uiso   1.00
C832   C     0.86319   0.20589   0.91444   0.00000  Uiso   1.00
C833   C     0.84276   0.15961   0.56544   0.00000  Uiso   1.00
C834   C     0.91542   0.19528   0.56866   0.00000  Uiso   1.00
C835   C     0.79055   0.16952   0.90794   0.00000  Uiso   1.00
C836   C     0.86750   0.31148   0.76745   0.00000  Uiso   1.00
C837   C     0.80695   0.16827   0.85019   0.00000  Uiso   1.00
C838   C     0.86826   0.02085   0.76680   0.00000  Uiso   1.00
C839   C     0.83431   0.04281   0.74893   0.00000  Uiso   1.00
C840   C     0.80022   0.02190   0.73084   0.00000  Uiso   1.00
C841   C     0.80016   0.31255   0.73042   0.00000  Uiso   1.00
C842   C     0.83321   0.29057   0.74955   0.00000  Uiso   1.00
C843   C     0.96561   0.19580   0.77734   0.00000  Uiso   1.00
C844   C     0.68179   0.19775   0.77605   0.00000  Uiso   1.00
C845   C     0.69961   0.13641   0.72396   0.00000  Uiso   1.00
C846   C     0.98368   0.13678   0.72336   0.00000  Uiso   1.00
C847   C     0.83377   0.08744   0.74960   0.00000  Uiso   1.00
C848   C     0.85959   0.16696   0.65000   0.00000  Uiso   1.00
C849   C     0.92338   0.20777   0.51744   0.00000  Uiso   1.00
C850   C     0.87434   0.17237   0.59333   0.00000  Uiso   1.00
C851   C     0.74416   0.15476   0.93454   0.00000  Uiso   1.00
C852   C     0.72960   0.15107   0.98857   0.00000  Uiso   1.00
C853   C     0.76227   0.15903   0.51635   0.00000  Uiso   1.00
Cu854  Cu    0.78645   0.16666   0.75000   0.00000  Uiso   1.00
Cu855  Cu    0.88022   0.16667   0.75000   0.00000  Uiso   1.00
H856   H     0.94041   0.20472   0.58954   0.00000  Uiso   1.00
H857   H     0.89467   0.03666   0.78109   0.00000  Uiso   1.00
H858   H     0.77405   0.03851   0.71642   0.00000  Uiso   1.00
H859   H     0.77500   0.29691   0.71423   0.00000  Uiso   1.00
H860   H     0.93888   0.21897   0.79827   0.00000  Uiso   1.00
H861   H     0.72466   0.11224   0.70278   0.00000  Uiso   1.00
H862   H     0.97200   0.11286   0.70164   0.00000  Uiso   1.00
H863   H     0.92738   0.23286   0.92280   0.00000  Uiso   1.00
H864   H     0.95552   0.22538   0.99880   0.00000  Uiso   1.00
H865   H     0.71908   0.14584   0.91353   0.00000  Uiso   1.00
H866   H     0.74812   0.15707   0.55835   0.00000  Uiso   1.00
H867   H     0.69308   0.14112   0.50898   0.00000  Uiso   1.00
H868   H     0.86958   0.21975   0.87665   0.00000  Uiso   1.00
H869   H     0.89346   0.29487   0.78226   0.00000  Uiso   1.00
N870   N     0.71598   0.16666   0.74998   0.00000  Uiso   1.00
N871   N     0.95069   0.16669   0.75000   0.00000  Uiso   1.00
O872   O     0.79375   0.22678   0.75000   0.00000  Uiso   1.00
O873   O     0.87294   0.22679   0.75000   0.00000  Uiso   1.00
O874   O     0.77441   0.16665   0.82549   0.00000  Uiso   1.00
O875   O     0.85360   0.16666   0.82549   0.00000  Uiso   1.00
O876   O     0.79373   0.10654   0.75000   0.00000  Uiso   1.00
O877   O     0.87292   0.10655   0.75000   0.00000  Uiso   1.00
O878   O     0.81306   0.16667   0.67451   0.00000  Uiso   1.00
O879   O     0.89225   0.16668   0.67451   0.00000  Uiso   1.00
C880   C     0.69318   0.23898   0.79792   0.00000  Uiso   1.00
C881   C     0.70406   0.23727   0.85054   0.00000  Uiso   1.00
C882   C     0.68965   0.27775   0.88215   0.00000  Uiso   1.00
H883   H     0.71072   0.30356   0.85994   0.00000  Uiso   1.00
H884   H     0.98336   0.28495   0.89081   0.00000  Uiso   1.00
H885   H     0.69794   0.27508   0.91981   0.00000  Uiso   1.00
H886   H     0.68450   0.21147   0.87428   0.00000  Uiso   1.00
H887   H     0.74368   0.23340   0.84362   0.00000  Uiso   1.00
H888   H     0.71990   0.25619   0.76801   0.00000  Uiso   1.00
H889   H     0.99449   0.26058   0.80439   0.00000  Uiso   1.00
O890   O     0.80902   0.12966   0.58625   0.00000  Uiso   1.00
C891   C     0.83277   0.09044   0.57584   0.00000  Uiso   1.00
H892   H     0.85839   0.08665   0.59943   0.00000  Uiso   1.00
H893   H     0.85338   0.08618   0.53339   0.00000  Uiso   1.00
C894   C     0.79434   0.05716   0.59094   0.00000  Uiso   1.00
H895   H     0.77164   0.06220   0.63231   0.00000  Uiso   1.00
H896   H     0.77001   0.05949   0.56582   0.00000  Uiso   1.00
C897   C     0.81796   0.01396   0.58454   0.00000  Uiso   1.00
H898   H     0.83995   0.00786   0.54310   0.00000  Uiso   1.00
H899   H     0.78908   0.32393   0.59610   0.00000  Uiso   1.00
H900   H     0.84193   0.01080   0.60990   0.00000  Uiso   1.00
C901   C     0.16646   0.57924   0.74983   0.00000  Uiso   1.00
C902   C     0.14364   0.50513   0.99045   0.00000  Uiso   1.00
C903   C     0.15515   0.51541   0.93693   0.00000  Uiso   1.00
C904   C     0.17973   0.51034   0.51639   0.00000  Uiso   1.00
C905   C     0.22215   0.53298   0.99158   0.00000  Uiso   1.00
C906   C     0.22932   0.54794   0.94147   0.00000  Uiso   1.00
C907   C     0.19653   0.53922   0.91444   0.00000  Uiso   1.00
C908   C     0.17609   0.49294   0.56544   0.00000  Uiso   1.00
C909   C     0.24876   0.52861   0.56866   0.00000  Uiso   1.00
C910   C     0.12388   0.50285   0.90794   0.00000  Uiso   1.00
C911   C     0.20083   0.64481   0.76745   0.00000  Uiso   1.00
C912   C     0.14029   0.50160   0.85019   0.00000  Uiso   1.00
C913   C     0.20159   0.35419   0.76680   0.00000  Uiso   1.00
C914   C     0.16765   0.37614   0.74893   0.00000  Uiso   1.00
C915   C     0.13356   0.35524   0.73084   0.00000  Uiso   1.00
C916   C     0.13349   0.64588   0.73042   0.00000  Uiso   1.00
C917   C     0.16655   0.62390   0.74955   0.00000  Uiso   1.00
C918   C     0.29895   0.52913   0.77734   0.00000  Uiso   1.00
C919   C     0.01512   0.53109   0.77605   0.00000  Uiso   1.00
C920   C     0.03295   0.46974   0.72396   0.00000  Uiso   1.00
C921   C     0.31701   0.47011   0.72336   0.00000  Uiso   1.00
C922   C     0.16710   0.42077   0.74960   0.00000  Uiso   1.00
C923   C     0.19292   0.50030   0.65000   0.00000  Uiso   1.00
C924   C     0.25672   0.54110   0.51744   0.00000  Uiso   1.00
C925   C     0.20768   0.50570   0.59333   0.00000  Uiso   1.00
C926   C     0.07749   0.48809   0.93454   0.00000  Uiso   1.00
C927   C     0.06293   0.48440   0.98857   0.00000  Uiso   1.00
C928   C     0.09560   0.49236   0.51635   0.00000  Uiso   1.00
Cu929  Cu    0.11978   0.49999   0.75000   0.00000  Uiso   1.00
Cu930  Cu    0.21355   0.50001   0.75000   0.00000  Uiso   1.00
H931   H     0.27374   0.53806   0.58954   0.00000  Uiso   1.00
H932   H     0.22800   0.36999   0.78109   0.00000  Uiso   1.00
H933   H     0.10738   0.37184   0.71642   0.00000  Uiso   1.00
H934   H     0.10833   0.63024   0.71423   0.00000  Uiso   1.00
H935   H     0.27222   0.55230   0.79827   0.00000  Uiso   1.00
H936   H     0.05799   0.44557   0.70278   0.00000  Uiso   1.00
H937   H     0.30533   0.44620   0.70164   0.00000  Uiso   1.00
H938   H     0.26071   0.56620   0.92280   0.00000  Uiso   1.00
H939   H     0.28885   0.55871   0.99880   0.00000  Uiso   1.00
H940   H     0.05241   0.47918   0.91353   0.00000  Uiso   1.00
H941   H     0.08146   0.49040   0.55835   0.00000  Uiso   1.00
H942   H     0.02641   0.47445   0.50898   0.00000  Uiso   1.00
H943   H     0.20292   0.55308   0.87665   0.00000  Uiso   1.00
H944   H     0.22679   0.62820   0.78226   0.00000  Uiso   1.00
N945   N     0.04931   0.49999   0.74998   0.00000  Uiso   1.00
N946   N     0.28402   0.50002   0.75000   0.00000  Uiso   1.00
O947   O     0.12708   0.56011   0.75000   0.00000  Uiso   1.00
O948   O     0.20627   0.56012   0.75000   0.00000  Uiso   1.00
O949   O     0.10775   0.49998   0.82549   0.00000  Uiso   1.00
O950   O     0.18694   0.49999   0.82549   0.00000  Uiso   1.00
O951   O     0.12706   0.43988   0.75000   0.00000  Uiso   1.00
O952   O     0.20625   0.43989   0.75000   0.00000  Uiso   1.00
O953   O     0.14640   0.50001   0.67451   0.00000  Uiso   1.00
O954   O     0.22559   0.50002   0.67451   0.00000  Uiso   1.00
C955   C     0.02651   0.57231   0.79792   0.00000  Uiso   1.00
C956   C     0.03739   0.57061   0.85054   0.00000  Uiso   1.00
C957   C     0.02298   0.61108   0.88215   0.00000  Uiso   1.00
H958   H     0.04405   0.63690   0.85994   0.00000  Uiso   1.00
H959   H     0.31669   0.61829   0.89081   0.00000  Uiso   1.00
H960   H     0.03128   0.60841   0.91981   0.00000  Uiso   1.00
H961   H     0.01783   0.54480   0.87428   0.00000  Uiso   1.00
H962   H     0.07701   0.56673   0.84362   0.00000  Uiso   1.00
H963   H     0.05323   0.58952   0.76801   0.00000  Uiso   1.00
H964   H     0.32782   0.59392   0.80439   0.00000  Uiso   1.00
O965   O     0.14236   0.46299   0.58625   0.00000  Uiso   1.00
C966   C     0.16610   0.42377   0.57584   0.00000  Uiso   1.00
H967   H     0.19173   0.41998   0.59943   0.00000  Uiso   1.00
H968   H     0.18671   0.41951   0.53339   0.00000  Uiso   1.00
C969   C     0.12768   0.39049   0.59094   0.00000  Uiso   1.00
H970   H     0.10497   0.39553   0.63231   0.00000  Uiso   1.00
H971   H     0.10334   0.39283   0.56582   0.00000  Uiso   1.00
C972   C     0.15129   0.34729   0.58454   0.00000  Uiso   1.00
H973   H     0.17329   0.34119   0.54310   0.00000  Uiso   1.00
H974   H     0.12242   0.65726   0.59610   0.00000  Uiso   1.00
H975   H     0.17526   0.34414   0.60990   0.00000  Uiso   1.00
C976   C     0.49979   0.57924   0.74983   0.00000  Uiso   1.00
C977   C     0.47697   0.50513   0.99045   0.00000  Uiso   1.00
C978   C     0.48848   0.51541   0.93693   0.00000  Uiso   1.00
C979   C     0.51306   0.51034   0.51639   0.00000  Uiso   1.00
C980   C     0.55548   0.53298   0.99158   0.00000  Uiso   1.00
C981   C     0.56266   0.54794   0.94147   0.00000  Uiso   1.00
C982   C     0.52986   0.53922   0.91444   0.00000  Uiso   1.00
C983   C     0.50943   0.49294   0.56544   0.00000  Uiso   1.00
C984   C     0.58209   0.52861   0.56866   0.00000  Uiso   1.00
C985   C     0.45721   0.50285   0.90794   0.00000  Uiso   1.00
C986   C     0.53416   0.64481   0.76745   0.00000  Uiso   1.00
C987   C     0.47362   0.50160   0.85019   0.00000  Uiso   1.00
C988   C     0.53493   0.35419   0.76680   0.00000  Uiso   1.00
C989   C     0.50098   0.37614   0.74893   0.00000  Uiso   1.00
C990   C     0.46689   0.35524   0.73084   0.00000  Uiso   1.00
C991   C     0.46682   0.64588   0.73042   0.00000  Uiso   1.00
C992   C     0.49988   0.62390   0.74955   0.00000  Uiso   1.00
C993   C     0.63228   0.52913   0.77734   0.00000  Uiso   1.00
C994   C     0.34846   0.53109   0.77605   0.00000  Uiso   1.00
C995   C     0.36628   0.46974   0.72396   0.00000  Uiso   1.00
C996   C     0.65035   0.47011   0.72336   0.00000  Uiso   1.00
C997   C     0.50044   0.42077   0.74960   0.00000  Uiso   1.00
C998   C     0.52626   0.50030   0.65000   0.00000  Uiso   1.00
C999   C     0.59005   0.54110   0.51744   0.00000  Uiso   1.00
C1000  C     0.54101   0.50570   0.59333   0.00000  Uiso   1.00
C1001  C     0.41083   0.48809   0.93454   0.00000  Uiso   1.00
C1002  C     0.39627   0.48440   0.98857   0.00000  Uiso   1.00
C1003  C     0.42893   0.49236   0.51635   0.00000  Uiso   1.00
Cu1004 Cu    0.45311   0.49999   0.75000   0.00000  Uiso   1.00
Cu1005 Cu    0.54689   0.50001   0.75000   0.00000  Uiso   1.00
H1006  H     0.60708   0.53806   0.58954   0.00000  Uiso   1.00
H1007  H     0.56134   0.36999   0.78109   0.00000  Uiso   1.00
H1008  H     0.44072   0.37184   0.71642   0.00000  Uiso   1.00
H1009  H     0.44167   0.63024   0.71423   0.00000  Uiso   1.00
H1010  H     0.60555   0.55230   0.79827   0.00000  Uiso   1.00
H1011  H     0.39133   0.44557   0.70278   0.00000  Uiso   1.00
H1012  H     0.63866   0.44620   0.70164   0.00000  Uiso   1.00
H1013  H     0.59404   0.56620   0.92280   0.00000  Uiso   1.00
H1014  H     0.62219   0.55871   0.99880   0.00000  Uiso   1.00
H1015  H     0.38574   0.47918   0.91353   0.00000  Uiso   1.00
H1016  H     0.41479   0.49040   0.55835   0.00000  Uiso   1.00
H1017  H     0.35975   0.47445   0.50898   0.00000  Uiso   1.00
H1018  H     0.53625   0.55308   0.87665   0.00000  Uiso   1.00
H1019  H     0.56012   0.62820   0.78226   0.00000  Uiso   1.00
N1020  N     0.38265   0.49999   0.74998   0.00000  Uiso   1.00
N1021  N     0.61735   0.50002   0.75000   0.00000  Uiso   1.00
O1022  O     0.46042   0.56011   0.75000   0.00000  Uiso   1.00
O1023  O     0.53961   0.56012   0.75000   0.00000  Uiso   1.00
O1024  O     0.44108   0.49998   0.82549   0.00000  Uiso   1.00
O1025  O     0.52027   0.49999   0.82549   0.00000  Uiso   1.00
O1026  O     0.46039   0.43988   0.75000   0.00000  Uiso   1.00
O1027  O     0.53958   0.43989   0.75000   0.00000  Uiso   1.00
O1028  O     0.47973   0.50001   0.67451   0.00000  Uiso   1.00
O1029  O     0.55892   0.50002   0.67451   0.00000  Uiso   1.00
C1030  C     0.35984   0.57231   0.79792   0.00000  Uiso   1.00
C1031  C     0.37073   0.57061   0.85054   0.00000  Uiso   1.00
C1032  C     0.35632   0.61108   0.88215   0.00000  Uiso   1.00
H1033  H     0.37739   0.63690   0.85994   0.00000  Uiso   1.00
H1034  H     0.65003   0.61829   0.89081   0.00000  Uiso   1.00
H1035  H     0.36461   0.60841   0.91981   0.00000  Uiso   1.00
H1036  H     0.35117   0.54480   0.87428   0.00000  Uiso   1.00
H1037  H     0.41035   0.56673   0.84362   0.00000  Uiso   1.00
H1038  H     0.38657   0.58952   0.76801   0.00000  Uiso   1.00
H1039  H     0.66115   0.59392   0.80439   0.00000  Uiso   1.00
O1040  O     0.47569   0.46299   0.58625   0.00000  Uiso   1.00
C1041  C     0.49943   0.42377   0.57584   0.00000  Uiso   1.00
H1042  H     0.52506   0.41998   0.59943   0.00000  Uiso   1.00
H1043  H     0.52005   0.41951   0.53339   0.00000  Uiso   1.00
C1044  C     0.46101   0.39049   0.59094   0.00000  Uiso   1.00
H1045  H     0.43831   0.39553   0.63231   0.00000  Uiso   1.00
H1046  H     0.43668   0.39283   0.56582   0.00000  Uiso   1.00
C1047  C     0.48463   0.34729   0.58454   0.00000  Uiso   1.00
H1048  H     0.50662   0.34119   0.54310   0.00000  Uiso   1.00
H1049  H     0.45575   0.65726   0.59610   0.00000  Uiso   1.00
H1050  H     0.50860   0.34414   0.60990   0.00000  Uiso   1.00
C1051  C     0.83312   0.57924   0.74983   0.00000  Uiso   1.00
C1052  C     0.81030   0.50513   0.99045   0.00000  Uiso   1.00
C1053  C     0.82181   0.51541   0.93693   0.00000  Uiso   1.00
C1054  C     0.84640   0.51034   0.51639   0.00000  Uiso   1.00
C1055  C     0.88882   0.53298   0.99158   0.00000  Uiso   1.00
C1056  C     0.89599   0.54794   0.94147   0.00000  Uiso   1.00
C1057  C     0.86319   0.53922   0.91444   0.00000  Uiso   1.00
C1058  C     0.84276   0.49294   0.56544   0.00000  Uiso   1.00
C1059  C     0.91542   0.52861   0.56866   0.00000  Uiso   1.00
C1060  C     0.79055   0.50285   0.90794   0.00000  Uiso   1.00
C1061  C     0.86750   0.64481   0.76745   0.00000  Uiso   1.00
C1062  C     0.80695   0.50160   0.85019   0.00000  Uiso   1.00
C1063  C     0.86826   0.35419   0.76680   0.00000  Uiso   1.00
C1064  C     0.83431   0.37614   0.74893   0.00000  Uiso   1.00
C1065  C     0.80022   0.35524   0.73084   0.00000  Uiso   1.00
C1066  C     0.80016   0.64588   0.73042   0.00000  Uiso   1.00
C1067  C     0.83321   0.62390   0.74955   0.00000  Uiso   1.00
C1068  C     0.96561   0.52913   0.77734   0.00000  Uiso   1.00
C1069  C     0.68179   0.53109   0.77605   0.00000  Uiso   1.00
C1070  C     0.69961   0.46974   0.72396   0.00000  Uiso   1.00
C1071  C     0.98368   0.47011   0.72336   0.00000  Uiso   1.00
C1072  C     0.83377   0.42077   0.74960   0.00000  Uiso   1.00
C1073  C     0.85959   0.50030   0.65000   0.00000  Uiso   1.00
C1074  C     0.92338   0.54110   0.51744   0.00000  Uiso   1.00
C1075  C     0.87434   0.50570   0.59333   0.00000  Uiso   1.00
C1076  C     0.74416   0.48809   0.93454   0.00000  Uiso   1.00
C1077  C     0.72960   0.48440   0.98857   0.00000  Uiso   1.00
C1078  C     0.76227   0.49236   0.51635   0.00000  Uiso   1.00
Cu1079 Cu    0.78645   0.49999   0.75000   0.00000  Uiso   1.00
Cu1080 Cu    0.88022   0.50001   0.75000   0.00000  Uiso   1.00
H1081  H     0.94041   0.53806   0.58954   0.00000  Uiso   1.00
H1082  H     0.89467   0.36999   0.78109   0.00000  Uiso   1.00
H1083  H     0.77405   0.37184   0.71642   0.00000  Uiso   1.00
H1084  H     0.77500   0.63024   0.71423   0.00000  Uiso   1.00
H1085  H     0.93888   0.55230   0.79827   0.00000  Uiso   1.00
H1086  H     0.72466   0.44557   0.70278   0.00000  Uiso   1.00
H1087  H     0.97200   0.44620   0.70164   0.00000  Uiso   1.00
H1088  H     0.92738   0.56620   0.92280   0.00000  Uiso   1.00
H1089  H     0.95552   0.55871   0.99880   0.00000  Uiso   1.00
H1090  H     0.71908   0.47918   0.91353   0.00000  Uiso   1.00
H1091  H     0.74812   0.49040   0.55835   0.00000  Uiso   1.00
H1092  H     0.69308   0.47445   0.50898   0.00000  Uiso   1.00
H1093  H     0.86958   0.55308   0.87665   0.00000  Uiso   1.00
H1094  H     0.89346   0.62820   0.78226   0.00000  Uiso   1.00
N1095  N     0.71598   0.49999   0.74998   0.00000  Uiso   1.00
N1096  N     0.95069   0.50002   0.75000   0.00000  Uiso   1.00
O1097  O     0.79375   0.56011   0.75000   0.00000  Uiso   1.00
O1098  O     0.87294   0.56012   0.75000   0.00000  Uiso   1.00
O1099  O     0.77441   0.49998   0.82549   0.00000  Uiso   1.00
O1100  O     0.85360   0.49999   0.82549   0.00000  Uiso   1.00
O1101  O     0.79373   0.43988   0.75000   0.00000  Uiso   1.00
O1102  O     0.87292   0.43989   0.75000   0.00000  Uiso   1.00
O1103  O     0.81306   0.50001   0.67451   0.00000  Uiso   1.00
O1104  O     0.89225   0.50002   0.67451   0.00000  Uiso   1.00
C1105  C     0.69318   0.57231   0.79792   0.00000  Uiso   1.00
C1106  C     0.70406   0.57061   0.85054   0.00000  Uiso   1.00
C1107  C     0.68965   0.61108   0.88215   0.00000  Uiso   1.00
H1108  H     0.71072   0.63690   0.85994   0.00000  Uiso   1.00
H1109  H     0.98336   0.61829   0.89081   0.00000  Uiso   1.00
H1110  H     0.69794   0.60841   0.91981   0.00000  Uiso   1.00
H1111  H     0.68450   0.54480   0.87428   0.00000  Uiso   1.00
H1112  H     0.74368   0.56673   0.84362   0.00000  Uiso   1.00
H1113  H     0.71990   0.58952   0.76801   0.00000  Uiso   1.00
H1114  H     0.99449   0.59392   0.80439   0.00000  Uiso   1.00
O1115  O     0.80902   0.46299   0.58625   0.00000  Uiso   1.00
C1116  C     0.83277   0.42377   0.57584   0.00000  Uiso   1.00
H1117  H     0.85839   0.41998   0.59943   0.00000  Uiso   1.00
H1118  H     0.85338   0.41951   0.53339   0.00000  Uiso   1.00
C1119  C     0.79434   0.39049   0.59094   0.00000  Uiso   1.00
H1120  H     0.77164   0.39553   0.63231   0.00000  Uiso   1.00
H1121  H     0.77001   0.39283   0.56582   0.00000  Uiso   1.00
C1122  C     0.81796   0.34729   0.58454   0.00000  Uiso   1.00
H1123  H     0.83995   0.34119   0.54310   0.00000  Uiso   1.00
H1124  H     0.78908   0.65726   0.59610   0.00000  Uiso   1.00
H1125  H     0.84193   0.34414   0.60990   0.00000  Uiso   1.00
C1126  C     0.16646   0.91258   0.74983   0.00000  Uiso   1.00
C1127  C     0.14364   0.83846   0.99045   0.00000  Uiso   1.00
C1128  C     0.15515   0.84874   0.93693   0.00000  Uiso   1.00
C1129  C     0.17973   0.84367   0.51639   0.00000  Uiso   1.00
C1130  C     0.22215   0.86631   0.99158   0.00000  Uiso   1.00
C1131  C     0.22932   0.88128   0.94147   0.00000  Uiso   1.00
C1132  C     0.19653   0.87256   0.91444   0.00000  Uiso   1.00
C1133  C     0.17609   0.82627   0.56544   0.00000  Uiso   1.00
C1134  C     0.24876   0.86194   0.56866   0.00000  Uiso   1.00
C1135  C     0.12388   0.83618   0.90794   0.00000  Uiso   1.00
C1136  C     0.20083   0.97814   0.76745   0.00000  Uiso   1.00
C1137  C     0.14029   0.83493   0.85019   0.00000  Uiso   1.00
C1138  C     0.20159   0.68752   0.76680   0.00000  Uiso   1.00
C1139  C     0.16765   0.70947   0.74893   0.00000  Uiso   1.00
C1140  C     0.13356   0.68857   0.73084   0.00000  Uiso   1.00
C1141  C     0.13349   0.97921   0.73042   0.00000  Uiso   1.00
C1142  C     0.16655   0.95723   0.74955   0.00000  Uiso   1.00
C1143  C     0.29895   0.86247   0.77734   0.00000  Uiso   1.00
C1144  C     0.01512   0.86442   0.77605   0.00000  Uiso   1.00
C1145  C     0.03295   0.80308   0.72396   0.00000  Uiso   1.00
C1146  C     0.31701   0.80344   0.72336   0.00000  Uiso   1.00
C1147  C     0.16710   0.75411   0.74960   0.00000  Uiso   1.00
C1148  C     0.19292   0.83363   0.65000   0.00000  Uiso   1.00
C1149  C     0.25672   0.87444   0.51744   0.00000  Uiso   1.00
C1150  C     0.20768   0.83904   0.59333   0.00000  Uiso   1.00
C1151  C     0.07749   0.82143   0.93454   0.00000  Uiso   1.00
C1152  C     0.06293   0.81773   0.98857   0.00000  Uiso   1.00
C1153  C     0.09560   0.82570   0.51635   0.00000  Uiso   1.00
Cu1154 Cu    0.11978   0.83333   0.75000   0.00000  Uiso   1.00
Cu1155 Cu    0.21355   0.83334   0.75000   0.00000  Uiso   1.00
H1156  H     0.27374   0.87139   0.58954   0.00000  Uiso   1.00
H1157  H     0.22800   0.70332   0.78109   0.00000  Uiso   1.00
H1158  H     0.10738   0.70518   0.71642   0.00000  Uiso   1.00
H1159  H     0.10833   0.96358   0.71423   0.00000  Uiso   1.00
H1160  H     0.27222   0.88564   0.79827   0.00000  Uiso   1.00
H1161  H     0.05799   0.77890   0.70278   0.00000  Uiso   1.00
H1162  H     0.30533   0.77953   0.70164   0.00000  Uiso   1.00
H1163  H     0.26071   0.89953   0.92280   0.00000  Uiso   1.00
H1164  H     0.28885   0.89204   0.99880   0.00000  Uiso   1.00
H1165  H     0.05241   0.81251   0.91353   0.00000  Uiso   1.00
H1166  H     0.08146   0.82374   0.55835   0.00000  Uiso   1.00
H1167  H     0.02641   0.80778   0.50898   0.00000  Uiso   1.00
H1168  H     0.20292   0.88642   0.87665   0.00000  Uiso   1.00
H1169  H     0.22679   0.96153   0.78226   0.00000  Uiso   1.00
N1170  N     0.04931   0.83332   0.74998   0.00000  Uiso   1.00
N1171  N     0.28402   0.83335   0.75000   0.00000  Uiso   1.00
O1172  O     0.12708   0.89345   0.75000   0.00000  Uiso   1.00
O1173  O     0.20627   0.89346   0.75000   0.00000  Uiso   1.00
O1174  O     0.10775   0.83332   0.82549   0.00000  Uiso   1.00
O1175  O     0.18694   0.83333   0.82549   0.00000  Uiso   1.00
O1176  O     0.12706   0.77321   0.75000   0.00000  Uiso   1.00
O1177  O     0.20625   0.77322   0.75000   0.00000  Uiso   1.00
O1178  O     0.14640   0.83334   0.67451   0.00000  Uiso   1.00
O1179  O     0.22559   0.83335   0.67451   0.00000  Uiso   1.00
C1180  C     0.02651   0.90564   0.79792   0.00000  Uiso   1.00
C1181  C     0.03739   0.90394   0.85054   0.00000  Uiso   1.00
C1182  C     0.02298   0.94441   0.88215   0.00000  Uiso   1.00
H1183  H     0.04405   0.97023   0.85994   0.00000  Uiso   1.00
H1184  H     0.31669   0.95162   0.89081   0.00000  Uiso   1.00
H1185  H     0.03128   0.94174   0.91981   0.00000  Uiso   1.00
H1186  H     0.01783   0.87813   0.87428   0.00000  Uiso   1.00
H1187  H     0.07701   0.90007   0.84362   0.00000  Uiso   1.00
H1188  H     0.05323   0.92285   0.76801   0.00000  Uiso   1.00
H1189  H     0.32782   0.92725   0.80439   0.00000  Uiso   1.00
O1190  O     0.14236   0.79633   0.58625   0.00000  Uiso   1.00
C1191  C     0.16610   0.75710   0.57584   0.00000  Uiso   1.00
H1192  H     0.19173   0.75331   0.59943   0.00000  Uiso   1.00
H1193  H     0.18671   0.75285   0.53339   0.00000  Uiso   1.00
C1194  C     0.12768   0.72382   0.59094   0.00000  Uiso   1.00
H1195  H     0.10497   0.72887   0.63231   0.00000  Uiso   1.00
H1196  H     0.10334   0.72616   0.56582   0.00000  Uiso   1.00
C1197  C     0.15129   0.68063   0.58454   0.00000  Uiso   1.00
H1198  H     0.17329   0.67453   0.54310   0.00000  Uiso   1.00
H1199  H     0.12242   0.99060   0.59610   0.00000  Uiso   1.00
H1200  H     0.17526   0.67747   0.60990   0.00000  Uiso   1.00
C1201  C     0.49979   0.91258   0.74983   0.00000  Uiso   1.00
C1202  C     0.47697   0.83846   0.99045   0.00000  Uiso   1.00
C1203  C     0.48848   0.84874   0.93693   0.00000  Uiso   1.00
C1204  C     0.51306   0.84367   0.51639   0.00000  Uiso   1.00
C1205  C     0.55548   0.86631   0.99158   0.00000  Uiso   1.00
C1206  C     0.56266   0.88128   0.94147   0.00000  Uiso   1.00
C1207  C     0.52986   0.87256   0.91444   0.00000  Uiso   1.00
C1208  C     0.50943   0.82627   0.56544   0.00000  Uiso   1.00
C1209  C     0.58209   0.86194   0.56866   0.00000  Uiso   1.00
C1210  C     0.45721   0.83618   0.90794   0.00000  Uiso   1.00
C1211  C     0.53416   0.97814   0.76745   0.00000  Uiso   1.00
C1212  C     0.47362   0.83493   0.85019   0.00000  Uiso   1.00
C1213  C     0.53493   0.68752   0.76680   0.00000  Uiso   1.00
C1214  C     0.50098   0.70947   0.74893   0.00000  Uiso   1.00
C1215  C     0.46689   0.68857   0.73084   0.00000  Uiso   1.00
C1216  C     0.46682   0.97921   0.73042   0.00000  Uiso   1.00
C1217  C     0.49988   0.95723   0.74955   0.00000  Uiso   1.00
C1218  C     0.63228   0.86247   0.77734   0.00000  Uiso   1.00
C1219  C     0.34846   0.86442   0.77605   0.00000  Uiso   1.00
C1220  C     0.36628   0.80308   0.72396   0.00000  Uiso   1.00
C1221  C     0.65035   0.80344   0.72336   0.00000  Uiso   1.00
C1222  C     0.50044   0.75411   0.74960   0.00000  Uiso   1.00
C1223  C     0.52626   0.83363   0.65000   0.00000  Uiso   1.00
C1224  C     0.59005   0.87444   0.51744   0.00000  Uiso   1.00
C1225  C     0.54101   0.83904   0.59333   0.00000  Uiso   1.00
C1226  C     0.41083   0.82143   0.93454   0.00000  Uiso   1.00
C1227  C     0.39627   0.81773   0.98857   0.00000  Uiso   1.00
C1228  C     0.42893   0.82570   0.51635   0.00000  Uiso   1.00
Cu1229 Cu    0.45311   0.83333   0.75000   0.00000  Uiso   1.00
Cu1230 Cu    0.54689   0.83334   0.75000   0.00000  Uiso   1.00
H1231  H     0.60708   0.87139   0.58954   0.00000  Uiso   1.00
H1232  H     0.56134   0.70332   0.78109   0.00000  Uiso   1.00
H1233  H     0.44072   0.70518   0.71642   0.00000  Uiso   1.00
H1234  H     0.44167   0.96358   0.71423   0.00000  Uiso   1.00
H1235  H     0.60555   0.88564   0.79827   0.00000  Uiso   1.00
H1236  H     0.39133   0.77890   0.70278   0.00000  Uiso   1.00
H1237  H     0.63866   0.77953   0.70164   0.00000  Uiso   1.00
H1238  H     0.59404   0.89953   0.92280   0.00000  Uiso   1.00
H1239  H     0.62219   0.89204   0.99880   0.00000  Uiso   1.00
H1240  H     0.38574   0.81251   0.91353   0.00000  Uiso   1.00
H1241  H     0.41479   0.82374   0.55835   0.00000  Uiso   1.00
H1242  H     0.35975   0.80778   0.50898   0.00000  Uiso   1.00
H1243  H     0.53625   0.88642   0.87665   0.00000  Uiso   1.00
H1244  H     0.56012   0.96153   0.78226   0.00000  Uiso   1.00
N1245  N     0.38265   0.83332   0.74998   0.00000  Uiso   1.00
N1246  N     0.61735   0.83335   0.75000   0.00000  Uiso   1.00
O1247  O     0.46042   0.89345   0.75000   0.00000  Uiso   1.00
O1248  O     0.53961   0.89346   0.75000   0.00000  Uiso   1.00
O1249  O     0.44108   0.83332   0.82549   0.00000  Uiso   1.00
O1250  O     0.52027   0.83333   0.82549   0.00000  Uiso   1.00
O1251  O     0.46039   0.77321   0.75000   0.00000  Uiso   1.00
O1252  O     0.53958   0.77322   0.75000   0.00000  Uiso   1.00
O1253  O     0.47973   0.83334   0.67451   0.00000  Uiso   1.00
O1254  O     0.55892   0.83335   0.67451   0.00000  Uiso   1.00
C1255  C     0.35984   0.90564   0.79792   0.00000  Uiso   1.00
C1256  C     0.37073   0.90394   0.85054   0.00000  Uiso   1.00
C1257  C     0.35632   0.94441   0.88215   0.00000  Uiso   1.00
H1258  H     0.37739   0.97023   0.85994   0.00000  Uiso   1.00
H1259  H     0.65003   0.95162   0.89081   0.00000  Uiso   1.00
H1260  H     0.36461   0.94174   0.91981   0.00000  Uiso   1.00
H1261  H     0.35117   0.87813   0.87428   0.00000  Uiso   1.00
H1262  H     0.41035   0.90007   0.84362   0.00000  Uiso   1.00
H1263  H     0.38657   0.92285   0.76801   0.00000  Uiso   1.00
H1264  H     0.66115   0.92725   0.80439   0.00000  Uiso   1.00
O1265  O     0.47569   0.79633   0.58625   0.00000  Uiso   1.00
C1266  C     0.49943   0.75710   0.57584   0.00000  Uiso   1.00
H1267  H     0.52506   0.75331   0.59943   0.00000  Uiso   1.00
H1268  H     0.52005   0.75285   0.53339   0.00000  Uiso   1.00
C1269  C     0.46101   0.72382   0.59094   0.00000  Uiso   1.00
H1270  H     0.43831   0.72887   0.63231   0.00000  Uiso   1.00
H1271  H     0.43668   0.72616   0.56582   0.00000  Uiso   1.00
C1272  C     0.48463   0.68063   0.58454   0.00000  Uiso   1.00
H1273  H     0.50662   0.67453   0.54310   0.00000  Uiso   1.00
H1274  H     0.45575   0.99060   0.59610   0.00000  Uiso   1.00
H1275  H     0.50860   0.67747   0.60990   0.00000  Uiso   1.00
C1276  C     0.83312   0.91258   0.74983   0.00000  Uiso   1.00
C1277  C     0.81030   0.83846   0.99045   0.00000  Uiso   1.00
C1278  C     0.82181   0.84874   0.93693   0.00000  Uiso   1.00
C1279  C     0.84640   0.84367   0.51639   0.00000  Uiso   1.00
C1280  C     0.88882   0.86631   0.99158   0.00000  Uiso   1.00
C1281  C     0.89599   0.88128   0.94147   0.00000  Uiso   1.00
C1282  C     0.86319   0.87256   0.91444   0.00000  Uiso   1.00
C1283  C     0.84276   0.82627   0.56544   0.00000  Uiso   1.00
C1284  C     0.91542   0.86194   0.56866   0.00000  Uiso   1.00
C1285  C     0.79055   0.83618   0.90794   0.00000  Uiso   1.00
C1286  C     0.86750   0.97814   0.76745   0.00000  Uiso   1.00
C1287  C     0.80695   0.83493   0.85019   0.00000  Uiso   1.00
C1288  C     0.86826   0.68752   0.76680   0.00000  Uiso   1.00
C1289  C     0.83431   0.70947   0.74893   0.00000  Uiso   1.00
C1290  C     0.80022   0.68857   0.73084   0.00000  Uiso   1.00
C1291  C     0.80016   0.97921   0.73042   0.00000  Uiso   1.00
C1292  C     0.83321   0.95723   0.74955   0.00000  Uiso   1.00
C1293  C     0.96561   0.86247   0.77734   0.00000  Uiso   1.00
C1294  C     0.68179   0.86442   0.77605   0.00000  Uiso   1.00
C1295  C     0.69961   0.80308   0.72396   0.00000  Uiso   1.00
C1296  C     0.98368   0.80344   0.72336   0.00000  Uiso   1.00
C1297  C     0.83377   0.75411   0.74960   0.00000  Uiso   1.00
C1298  C     0.85959   0.83363   0.65000   0.00000  Uiso   1.00
C1299  C     0.92338   0.87444   0.51744   0.00000  Uiso   1.00
C1300  C     0.87434   0.83904   0.59333   0.00000  Uiso   1.00
C1301  C     0.74416   0.82143   0.93454   0.00000  Uiso   1.00
C1302  C     0.72960   0.81773   0.98857   0.00000  Uiso   1.00
C1303  C     0.76227   0.82570   0.51635   0.00000  Uiso   1.00
Cu1304 Cu    0.78645   0.83333   0.75000   0.00000  Uiso   1.00
Cu1305 Cu    0.88022   0.83334   0.75000   0.00000  Uiso   1.00
H1306  H     0.94041   0.87139   0.58954   0.00000  Uiso   1.00
H1307  H     0.89467   0.70332   0.78109   0.00000  Uiso   1.00
H1308  H     0.77405   0.70518   0.71642   0.00000  Uiso   1.00
H1309  H     0.77500   0.96358   0.71423   0.00000  Uiso   1.00
H1310  H     0.93888   0.88564   0.79827   0.00000  Uiso   1.00
H1311  H     0.72466   0.77890   0.70278   0.00000  Uiso   1.00
H1312  H     0.97200   0.77953   0.70164   0.00000  Uiso   1.00
H1313  H     0.92738   0.89953   0.92280   0.00000  Uiso   1.00
H1314  H     0.95552   0.89204   0.99880   0.00000  Uiso   1.00
H1315  H     0.71908   0.81251   0.91353   0.00000  Uiso   1.00
H1316  H     0.74812   0.82374   0.55835   0.00000  Uiso   1.00
H1317  H     0.69308   0.80778   0.50898   0.00000  Uiso   1.00
H1318  H     0.86958   0.88642   0.87665   0.00000  Uiso   1.00
H1319  H     0.89346   0.96153   0.78226   0.00000  Uiso   1.00
N1320  N     0.71598   0.83332   0.74998   0.00000  Uiso   1.00
N1321  N     0.95069   0.83335   0.75000   0.00000  Uiso   1.00
O1322  O     0.79375   0.89345   0.75000   0.00000  Uiso   1.00
O1323  O     0.87294   0.89346   0.75000   0.00000  Uiso   1.00
O1324  O     0.77441   0.83332   0.82549   0.00000  Uiso   1.00
O1325  O     0.85360   0.83333   0.82549   0.00000  Uiso   1.00
O1326  O     0.79373   0.77321   0.75000   0.00000  Uiso   1.00
O1327  O     0.87292   0.77322   0.75000   0.00000  Uiso   1.00
O1328  O     0.81306   0.83334   0.67451   0.00000  Uiso   1.00
O1329  O     0.89225   0.83335   0.67451   0.00000  Uiso   1.00
C1330  C     0.69318   0.90564   0.79792   0.00000  Uiso   1.00
C1331  C     0.70406   0.90394   0.85054   0.00000  Uiso   1.00
C1332  C     0.68965   0.94441   0.88215   0.00000  Uiso   1.00
H1333  H     0.71072   0.97023   0.85994   0.00000  Uiso   1.00
H1334  H     0.98336   0.95162   0.89081   0.00000  Uiso   1.00
H1335  H     0.69794   0.94174   0.91981   0.00000  Uiso   1.00
H1336  H     0.68450   0.87813   0.87428   0.00000  Uiso   1.00
H1337  H     0.74368   0.90007   0.84362   0.00000  Uiso   1.00
H1338  H     0.71990   0.92285   0.76801   0.00000  Uiso   1.00
H1339  H     0.99449   0.92725   0.80439   0.00000  Uiso   1.00
O1340  O     0.80902   0.79633   0.58625   0.00000  Uiso   1.00
C1341  C     0.83277   0.75710   0.57584   0.00000  Uiso   1.00
H1342  H     0.85839   0.75331   0.59943   0.00000  Uiso   1.00
H1343  H     0.85338   0.75285   0.53339   0.00000  Uiso   1.00
C1344  C     0.79434   0.72382   0.59094   0.00000  Uiso   1.00
H1345  H     0.77164   0.72887   0.63231   0.00000  Uiso   1.00
H1346  H     0.77001   0.72616   0.56582   0.00000  Uiso   1.00
C1347  C     0.81796   0.68063   0.58454   0.00000  Uiso   1.00
H1348  H     0.83995   0.67453   0.54310   0.00000  Uiso   1.00
H1349  H     0.78908   0.99060   0.59610   0.00000  Uiso   1.00
H1350  H     0.84193   0.67747   0.60990   0.00000  Uiso   1.00
loop_
_geom_bond_atom_site_label_1
_geom_bond_atom_site_label_2
_geom_bond_distance
_geom_bond_site_symmetry_2
_ccdc_geom_bond_type
C1     O47     1.300   .     A
C1     O48     1.291   .     A
C1     C17     1.446   .     S
C2     C3      1.418   .     A
C2     C679    1.426   .     S
C2     C703    1.416   .     S
C3     C7      1.409   .     A
C3     C10     1.418   .     A
C4     C8      1.414   .     A
C4     C677    1.426   1_554 S
C4     C680    1.422   1_554 S
C5     C6      1.392   .     A
C5     C679    1.422   .     S
C5     C699    1.402   .     S
C6     H38     1.081   .     S
C6     C7      1.385   .     A
C7     H43     1.079   .     S
C8     O65     1.384   .     S
C8     C25     1.406   .     A
C9     C25     1.398   .     A
C9     C24     1.390   .     A
C9     H31     1.083   .     S
C10    C26     1.403   .     A
C10    C12     1.475   .     S
C11    H44     1.084   .     S
C11    C17     1.403   .     A
C11    C238    1.384   .     S
C12    O49     1.303   .     A
C12    O50     1.301   .     A
C13    H32     1.083   .     S
C13    C14     1.398   .     A
C13    C461    1.384   1_545 S
C14    C15     1.401   .     A
C14    C22     1.445   .     S
C15    H33     1.082   .     S
C15    C466    1.383   1_545 S
C16    H34     1.081   .     S
C16    C17     1.398   .     A
C16    C240    1.383   .     S
C18    H35     1.081   .     S
C18    N46     1.342   .     A
C18    C94     1.416   .     S
C19    C55     1.532   .     S
C19    N45     1.410   .     A
C19    C168    1.416   1_455 S
C20    N45     1.367   .     A
C20    H36     1.081   .     S
C20    C171    1.421   1_455 S
C21    N46     1.370   .     A
C21    H37     1.082   .     S
C21    C95     1.421   .     S
C22    O52     1.298   .     A
C22    O51     1.292   .     A
C23    O53     1.298   .     A
C23    O54     1.300   .     A
C23    C25     1.462   .     S
C24    C680    1.402   1_554 S
C24    H714    1.084   1_554 S
C26    C27     1.388   .     A
C26    H40     1.083   .     S
C27    C703    1.391   .     S
C27    H717    1.083   .     S
C28    H41     1.078   .     S
C28    C702    1.391   1_554 S
C28    C677    1.416   1_554 S
Cu29   O49     1.947   .     S
Cu29   O47     1.963   .     S
Cu29   N45     2.025   .     S
Cu29   Cu30    2.695   .     S
Cu29   O51     1.954   .     S
Cu29   O53     1.934   .     S
Cu30   O54     1.947   .     S
Cu30   O48     1.954   .     S
Cu30   O50     1.934   .     S
Cu30   O52     1.963   .     S
Cu30   N46     2.025   .     S
H39    C699    1.084   .     S
H42    C702    1.083   1_554 S
C55    C56     1.538   .     S
C55    H63     1.094   .     S
C55    H214    1.113   1_455 S
C56    C57     1.530   .     S
C56    H62     1.100   .     S
C56    H61     1.111   .     S
C57    H60     1.111   .     S
C57    H58     1.111   .     S
C57    H209    1.109   1_455 S
H59    C132    1.109   .     S
H64    C130    1.113   .     S
O65    C66     1.412   .     S
C66    H68     1.117   .     S
C66    C69     1.528   .     S
C66    H67     1.114   .     S
C69    H71     1.112   .     S
C69    C72     1.526   .     S
C69    H70     1.110   .     S
C72    H75     1.111   .     S
C72    H73     1.111   .     S
C72    H524    1.110   1_545 S
H74    C297    1.110   .     S
C76    O122    1.300   .     A
C76    O123    1.291   .     A
C76    C92     1.446   .     S
C77    C78     1.418   .     A
C77    C754    1.426   .     S
C77    C778    1.416   .     S
C78    C82     1.409   .     A
C78    C85     1.418   .     A
C79    C83     1.414   .     A
C79    C752    1.426   1_554 S
C79    C755    1.422   1_554 S
C80    C81     1.392   .     A
C80    C754    1.422   .     S
C80    C774    1.402   .     S
C81    H113    1.081   .     S
C81    C82     1.385   .     A
C82    H118    1.079   .     S
C83    O140    1.384   .     S
C83    C100    1.406   .     A
C84    C100    1.398   .     A
C84    C99     1.390   .     A
C84    H106    1.083   .     S
C85    C101    1.403   .     A
C85    C87     1.475   .     S
C86    H119    1.084   .     S
C86    C92     1.403   .     A
C86    C313    1.384   .     S
C87    O124    1.303   .     A
C87    O125    1.301   .     A
C88    H107    1.083   .     S
C88    C89     1.398   .     A
C88    C536    1.384   1_545 S
C89    C90     1.401   .     A
C89    C97     1.445   .     S
C90    H108    1.082   .     S
C90    C541    1.383   1_545 S
C91    H109    1.081   .     S
C91    C92     1.398   .     A
C91    C315    1.383   .     S
C93    H110    1.081   .     S
C93    N121    1.342   .     A
C93    C169    1.416   .     S
C94    C130    1.532   .     S
C94    N120    1.410   .     A
C95    N120    1.367   .     A
C95    H111    1.081   .     S
C96    N121    1.370   .     A
C96    H112    1.082   .     S
C96    C170    1.421   .     S
C97    O127    1.298   .     A
C97    O126    1.292   .     A
C98    O128    1.298   .     A
C98    O129    1.300   .     A
C98    C100    1.462   .     S
C99    C755    1.402   1_554 S
C99    H789    1.084   1_554 S
C101   C102    1.388   .     A
C101   H115    1.083   .     S
C102   C778    1.391   .     S
C102   H792    1.083   .     S
C103   H116    1.078   .     S
C103   C777    1.391   1_554 S
C103   C752    1.416   1_554 S
Cu104  O124    1.947   .     S
Cu104  O122    1.963   .     S
Cu104  N120    2.025   .     S
Cu104  Cu105   2.695   .     S
Cu104  O126    1.954   .     S
Cu104  O128    1.934   .     S
Cu105  O129    1.947   .     S
Cu105  O123    1.954   .     S
Cu105  O125    1.934   .     S
Cu105  O127    1.963   .     S
Cu105  N121    2.025   .     S
H114   C774    1.084   .     S
H117   C777    1.083   1_554 S
C130   C131    1.538   .     S
C130   H138    1.094   .     S
C131   C132    1.530   .     S
C131   H137    1.100   .     S
C131   H136    1.111   .     S
C132   H135    1.111   .     S
C132   H133    1.111   .     S
H134   C207    1.109   .     S
H139   C205    1.113   .     S
O140   C141    1.412   .     S
C141   H143    1.117   .     S
C141   C144    1.528   .     S
C141   H142    1.114   .     S
C144   H146    1.112   .     S
C144   C147    1.526   .     S
C144   H145    1.110   .     S
C147   H150    1.111   .     S
C147   H148    1.111   .     S
C147   H599    1.110   1_545 S
H149   C372    1.110   .     S
C151   O197    1.300   .     A
C151   O198    1.291   .     A
C151   C167    1.446   .     S
C152   C153    1.418   .     A
C152   C829    1.426   .     S
C152   C853    1.416   .     S
C153   C157    1.409   .     A
C153   C160    1.418   .     A
C154   C158    1.414   .     A
C154   C827    1.426   1_554 S
C154   C830    1.422   1_554 S
C155   C156    1.392   .     A
C155   C829    1.422   .     S
C155   C849    1.402   .     S
C156   H188    1.081   .     S
C156   C157    1.385   .     A
C157   H193    1.079   .     S
C158   O215    1.384   .     S
C158   C175    1.406   .     A
C159   C175    1.398   .     A
C159   C174    1.390   .     A
C159   H181    1.083   .     S
C160   C176    1.403   .     A
C160   C162    1.475   .     S
C161   H194    1.084   .     S
C161   C167    1.403   .     A
C161   C388    1.384   .     S
C162   O199    1.303   .     A
C162   O200    1.301   .     A
C163   H182    1.083   .     S
C163   C164    1.398   .     A
C163   C611    1.384   1_545 S
C164   C165    1.401   .     A
C164   C172    1.445   .     S
C165   H183    1.082   .     S
C165   C616    1.383   1_545 S
C166   H184    1.081   .     S
C166   C167    1.398   .     A
C166   C390    1.383   .     S
C168   H185    1.081   .     S
C168   N196    1.342   .     A
C168   C19     1.416   1_655 S
C169   C205    1.532   .     S
C169   N195    1.410   .     A
C170   N195    1.367   .     A
C170   H186    1.081   .     S
C171   N196    1.370   .     A
C171   H187    1.082   .     S
C171   C20     1.421   1_655 S
C172   O202    1.298   .     A
C172   O201    1.292   .     A
C173   O203    1.298   .     A
C173   O204    1.300   .     A
C173   C175    1.462   .     S
C174   C830    1.402   1_554 S
C174   H864    1.084   1_554 S
C176   C177    1.388   .     A
C176   H190    1.083   .     S
C177   C853    1.391   .     S
C177   H867    1.083   .     S
C178   H191    1.078   .     S
C178   C852    1.391   1_554 S
C178   C827    1.416   1_554 S
Cu179  O199    1.947   .     S
Cu179  O197    1.963   .     S
Cu179  N195    2.025   .     S
Cu179  Cu180   2.695   .     S
Cu179  O201    1.954   .     S
Cu179  O203    1.934   .     S
Cu180  O204    1.947   .     S
Cu180  O198    1.954   .     S
Cu180  O200    1.934   .     S
Cu180  O202    1.963   .     S
Cu180  N196    2.025   .     S
H189   C849    1.084   .     S
H192   C852    1.083   1_554 S
C205   C206    1.538   .     S
C205   H213    1.094   .     S
C206   C207    1.530   .     S
C206   H212    1.100   .     S
C206   H211    1.111   .     S
C207   H210    1.111   .     S
C207   H208    1.111   .     S
H209   C57     1.109   1_655 S
H214   C55     1.113   1_655 S
O215   C216    1.412   .     S
C216   H218    1.117   .     S
C216   C219    1.528   .     S
C216   H217    1.114   .     S
C219   H221    1.112   .     S
C219   C222    1.526   .     S
C219   H220    1.110   .     S
C222   H225    1.111   .     S
C222   H223    1.111   .     S
C222   H674    1.110   1_545 S
H224   C447    1.110   .     S
C226   O272    1.300   .     A
C226   O273    1.291   .     A
C226   C242    1.446   .     S
C227   C228    1.418   .     A
C227   C904    1.426   .     S
C227   C928    1.416   .     S
C228   C232    1.409   .     A
C228   C235    1.418   .     A
C229   C233    1.414   .     A
C229   C902    1.426   1_554 S
C229   C905    1.422   1_554 S
C230   C231    1.392   .     A
C230   C904    1.422   .     S
C230   C924    1.402   .     S
C231   H263    1.081   .     S
C231   C232    1.385   .     A
C232   H268    1.079   .     S
C233   O290    1.384   .     S
C233   C250    1.406   .     A
C234   C250    1.398   .     A
C234   C249    1.390   .     A
C234   H256    1.083   .     S
C235   C251    1.403   .     A
C235   C237    1.475   .     S
C236   H269    1.084   .     S
C236   C242    1.403   .     A
C236   C463    1.384   .     S
C237   O274    1.303   .     A
C237   O275    1.301   .     A
C238   H257    1.083   .     S
C238   C239    1.398   .     A
C239   C240    1.401   .     A
C239   C247    1.445   .     S
C240   H258    1.082   .     S
C241   H259    1.081   .     S
C241   C242    1.398   .     A
C241   C465    1.383   .     S
C243   H260    1.081   .     S
C243   N271    1.342   .     A
C243   C319    1.416   .     S
C244   C280    1.532   .     S
C244   N270    1.410   .     A
C244   C393    1.416   1_455 S
C245   N270    1.367   .     A
C245   H261    1.081   .     S
C245   C396    1.421   1_455 S
C246   N271    1.370   .     A
C246   H262    1.082   .     S
C246   C320    1.421   .     S
C247   O277    1.298   .     A
C247   O276    1.292   .     A
C248   O278    1.298   .     A
C248   O279    1.300   .     A
C248   C250    1.462   .     S
C249   C905    1.402   1_554 S
C249   H939    1.084   1_554 S
C251   C252    1.388   .     A
C251   H265    1.083   .     S
C252   C928    1.391   .     S
C252   H942    1.083   .     S
C253   H266    1.078   .     S
C253   C927    1.391   1_554 S
C253   C902    1.416   1_554 S
Cu254  O274    1.947   .     S
Cu254  O272    1.963   .     S
Cu254  N270    2.025   .     S
Cu254  Cu255   2.695   .     S
Cu254  O276    1.954   .     S
Cu254  O278    1.934   .     S
Cu255  O279    1.947   .     S
Cu255  O273    1.954   .     S
Cu255  O275    1.934   .     S
Cu255  O277    1.963   .     S
Cu255  N271    2.025   .     S
H264   C924    1.084   .     S
H267   C927    1.083   1_554 S
C280   C281    1.538   .     S
C280   H288    1.094   .     S
C280   H439    1.113   1_455 S
C281   C282    1.530   .     S
C281   H287    1.100   .     S
C281   H286    1.111   .     S
C282   H285    1.111   .     S
C282   H283    1.111   .     S
C282   H434    1.109   1_455 S
H284   C357    1.109   .     S
H289   C355    1.113   .     S
O290   C291    1.412   .     S
C291   H293    1.117   .     S
C291   C294    1.528   .     S
C291   H292    1.114   .     S
C294   H296    1.112   .     S
C294   C297    1.526   .     S
C294   H295    1.110   .     S
C297   H300    1.111   .     S
C297   H298    1.111   .     S
H299   C522    1.110   .     S
C301   O347    1.300   .     A
C301   O348    1.291   .     A
C301   C317    1.446   .     S
C302   C303    1.418   .     A
C302   C979    1.426   .     S
C302   C1003   1.416   .     S
C303   C307    1.409   .     A
C303   C310    1.418   .     A
C304   C308    1.414   .     A
C304   C977    1.426   1_554 S
C304   C980    1.422   1_554 S
C305   C306    1.392   .     A
C305   C979    1.422   .     S
C305   C999    1.402   .     S
C306   H338    1.081   .     S
C306   C307    1.385   .     A
C307   H343    1.079   .     S
C308   O365    1.384   .     S
C308   C325    1.406   .     A
C309   C325    1.398   .     A
C309   C324    1.390   .     A
C309   H331    1.083   .     S
C310   C326    1.403   .     A
C310   C312    1.475   .     S
C311   H344    1.084   .     S
C311   C317    1.403   .     A
C311   C538    1.384   .     S
C312   O349    1.303   .     A
C312   O350    1.301   .     A
C313   H332    1.083   .     S
C313   C314    1.398   .     A
C314   C315    1.401   .     A
C314   C322    1.445   .     S
C315   H333    1.082   .     S
C316   H334    1.081   .     S
C316   C317    1.398   .     A
C316   C540    1.383   .     S
C318   H335    1.081   .     S
C318   N346    1.342   .     A
C318   C394    1.416   .     S
C319   C355    1.532   .     S
C319   N345    1.410   .     A
C320   N345    1.367   .     A
C320   H336    1.081   .     S
C321   N346    1.370   .     A
C321   H337    1.082   .     S
C321   C395    1.421   .     S
C322   O352    1.298   .     A
C322   O351    1.292   .     A
C323   O353    1.298   .     A
C323   O354    1.300   .     A
C323   C325    1.462   .     S
C324   C980    1.402   1_554 S
C324   H1014   1.084   1_554 S
C326   C327    1.388   .     A
C326   H340    1.083   .     S
C327   C1003   1.391   .     S
C327   H1017   1.083   .     S
C328   H341    1.078   .     S
C328   C1002   1.391   1_554 S
C328   C977    1.416   1_554 S
Cu329  O349    1.947   .     S
Cu329  O347    1.963   .     S
Cu329  N345    2.025   .     S
Cu329  Cu330   2.695   .     S
Cu329  O351    1.954   .     S
Cu329  O353    1.934   .     S
Cu330  O354    1.947   .     S
Cu330  O348    1.954   .     S
Cu330  O350    1.934   .     S
Cu330  O352    1.963   .     S
Cu330  N346    2.025   .     S
H339   C999    1.084   .     S
H342   C1002   1.083   1_554 S
C355   C356    1.538   .     S
C355   H363    1.094   .     S
C356   C357    1.530   .     S
C356   H362    1.100   .     S
C356   H361    1.111   .     S
C357   H360    1.111   .     S
C357   H358    1.111   .     S
H359   C432    1.109   .     S
H364   C430    1.113   .     S
O365   C366    1.412   .     S
C366   H368    1.117   .     S
C366   C369    1.528   .     S
C366   H367    1.114   .     S
C369   H371    1.112   .     S
C369   C372    1.526   .     S
C369   H370    1.110   .     S
C372   H375    1.111   .     S
C372   H373    1.111   .     S
H374   C597    1.110   .     S
C376   O422    1.300   .     A
C376   O423    1.291   .     A
C376   C392    1.446   .     S
C377   C378    1.418   .     A
C377   C1054   1.426   .     S
C377   C1078   1.416   .     S
C378   C382    1.409   .     A
C378   C385    1.418   .     A
C379   C383    1.414   .     A
C379   C1052   1.426   1_554 S
C379   C1055   1.422   1_554 S
C380   C381    1.392   .     A
C380   C1054   1.422   .     S
C380   C1074   1.402   .     S
C381   H413    1.081   .     S
C381   C382    1.385   .     A
C382   H418    1.079   .     S
C383   O440    1.384   .     S
C383   C400    1.406   .     A
C384   C400    1.398   .     A
C384   C399    1.390   .     A
C384   H406    1.083   .     S
C385   C401    1.403   .     A
C385   C387    1.475   .     S
C386   H419    1.084   .     S
C386   C392    1.403   .     A
C386   C613    1.384   .     S
C387   O424    1.303   .     A
C387   O425    1.301   .     A
C388   H407    1.083   .     S
C388   C389    1.398   .     A
C389   C390    1.401   .     A
C389   C397    1.445   .     S
C390   H408    1.082   .     S
C391   H409    1.081   .     S
C391   C392    1.398   .     A
C391   C615    1.383   .     S
C393   H410    1.081   .     S
C393   N421    1.342   .     A
C393   C244    1.416   1_655 S
C394   C430    1.532   .     S
C394   N420    1.410   .     A
C395   N420    1.367   .     A
C395   H411    1.081   .     S
C396   N421    1.370   .     A
C396   H412    1.082   .     S
C396   C245    1.421   1_655 S
C397   O427    1.298   .     A
C397   O426    1.292   .     A
C398   O428    1.298   .     A
C398   O429    1.300   .     A
C398   C400    1.462   .     S
C399   C1055   1.402   1_554 S
C399   H1089   1.084   1_554 S
C401   C402    1.388   .     A
C401   H415    1.083   .     S
C402   C1078   1.391   .     S
C402   H1092   1.083   .     S
C403   H416    1.078   .     S
C403   C1077   1.391   1_554 S
C403   C1052   1.416   1_554 S
Cu404  O424    1.947   .     S
Cu404  O422    1.963   .     S
Cu404  N420    2.025   .     S
Cu404  Cu405   2.695   .     S
Cu404  O426    1.954   .     S
Cu404  O428    1.934   .     S
Cu405  O429    1.947   .     S
Cu405  O423    1.954   .     S
Cu405  O425    1.934   .     S
Cu405  O427    1.963   .     S
Cu405  N421    2.025   .     S
H414   C1074   1.084   .     S
H417   C1077   1.083   1_554 S
C430   C431    1.538   .     S
C430   H438    1.094   .     S
C431   C432    1.530   .     S
C431   H437    1.100   .     S
C431   H436    1.111   .     S
C432   H435    1.111   .     S
C432   H433    1.111   .     S
H434   C282    1.109   1_655 S
H439   C280    1.113   1_655 S
O440   C441    1.412   .     S
C441   H443    1.117   .     S
C441   C444    1.528   .     S
C441   H442    1.114   .     S
C444   H446    1.112   .     S
C444   C447    1.526   .     S
C444   H445    1.110   .     S
C447   H450    1.111   .     S
C447   H448    1.111   .     S
H449   C672    1.110   .     S
C451   O497    1.300   .     A
C451   O498    1.291   .     A
C451   C467    1.446   .     S
C452   C453    1.418   .     A
C452   C1129   1.426   .     S
C452   C1153   1.416   .     S
C453   C457    1.409   .     A
C453   C460    1.418   .     A
C454   C458    1.414   .     A
C454   C1127   1.426   1_554 S
C454   C1130   1.422   1_554 S
C455   C456    1.392   .     A
C455   C1129   1.422   .     S
C455   C1149   1.402   .     S
C456   H488    1.081   .     S
C456   C457    1.385   .     A
C457   H493    1.079   .     S
C458   O515    1.384   .     S
C458   C475    1.406   .     A
C459   C475    1.398   .     A
C459   C474    1.390   .     A
C459   H481    1.083   .     S
C460   C476    1.403   .     A
C460   C462    1.475   .     S
C461   H494    1.084   .     S
C461   C467    1.403   .     A
C461   C13     1.384   1_565 S
C462   O499    1.303   .     A
C462   O500    1.301   .     A
C463   H482    1.083   .     S
C463   C464    1.398   .     A
C464   C465    1.401   .     A
C464   C472    1.445   .     S
C465   H483    1.082   .     S
C466   H484    1.081   .     S
C466   C467    1.398   .     A
C466   C15     1.383   1_565 S
C468   H485    1.081   .     S
C468   N496    1.342   .     A
C468   C544    1.416   .     S
C469   C505    1.532   .     S
C469   N495    1.410   .     A
C469   C618    1.416   1_455 S
C470   N495    1.367   .     A
C470   H486    1.081   .     S
C470   C621    1.421   1_455 S
C471   N496    1.370   .     A
C471   H487    1.082   .     S
C471   C545    1.421   .     S
C472   O502    1.298   .     A
C472   O501    1.292   .     A
C473   O503    1.298   .     A
C473   O504    1.300   .     A
C473   C475    1.462   .     S
C474   C1130   1.402   1_554 S
C474   H1164   1.084   1_554 S
C476   C477    1.388   .     A
C476   H490    1.083   .     S
C477   C1153   1.391   .     S
C477   H1167   1.083   .     S
C478   H491    1.078   .     S
C478   C1152   1.391   1_554 S
C478   C1127   1.416   1_554 S
Cu479  O499    1.947   .     S
Cu479  O497    1.963   .     S
Cu479  N495    2.025   .     S
Cu479  Cu480   2.695   .     S
Cu479  O501    1.954   .     S
Cu479  O503    1.934   .     S
Cu480  O504    1.947   .     S
Cu480  O498    1.954   .     S
Cu480  O500    1.934   .     S
Cu480  O502    1.963   .     S
Cu480  N496    2.025   .     S
H489   C1149   1.084   .     S
H492   C1152   1.083   1_554 S
C505   C506    1.538   .     S
C505   H513    1.094   .     S
C505   H664    1.113   1_455 S
C506   C507    1.530   .     S
C506   H512    1.100   .     S
C506   H511    1.111   .     S
C507   H510    1.111   .     S
C507   H508    1.111   .     S
C507   H659    1.109   1_455 S
H509   C582    1.109   .     S
H514   C580    1.113   .     S
O515   C516    1.412   .     S
C516   H518    1.117   .     S
C516   C519    1.528   .     S
C516   H517    1.114   .     S
C519   H521    1.112   .     S
C519   C522    1.526   .     S
C519   H520    1.110   .     S
C522   H525    1.111   .     S
C522   H523    1.111   .     S
H524   C72     1.110   1_565 S
C526   O572    1.300   .     A
C526   O573    1.291   .     A
C526   C542    1.446   .     S
C527   C528    1.418   .     A
C527   C1204   1.426   .     S
C527   C1228   1.416   .     S
C528   C532    1.409   .     A
C528   C535    1.418   .     A
C529   C533    1.414   .     A
C529   C1202   1.426   1_554 S
C529   C1205   1.422   1_554 S
C530   C531    1.392   .     A
C530   C1204   1.422   .     S
C530   C1224   1.402   .     S
C531   H563    1.081   .     S
C531   C532    1.385   .     A
C532   H568    1.079   .     S
C533   O590    1.384   .     S
C533   C550    1.406   .     A
C534   C550    1.398   .     A
C534   C549    1.390   .     A
C534   H556    1.083   .     S
C535   C551    1.403   .     A
C535   C537    1.475   .     S
C536   H569    1.084   .     S
C536   C542    1.403   .     A
C536   C88     1.384   1_565 S
C537   O574    1.303   .     A
C537   O575    1.301   .     A
C538   H557    1.083   .     S
C538   C539    1.398   .     A
C539   C540    1.401   .     A
C539   C547    1.445   .     S
C540   H558    1.082   .     S
C541   H559    1.081   .     S
C541   C542    1.398   .     A
C541   C90     1.383   1_565 S
C543   H560    1.081   .     S
C543   N571    1.342   .     A
C543   C619    1.416   .     S
C544   C580    1.532   .     S
C544   N570    1.410   .     A
C545   N570    1.367   .     A
C545   H561    1.081   .     S
C546   N571    1.370   .     A
C546   H562    1.082   .     S
C546   C620    1.421   .     S
C547   O577    1.298   .     A
C547   O576    1.292   .     A
C548   O578    1.298   .     A
C548   O579    1.300   .     A
C548   C550    1.462   .     S
C549   C1205   1.402   1_554 S
C549   H1239   1.084   1_554 S
C551   C552    1.388   .     A
C551   H565    1.083   .     S
C552   C1228   1.391   .     S
C552   H1242   1.083   .     S
C553   H566    1.078   .     S
C553   C1227   1.391   1_554 S
C553   C1202   1.416   1_554 S
Cu554  O574    1.947   .     S
Cu554  O572    1.963   .     S
Cu554  N570    2.025   .     S
Cu554  Cu555   2.695   .     S
Cu554  O576    1.954   .     S
Cu554  O578    1.934   .     S
Cu555  O579    1.947   .     S
Cu555  O573    1.954   .     S
Cu555  O575    1.934   .     S
Cu555  O577    1.963   .     S
Cu555  N571    2.025   .     S
H564   C1224   1.084   .     S
H567   C1227   1.083   1_554 S
C580   C581    1.538   .     S
C580   H588    1.094   .     S
C581   C582    1.530   .     S
C581   H587    1.100   .     S
C581   H586    1.111   .     S
C582   H585    1.111   .     S
C582   H583    1.111   .     S
H584   C657    1.109   .     S
H589   C655    1.113   .     S
O590   C591    1.412   .     S
C591   H593    1.117   .     S
C591   C594    1.528   .     S
C591   H592    1.114   .     S
C594   H596    1.112   .     S
C594   C597    1.526   .     S
C594   H595    1.110   .     S
C597   H600    1.111   .     S
C597   H598    1.111   .     S
H599   C147    1.110   1_565 S
C601   O647    1.300   .     A
C601   O648    1.291   .     A
C601   C617    1.446   .     S
C602   C603    1.418   .     A
C602   C1279   1.426   .     S
C602   C1303   1.416   .     S
C603   C607    1.409   .     A
C603   C610    1.418   .     A
C604   C608    1.414   .     A
C604   C1277   1.426   1_554 S
C604   C1280   1.422   1_554 S
C605   C606    1.392   .     A
C605   C1279   1.422   .     S
C605   C1299   1.402   .     S
C606   H638    1.081   .     S
C606   C607    1.385   .     A
C607   H643    1.079   .     S
C608   O665    1.384   .     S
C608   C625    1.406   .     A
C609   C625    1.398   .     A
C609   C624    1.390   .     A
C609   H631    1.083   .     S
C610   C626    1.403   .     A
C610   C612    1.475   .     S
C611   H644    1.084   .     S
C611   C617    1.403   .     A
C611   C163    1.384   1_565 S
C612   O649    1.303   .     A
C612   O650    1.301   .     A
C613   H632    1.083   .     S
C613   C614    1.398   .     A
C614   C615    1.401   .     A
C614   C622    1.445   .     S
C615   H633    1.082   .     S
C616   H634    1.081   .     S
C616   C617    1.398   .     A
C616   C165    1.383   1_565 S
C618   H635    1.081   .     S
C618   N646    1.342   .     A
C618   C469    1.416   1_655 S
C619   C655    1.532   .     S
C619   N645    1.410   .     A
C620   N645    1.367   .     A
C620   H636    1.081   .     S
C621   N646    1.370   .     A
C621   H637    1.082   .     S
C621   C470    1.421   1_655 S
C622   O652    1.298   .     A
C622   O651    1.292   .     A
C623   O653    1.298   .     A
C623   O654    1.300   .     A
C623   C625    1.462   .     S
C624   C1280   1.402   1_554 S
C624   H1314   1.084   1_554 S
C626   C627    1.388   .     A
C626   H640    1.083   .     S
C627   C1303   1.391   .     S
C627   H1317   1.083   .     S
C628   H641    1.078   .     S
C628   C1302   1.391   1_554 S
C628   C1277   1.416   1_554 S
Cu629  O649    1.947   .     S
Cu629  O647    1.963   .     S
Cu629  N645    2.025   .     S
Cu629  Cu630   2.695   .     S
Cu629  O651    1.954   .     S
Cu629  O653    1.934   .     S
Cu630  O654    1.947   .     S
Cu630  O648    1.954   .     S
Cu630  O650    1.934   .     S
Cu630  O652    1.963   .     S
Cu630  N646    2.025   .     S
H639   C1299   1.084   .     S
H642   C1302   1.083   1_554 S
C655   C656    1.538   .     S
C655   H663    1.094   .     S
C656   C657    1.530   .     S
C656   H662    1.100   .     S
C656   H661    1.111   .     S
C657   H660    1.111   .     S
C657   H658    1.111   .     S
H659   C507    1.109   1_655 S
H664   C505    1.113   1_655 S
O665   C666    1.412   .     S
C666   H668    1.117   .     S
C666   C669    1.528   .     S
C666   H667    1.114   .     S
C669   H671    1.112   .     S
C669   C672    1.526   .     S
C669   H670    1.110   .     S
C672   H675    1.111   .     S
C672   H673    1.111   .     S
H674   C222    1.110   1_565 S
C676   O722    1.300   .     A
C676   O723    1.291   .     A
C676   C692    1.446   .     S
C677   C678    1.418   .     A
C677   C4      1.426   1_556 S
C677   C28     1.416   1_556 S
C678   C682    1.409   .     A
C678   C685    1.418   .     A
C679   C683    1.414   .     A
C680   C681    1.392   .     A
C680   C4      1.422   1_556 S
C680   C24     1.402   1_556 S
C681   H713    1.081   .     S
C681   C682    1.385   .     A
C682   H718    1.079   .     S
C683   O740    1.384   .     S
C683   C700    1.406   .     A
C684   C700    1.398   .     A
C684   C699    1.390   .     A
C684   H706    1.083   .     S
C685   C701    1.403   .     A
C685   C687    1.475   .     S
C686   H719    1.084   .     S
C686   C692    1.403   .     A
C686   C913    1.384   .     S
C687   O724    1.303   .     A
C687   O725    1.301   .     A
C688   H707    1.083   .     S
C688   C689    1.398   .     A
C688   C1136   1.384   1_545 S
C689   C690    1.401   .     A
C689   C697    1.445   .     S
C690   H708    1.082   .     S
C690   C1141   1.383   1_545 S
C691   H709    1.081   .     S
C691   C692    1.398   .     A
C691   C915    1.383   .     S
C693   H710    1.081   .     S
C693   N721    1.342   .     A
C693   C769    1.416   .     S
C694   C730    1.532   .     S
C694   N720    1.410   .     A
C694   C843    1.416   1_455 S
C695   N720    1.367   .     A
C695   H711    1.081   .     S
C695   C846    1.421   1_455 S
C696   N721    1.370   .     A
C696   H712    1.082   .     S
C696   C770    1.421   .     S
C697   O727    1.298   .     A
C697   O726    1.292   .     A
C698   O728    1.298   .     A
C698   O729    1.300   .     A
C698   C700    1.462   .     S
C701   C702    1.388   .     A
C701   H715    1.083   .     S
C702   C28     1.391   1_556 S
C702   H42     1.083   1_556 S
C703   H716    1.078   .     S
Cu704  O724    1.947   .     S
Cu704  O722    1.963   .     S
Cu704  N720    2.025   .     S
Cu704  Cu705   2.695   .     S
Cu704  O726    1.954   .     S
Cu704  O728    1.934   .     S
Cu705  O729    1.947   .     S
Cu705  O723    1.954   .     S
Cu705  O725    1.934   .     S
Cu705  O727    1.963   .     S
Cu705  N721    2.025   .     S
H714   C24     1.084   1_556 S
C730   C731    1.538   .     S
C730   H738    1.094   .     S
C730   H889    1.113   1_455 S
C731   C732    1.530   .     S
C731   H737    1.100   .     S
C731   H736    1.111   .     S
C732   H735    1.111   .     S
C732   H733    1.111   .     S
C732   H884    1.109   1_455 S
H734   C807    1.109   .     S
H739   C805    1.113   .     S
O740   C741    1.412   .     S
C741   H743    1.117   .     S
C741   C744    1.528   .     S
C741   H742    1.114   .     S
C744   H746    1.112   .     S
C744   C747    1.526   .     S
C744   H745    1.110   .     S
C747   H750    1.111   .     S
C747   H748    1.111   .     S
C747   H1199   1.110   1_545 S
H749   C972    1.110   .     S
C751   O797    1.300   .     A
C751   O798    1.291   .     A
C751   C767    1.446   .     S
C752   C753    1.418   .     A
C752   C79     1.426   1_556 S
C752   C103    1.416   1_556 S
C753   C757    1.409   .     A
C753   C760    1.418   .     A
C754   C758    1.414   .     A
C755   C756    1.392   .     A
C755   C79     1.422   1_556 S
C755   C99     1.402   1_556 S
C756   H788    1.081   .     S
C756   C757    1.385   .     A
C757   H793    1.079   .     S
C758   O815    1.384   .     S
C758   C775    1.406   .     A
C759   C775    1.398   .     A
C759   C774    1.390   .     A
C759   H781    1.083   .     S
C760   C776    1.403   .     A
C760   C762    1.475   .     S
C761   H794    1.084   .     S
C761   C767    1.403   .     A
C761   C988    1.384   .     S
C762   O799    1.303   .     A
C762   O800    1.301   .     A
C763   H782    1.083   .     S
C763   C764    1.398   .     A
C763   C1211   1.384   1_545 S
C764   C765    1.401   .     A
C764   C772    1.445   .     S
C765   H783    1.082   .     S
C765   C1216   1.383   1_545 S
C766   H784    1.081   .     S
C766   C767    1.398   .     A
C766   C990    1.383   .     S
C768   H785    1.081   .     S
C768   N796    1.342   .     A
C768   C844    1.416   .     S
C769   C805    1.532   .     S
C769   N795    1.410   .     A
C770   N795    1.367   .     A
C770   H786    1.081   .     S
C771   N796    1.370   .     A
C771   H787    1.082   .     S
C771   C845    1.421   .     S
C772   O802    1.298   .     A
C772   O801    1.292   .     A
C773   O803    1.298   .     A
C773   O804    1.300   .     A
C773   C775    1.462   .     S
C776   C777    1.388   .     A
C776   H790    1.083   .     S
C777   C103    1.391   1_556 S
C777   H117    1.083   1_556 S
C778   H791    1.078   .     S
Cu779  O799    1.947   .     S
Cu779  O797    1.963   .     S
Cu779  N795    2.025   .     S
Cu779  Cu780   2.695   .     S
Cu779  O801    1.954   .     S
Cu779  O803    1.934   .     S
Cu780  O804    1.947   .     S
Cu780  O798    1.954   .     S
Cu780  O800    1.934   .     S
Cu780  O802    1.963   .     S
Cu780  N796    2.025   .     S
H789   C99     1.084   1_556 S
C805   C806    1.538   .     S
C805   H813    1.094   .     S
C806   C807    1.530   .     S
C806   H812    1.100   .     S
C806   H811    1.111   .     S
C807   H810    1.111   .     S
C807   H808    1.111   .     S
H809   C882    1.109   .     S
H814   C880    1.113   .     S
O815   C816    1.412   .     S
C816   H818    1.117   .     S
C816   C819    1.528   .     S
C816   H817    1.114   .     S
C819   H821    1.112   .     S
C819   C822    1.526   .     S
C819   H820    1.110   .     S
C822   H825    1.111   .     S
C822   H823    1.111   .     S
C822   H1274   1.110   1_545 S
H824   C1047   1.110   .     S
C826   O872    1.300   .     A
C826   O873    1.291   .     A
C826   C842    1.446   .     S
C827   C828    1.418   .     A
C827   C154    1.426   1_556 S
C827   C178    1.416   1_556 S
C828   C832    1.409   .     A
C828   C835    1.418   .     A
C829   C833    1.414   .     A
C830   C831    1.392   .     A
C830   C154    1.422   1_556 S
C830   C174    1.402   1_556 S
C831   H863    1.081   .     S
C831   C832    1.385   .     A
C832   H868    1.079   .     S
C833   O890    1.384   .     S
C833   C850    1.406   .     A
C834   C850    1.398   .     A
C834   C849    1.390   .     A
C834   H856    1.083   .     S
C835   C851    1.403   .     A
C835   C837    1.475   .     S
C836   H869    1.084   .     S
C836   C842    1.403   .     A
C836   C1063   1.384   .     S
C837   O874    1.303   .     A
C837   O875    1.301   .     A
C838   H857    1.083   .     S
C838   C839    1.398   .     A
C838   C1286   1.384   1_545 S
C839   C840    1.401   .     A
C839   C847    1.445   .     S
C840   H858    1.082   .     S
C840   C1291   1.383   1_545 S
C841   H859    1.081   .     S
C841   C842    1.398   .     A
C841   C1065   1.383   .     S
C843   H860    1.081   .     S
C843   N871    1.342   .     A
C843   C694    1.416   1_655 S
C844   C880    1.532   .     S
C844   N870    1.410   .     A
C845   N870    1.367   .     A
C845   H861    1.081   .     S
C846   N871    1.370   .     A
C846   H862    1.082   .     S
C846   C695    1.421   1_655 S
C847   O877    1.298   .     A
C847   O876    1.292   .     A
C848   O878    1.298   .     A
C848   O879    1.300   .     A
C848   C850    1.462   .     S
C851   C852    1.388   .     A
C851   H865    1.083   .     S
C852   C178    1.391   1_556 S
C852   H192    1.083   1_556 S
C853   H866    1.078   .     S
Cu854  O874    1.947   .     S
Cu854  O872    1.963   .     S
Cu854  N870    2.025   .     S
Cu854  Cu855   2.695   .     S
Cu854  O876    1.954   .     S
Cu854  O878    1.934   .     S
Cu855  O879    1.947   .     S
Cu855  O873    1.954   .     S
Cu855  O875    1.934   .     S
Cu855  O877    1.963   .     S
Cu855  N871    2.025   .     S
H864   C174    1.084   1_556 S
C880   C881    1.538   .     S
C880   H888    1.094   .     S
C881   C882    1.530   .     S
C881   H887    1.100   .     S
C881   H886    1.111   .     S
C882   H885    1.111   .     S
C882   H883    1.111   .     S
H884   C732    1.109   1_655 S
H889   C730    1.113   1_655 S
O890   C891    1.412   .     S
C891   H893    1.117   .     S
C891   C894    1.528   .     S
C891   H892    1.114   .     S
C894   H896    1.112   .     S
C894   C897    1.526   .     S
C894   H895    1.110   .     S
C897   H900    1.111   .     S
C897   H898    1.111   .     S
C897   H1349   1.110   1_545 S
H899   C1122   1.110   .     S
C901   O947    1.300   .     A
C901   O948    1.291   .     A
C901   C917    1.446   .     S
C902   C903    1.418   .     A
C902   C229    1.426   1_556 S
C902   C253    1.416   1_556 S
C903   C907    1.409   .     A
C903   C910    1.418   .     A
C904   C908    1.414   .     A
C905   C906    1.392   .     A
C905   C229    1.422   1_556 S
C905   C249    1.402   1_556 S
C906   H938    1.081   .     S
C906   C907    1.385   .     A
C907   H943    1.079   .     S
C908   O965    1.384   .     S
C908   C925    1.406   .     A
C909   C925    1.398   .     A
C909   C924    1.390   .     A
C909   H931    1.083   .     S
C910   C926    1.403   .     A
C910   C912    1.475   .     S
C911   H944    1.084   .     S
C911   C917    1.403   .     A
C911   C1138   1.384   .     S
C912   O949    1.303   .     A
C912   O950    1.301   .     A
C913   H932    1.083   .     S
C913   C914    1.398   .     A
C914   C915    1.401   .     A
C914   C922    1.445   .     S
C915   H933    1.082   .     S
C916   H934    1.081   .     S
C916   C917    1.398   .     A
C916   C1140   1.383   .     S
C918   H935    1.081   .     S
C918   N946    1.342   .     A
C918   C994    1.416   .     S
C919   C955    1.532   .     S
C919   N945    1.410   .     A
C919   C1068   1.416   1_455 S
C920   N945    1.367   .     A
C920   H936    1.081   .     S
C920   C1071   1.421   1_455 S
C921   N946    1.370   .     A
C921   H937    1.082   .     S
C921   C995    1.421   .     S
C922   O952    1.298   .     A
C922   O951    1.292   .     A
C923   O953    1.298   .     A
C923   O954    1.300   .     A
C923   C925    1.462   .     S
C926   C927    1.388   .     A
C926   H940    1.083   .     S
C927   C253    1.391   1_556 S
C927   H267    1.083   1_556 S
C928   H941    1.078   .     S
Cu929  O949    1.947   .     S
Cu929  O947    1.963   .     S
Cu929  N945    2.025   .     S
Cu929  Cu930   2.695   .     S
Cu929  O951    1.954   .     S
Cu929  O953    1.934   .     S
Cu930  O954    1.947   .     S
Cu930  O948    1.954   .     S
Cu930  O950    1.934   .     S
Cu930  O952    1.963   .     S
Cu930  N946    2.025   .     S
H939   C249    1.084   1_556 S
C955   C956    1.538   .     S
C955   H963    1.094   .     S
C955   H1114   1.113   1_455 S
C956   C957    1.530   .     S
C956   H962    1.100   .     S
C956   H961    1.111   .     S
C957   H960    1.111   .     S
C957   H958    1.111   .     S
C957   H1109   1.109   1_455 S
H959   C1032   1.109   .     S
H964   C1030   1.113   .     S
O965   C966    1.412   .     S
C966   H968    1.117   .     S
C966   C969    1.528   .     S
C966   H967    1.114   .     S
C969   H971    1.112   .     S
C969   C972    1.526   .     S
C969   H970    1.110   .     S
C972   H975    1.111   .     S
C972   H973    1.111   .     S
H974   C1197   1.110   .     S
C976   O1022   1.300   .     A
C976   O1023   1.291   .     A
C976   C992    1.446   .     S
C977   C978    1.418   .     A
C977   C304    1.426   1_556 S
C977   C328    1.416   1_556 S
C978   C982    1.409   .     A
C978   C985    1.418   .     A
C979   C983    1.414   .     A
C980   C981    1.392   .     A
C980   C304    1.422   1_556 S
C980   C324    1.402   1_556 S
C981   H1013   1.081   .     S
C981   C982    1.385   .     A
C982   H1018   1.079   .     S
C983   O1040   1.384   .     S
C983   C1000   1.406   .     A
C984   C1000   1.398   .     A
C984   C999    1.390   .     A
C984   H1006   1.083   .     S
C985   C1001   1.403   .     A
C985   C987    1.475   .     S
C986   H1019   1.084   .     S
C986   C992    1.403   .     A
C986   C1213   1.384   .     S
C987   O1024   1.303   .     A
C987   O1025   1.301   .     A
C988   H1007   1.083   .     S
C988   C989    1.398   .     A
C989   C990    1.401   .     A
C989   C997    1.445   .     S
C990   H1008   1.082   .     S
C991   H1009   1.081   .     S
C991   C992    1.398   .     A
C991   C1215   1.383   .     S
C993   H1010   1.081   .     S
C993   N1021   1.342   .     A
C993   C1069   1.416   .     S
C994   C1030   1.532   .     S
C994   N1020   1.410   .     A
C995   N1020   1.367   .     A
C995   H1011   1.081   .     S
C996   N1021   1.370   .     A
C996   H1012   1.082   .     S
C996   C1070   1.421   .     S
C997   O1027   1.298   .     A
C997   O1026   1.292   .     A
C998   O1028   1.298   .     A
C998   O1029   1.300   .     A
C998   C1000   1.462   .     S
C1001  C1002   1.388   .     A
C1001  H1015   1.083   .     S
C1002  C328    1.391   1_556 S
C1002  H342    1.083   1_556 S
C1003  H1016   1.078   .     S
Cu1004 O1024   1.947   .     S
Cu1004 O1022   1.963   .     S
Cu1004 N1020   2.025   .     S
Cu1004 Cu1005  2.695   .     S
Cu1004 O1026   1.954   .     S
Cu1004 O1028   1.934   .     S
Cu1005 O1029   1.947   .     S
Cu1005 O1023   1.954   .     S
Cu1005 O1025   1.934   .     S
Cu1005 O1027   1.963   .     S
Cu1005 N1021   2.025   .     S
H1014  C324    1.084   1_556 S
C1030  C1031   1.538   .     S
C1030  H1038   1.094   .     S
C1031  C1032   1.530   .     S
C1031  H1037   1.100   .     S
C1031  H1036   1.111   .     S
C1032  H1035   1.111   .     S
C1032  H1033   1.111   .     S
H1034  C1107   1.109   .     S
H1039  C1105   1.113   .     S
O1040  C1041   1.412   .     S
C1041  H1043   1.117   .     S
C1041  C1044   1.528   .     S
C1041  H1042   1.114   .     S
C1044  H1046   1.112   .     S
C1044  C1047   1.526   .     S
C1044  H1045   1.110   .     S
C1047  H1050   1.111   .     S
C1047  H1048   1.111   .     S
H1049  C1272   1.110   .     S
C1051  O1097   1.300   .     A
C1051  O1098   1.291   .     A
C1051  C1067   1.446   .     S
C1052  C1053   1.418   .     A
C1052  C379    1.426   1_556 S
C1052  C403    1.416   1_556 S
C1053  C1057   1.409   .     A
C1053  C1060   1.418   .     A
C1054  C1058   1.414   .     A
C1055  C1056   1.392   .     A
C1055  C379    1.422   1_556 S
C1055  C399    1.402   1_556 S
C1056  H1088   1.081   .     S
C1056  C1057   1.385   .     A
C1057  H1093   1.079   .     S
C1058  O1115   1.384   .     S
C1058  C1075   1.406   .     A
C1059  C1075   1.398   .     A
C1059  C1074   1.390   .     A
C1059  H1081   1.083   .     S
C1060  C1076   1.403   .     A
C1060  C1062   1.475   .     S
C1061  H1094   1.084   .     S
C1061  C1067   1.403   .     A
C1061  C1288   1.384   .     S
C1062  O1099   1.303   .     A
C1062  O1100   1.301   .     A
C1063  H1082   1.083   .     S
C1063  C1064   1.398   .     A
C1064  C1065   1.401   .     A
C1064  C1072   1.445   .     S
C1065  H1083   1.082   .     S
C1066  H1084   1.081   .     S
C1066  C1067   1.398   .     A
C1066  C1290   1.383   .     S
C1068  H1085   1.081   .     S
C1068  N1096   1.342   .     A
C1068  C919    1.416   1_655 S
C1069  C1105   1.532   .     S
C1069  N1095   1.410   .     A
C1070  N1095   1.367   .     A
C1070  H1086   1.081   .     S
C1071  N1096   1.370   .     A
C1071  H1087   1.082   .     S
C1071  C920    1.421   1_655 S
C1072  O1102   1.298   .     A
C1072  O1101   1.292   .     A
C1073  O1103   1.298   .     A
C1073  O1104   1.300   .     A
C1073  C1075   1.462   .     S
C1076  C1077   1.388   .     A
C1076  H1090   1.083   .     S
C1077  C403    1.391   1_556 S
C1077  H417    1.083   1_556 S
C1078  H1091   1.078   .     S
Cu1079 O1099   1.947   .     S
Cu1079 O1097   1.963   .     S
Cu1079 N1095   2.025   .     S
Cu1079 Cu1080  2.695   .     S
Cu1079 O1101   1.954   .     S
Cu1079 O1103   1.934   .     S
Cu1080 O1104   1.947   .     S
Cu1080 O1098   1.954   .     S
Cu1080 O1100   1.934   .     S
Cu1080 O1102   1.963   .     S
Cu1080 N1096   2.025   .     S
H1089  C399    1.084   1_556 S
C1105  C1106   1.538   .     S
C1105  H1113   1.094   .     S
C1106  C1107   1.530   .     S
C1106  H1112   1.100   .     S
C1106  H1111   1.111   .     S
C1107  H1110   1.111   .     S
C1107  H1108   1.111   .     S
H1109  C957    1.109   1_655 S
H1114  C955    1.113   1_655 S
O1115  C1116   1.412   .     S
C1116  H1118   1.117   .     S
C1116  C1119   1.528   .     S
C1116  H1117   1.114   .     S
C1119  H1121   1.112   .     S
C1119  C1122   1.526   .     S
C1119  H1120   1.110   .     S
C1122  H1125   1.111   .     S
C1122  H1123   1.111   .     S
H1124  C1347   1.110   .     S
C1126  O1172   1.300   .     A
C1126  O1173   1.291   .     A
C1126  C1142   1.446   .     S
C1127  C1128   1.418   .     A
C1127  C454    1.426   1_556 S
C1127  C478    1.416   1_556 S
C1128  C1132   1.409   .     A
C1128  C1135   1.418   .     A
C1129  C1133   1.414   .     A
C1130  C1131   1.392   .     A
C1130  C454    1.422   1_556 S
C1130  C474    1.402   1_556 S
C1131  H1163   1.081   .     S
C1131  C1132   1.385   .     A
C1132  H1168   1.079   .     S
C1133  O1190   1.384   .     S
C1133  C1150   1.406   .     A
C1134  C1150   1.398   .     A
C1134  C1149   1.390   .     A
C1134  H1156   1.083   .     S
C1135  C1151   1.403   .     A
C1135  C1137   1.475   .     S
C1136  H1169   1.084   .     S
C1136  C1142   1.403   .     A
C1136  C688    1.384   1_565 S
C1137  O1174   1.303   .     A
C1137  O1175   1.301   .     A
C1138  H1157   1.083   .     S
C1138  C1139   1.398   .     A
C1139  C1140   1.401   .     A
C1139  C1147   1.445   .     S
C1140  H1158   1.082   .     S
C1141  H1159   1.081   .     S
C1141  C1142   1.398   .     A
C1141  C690    1.383   1_565 S
C1143  H1160   1.081   .     S
C1143  N1171   1.342   .     A
C1143  C1219   1.416   .     S
C1144  C1180   1.532   .     S
C1144  N1170   1.410   .     A
C1144  C1293   1.416   1_455 S
C1145  N1170   1.367   .     A
C1145  H1161   1.081   .     S
C1145  C1296   1.421   1_455 S
C1146  N1171   1.370   .     A
C1146  H1162   1.082   .     S
C1146  C1220   1.421   .     S
C1147  O1177   1.298   .     A
C1147  O1176   1.292   .     A
C1148  O1178   1.298   .     A
C1148  O1179   1.300   .     A
C1148  C1150   1.462   .     S
C1151  C1152   1.388   .     A
C1151  H1165   1.083   .     S
C1152  C478    1.391   1_556 S
C1152  H492    1.083   1_556 S
C1153  H1166   1.078   .     S
Cu1154 O1174   1.947   .     S
Cu1154 O1172   1.963   .     S
Cu1154 N1170   2.025   .     S
Cu1154 Cu1155  2.695   .     S
Cu1154 O1176   1.954   .     S
Cu1154 O1178   1.934   .     S
Cu1155 O1179   1.947   .     S
Cu1155 O1173   1.954   .     S
Cu1155 O1175   1.934   .     S
Cu1155 O1177   1.963   .     S
Cu1155 N1171   2.025   .     S
H1164  C474    1.084   1_556 S
C1180  C1181   1.538   .     S
C1180  H1188   1.094   .     S
C1180  H1339   1.113   1_455 S
C1181  C1182   1.530   .     S
C1181  H1187   1.100   .     S
C1181  H1186   1.111   .     S
C1182  H1185   1.111   .     S
C1182  H1183   1.111   .     S
C1182  H1334   1.109   1_455 S
H1184  C1257   1.109   .     S
H1189  C1255   1.113   .     S
O1190  C1191   1.412   .     S
C1191  H1193   1.117   .     S
C1191  C1194   1.528   .     S
C1191  H1192   1.114   .     S
C1194  H1196   1.112   .     S
C1194  C1197   1.526   .     S
C1194  H1195   1.110   .     S
C1197  H1200   1.111   .     S
C1197  H1198   1.111   .     S
H1199  C747    1.110   1_565 S
C1201  O1247   1.300   .     A
C1201  O1248   1.291   .     A
C1201  C1217   1.446   .     S
C1202  C1203   1.418   .     A
C1202  C529    1.426   1_556 S
C1202  C553    1.416   1_556 S
C1203  C1207   1.409   .     A
C1203  C1210   1.418   .     A
C1204  C1208   1.414   .     A
C1205  C1206   1.392   .     A
C1205  C529    1.422   1_556 S
C1205  C549    1.402   1_556 S
C1206  H1238   1.081   .     S
C1206  C1207   1.385   .     A
C1207  H1243   1.079   .     S
C1208  O1265   1.384   .     S
C1208  C1225   1.406   .     A
C1209  C1225   1.398   .     A
C1209  C1224   1.390   .     A
C1209  H1231   1.083   .     S
C1210  C1226   1.403   .     A
C1210  C1212   1.475   .     S
C1211  H1244   1.084   .     S
C1211  C1217   1.403   .     A
C1211  C763    1.384   1_565 S
C1212  O1249   1.303   .     A
C1212  O1250   1.301   .     A
C1213  H1232   1.083   .     S
C1213  C1214   1.398   .     A
C1214  C1215   1.401   .     A
C1214  C1222   1.445   .     S
C1215  H1233   1.082   .     S
C1216  H1234   1.081   .     S
C1216  C1217   1.398   .     A
C1216  C765    1.383   1_565 S
C1218  H1235   1.081   .     S
C1218  N1246   1.342   .     A
C1218  C1294   1.416   .     S
C1219  C1255   1.532   .     S
C1219  N1245   1.410   .     A
C1220  N1245   1.367   .     A
C1220  H1236   1.081   .     S
C1221  N1246   1.370   .     A
C1221  H1237   1.082   .     S
C1221  C1295   1.421   .     S
C1222  O1252   1.298   .     A
C1222  O1251   1.292   .     A
C1223  O1253   1.298   .     A
C1223  O1254   1.300   .     A
C1223  C1225   1.462   .     S
C1226  C1227   1.388   .     A
C1226  H1240   1.083   .     S
C1227  C553    1.391   1_556 S
C1227  H567    1.083   1_556 S
C1228  H1241   1.078   .     S
Cu1229 O1249   1.947   .     S
Cu1229 O1247   1.963   .     S
Cu1229 N1245   2.025   .     S
Cu1229 Cu1230  2.695   .     S
Cu1229 O1251   1.954   .     S
Cu1229 O1253   1.934   .     S
Cu1230 O1254   1.947   .     S
Cu1230 O1248   1.954   .     S
Cu1230 O1250   1.934   .     S
Cu1230 O1252   1.963   .     S
Cu1230 N1246   2.025   .     S
H1239  C549    1.084   1_556 S
C1255  C1256   1.538   .     S
C1255  H1263   1.094   .     S
C1256  C1257   1.530   .     S
C1256  H1262   1.100   .     S
C1256  H1261   1.111   .     S
C1257  H1260   1.111   .     S
C1257  H1258   1.111   .     S
H1259  C1332   1.109   .     S
H1264  C1330   1.113   .     S
O1265  C1266   1.412   .     S
C1266  H1268   1.117   .     S
C1266  C1269   1.528   .     S
C1266  H1267   1.114   .     S
C1269  H1271   1.112   .     S
C1269  C1272   1.526   .     S
C1269  H1270   1.110   .     S
C1272  H1275   1.111   .     S
C1272  H1273   1.111   .     S
H1274  C822    1.110   1_565 S
C1276  O1322   1.300   .     A
C1276  O1323   1.291   .     A
C1276  C1292   1.446   .     S
C1277  C1278   1.418   .     A
C1277  C604    1.426   1_556 S
C1277  C628    1.416   1_556 S
C1278  C1282   1.409   .     A
C1278  C1285   1.418   .     A
C1279  C1283   1.414   .     A
C1280  C1281   1.392   .     A
C1280  C604    1.422   1_556 S
C1280  C624    1.402   1_556 S
C1281  H1313   1.081   .     S
C1281  C1282   1.385   .     A
C1282  H1318   1.079   .     S
C1283  O1340   1.384   .     S
C1283  C1300   1.406   .     A
C1284  C1300   1.398   .     A
C1284  C1299   1.390   .     A
C1284  H1306   1.083   .     S
C1285  C1301   1.403   .     A
C1285  C1287   1.475   .     S
C1286  H1319   1.084   .     S
C1286  C1292   1.403   .     A
C1286  C838    1.384   1_565 S
C1287  O1324   1.303   .     A
C1287  O1325   1.301   .     A
C1288  H1307   1.083   .     S
C1288  C1289   1.398   .     A
C1289  C1290   1.401   .     A
C1289  C1297   1.445   .     S
C1290  H1308   1.082   .     S
C1291  H1309   1.081   .     S
C1291  C1292   1.398   .     A
C1291  C840    1.383   1_565 S
C1293  H1310   1.081   .     S
C1293  N1321   1.342   .     A
C1293  C1144   1.416   1_655 S
C1294  C1330   1.532   .     S
C1294  N1320   1.410   .     A
C1295  N1320   1.367   .     A
C1295  H1311   1.081   .     S
C1296  N1321   1.370   .     A
C1296  H1312   1.082   .     S
C1296  C1145   1.421   1_655 S
C1297  O1327   1.298   .     A
C1297  O1326   1.292   .     A
C1298  O1328   1.298   .     A
C1298  O1329   1.300   .     A
C1298  C1300   1.462   .     S
C1301  C1302   1.388   .     A
C1301  H1315   1.083   .     S
C1302  C628    1.391   1_556 S
C1302  H642    1.083   1_556 S
C1303  H1316   1.078   .     S
Cu1304 O1324   1.947   .     S
Cu1304 O1322   1.963   .     S
Cu1304 N1320   2.025   .     S
Cu1304 Cu1305  2.695   .     S
Cu1304 O1326   1.954   .     S
Cu1304 O1328   1.934   .     S
Cu1305 O1329   1.947   .     S
Cu1305 O1323   1.954   .     S
Cu1305 O1325   1.934   .     S
Cu1305 O1327   1.963   .     S
Cu1305 N1321   2.025   .     S
H1314  C624    1.084   1_556 S
C1330  C1331   1.538   .     S
C1330  H1338   1.094   .     S
C1331  C1332   1.530   .     S
C1331  H1337   1.100   .     S
C1331  H1336   1.111   .     S
C1332  H1335   1.111   .     S
C1332  H1333   1.111   .     S
H1334  C1182   1.109   1_655 S
H1339  C1180   1.113   1_655 S
O1340  C1341   1.412   .     S
C1341  H1343   1.117   .     S
C1341  C1344   1.528   .     S
C1341  H1342   1.114   .     S
C1344  H1346   1.112   .     S
C1344  C1347   1.526   .     S
C1344  H1345   1.110   .     S
C1347  H1350   1.111   .     S
C1347  H1348   1.111   .     S
H1349  C897    1.110   1_565 S
