data_str_m2_o2_o5_pcu_sym.92
_audit_creation_date              2020-01-03
_audit_creation_method            'Materials Studio'
_symmetry_space_group_name_H-M    'P1'
_symmetry_Int_Tables_number       1
_symmetry_cell_setting            triclinic
loop_
_symmetry_equiv_pos_as_xyz
  x,y,z
_cell_length_a                    30.3391
_cell_length_b                    27.6748
_cell_length_c                    27.2576
_cell_angle_alpha                 90.0000
_cell_angle_beta                  89.9968
_cell_angle_gamma                 90.0000
loop_
_atom_site_label
_atom_site_type_symbol
_atom_site_fract_x
_atom_site_fract_y
_atom_site_fract_z
_atom_site_U_iso_or_equiv
_atom_site_adp_type
_atom_site_occupancy
C1     C     0.16485   0.25000   0.16667   0.00000  Uiso   1.00
C2     C     0.27902   0.44606   0.19763   0.00000  Uiso   1.00
C3     C     0.25000   0.25000   0.07349   0.00000  Uiso   1.00
C4     C     0.25000   0.25000   0.25985   0.00000  Uiso   1.00
C5     C     0.25000   0.02733   0.16667   0.00000  Uiso   1.00
C6     C     0.25000   0.47267   0.16667   0.00000  Uiso   1.00
C7     C     0.25000   0.25000   0.02183   0.00000  Uiso   1.00
C8     C     0.25000   0.25000   0.31150   0.00000  Uiso   1.00
C9     C     0.04700   0.28943   0.18588   0.00000  Uiso   1.00
C10    C     0.45300   0.21057   0.18588   0.00000  Uiso   1.00
C11    C     0.45300   0.28943   0.14744   0.00000  Uiso   1.00
C12    C     0.33515   0.25000   0.16666   0.00000  Uiso   1.00
C13    C     0.04700   0.21057   0.14745   0.00000  Uiso   1.00
C14    C     0.09314   0.28979   0.18641   0.00000  Uiso   1.00
C15    C     0.40685   0.21021   0.18641   0.00000  Uiso   1.00
C16    C     0.40686   0.28979   0.14692   0.00000  Uiso   1.00
C17    C     0.09315   0.21021   0.14693   0.00000  Uiso   1.00
C18    C     0.11639   0.25000   0.16667   0.00000  Uiso   1.00
C19    C     0.38361   0.25000   0.16666   0.00000  Uiso   1.00
C20    C     0.02409   0.25000   0.16667   0.00000  Uiso   1.00
C21    C     0.47591   0.25000   0.16667   0.00000  Uiso   1.00
C22    C     0.22189   0.10481   0.19660   0.00000  Uiso   1.00
C23    C     0.22189   0.39519   0.13674   0.00000  Uiso   1.00
C24    C     0.27811   0.10481   0.13674   0.00000  Uiso   1.00
C25    C     0.27811   0.39519   0.19659   0.00000  Uiso   1.00
C26    C     0.22098   0.05394   0.19764   0.00000  Uiso   1.00
C27    C     0.22098   0.44606   0.13570   0.00000  Uiso   1.00
C28    C     0.27902   0.05394   0.13570   0.00000  Uiso   1.00
Cu29   Cu    0.25000   0.29822   0.16667   0.00000  Uiso   1.00
Cu30   Cu    0.25000   0.20179   0.16667   0.00000  Uiso   1.00
H31    H     0.19980   0.12493   0.22014   0.00000  Uiso   1.00
H32    H     0.40526   0.14744   0.21893   0.00000  Uiso   1.00
H33    H     0.40527   0.35256   0.11439   0.00000  Uiso   1.00
H34    H     0.09474   0.14743   0.11441   0.00000  Uiso   1.00
H35    H     0.19386   0.49686   0.22735   0.00000  Uiso   1.00
H36    H     0.19386   0.00314   0.10600   0.00000  Uiso   1.00
H37    H     0.30614   0.49686   0.10599   0.00000  Uiso   1.00
H38    H     0.30614   0.00314   0.22733   0.00000  Uiso   1.00
H39    H     0.19980   0.37507   0.11320   0.00000  Uiso   1.00
H40    H     0.30020   0.12493   0.11319   0.00000  Uiso   1.00
H41    H     0.30020   0.37507   0.22013   0.00000  Uiso   1.00
H42    H     0.02883   0.31957   0.20124   0.00000  Uiso   1.00
H43    H     0.47116   0.18043   0.20124   0.00000  Uiso   1.00
H44    H     0.47117   0.31957   0.13209   0.00000  Uiso   1.00
H45    H     0.02884   0.18043   0.13210   0.00000  Uiso   1.00
H46    H     0.09473   0.35257   0.21893   0.00000  Uiso   1.00
N47    N     0.25000   0.12935   0.16667   0.00000  Uiso   1.00
N48    N     0.25000   0.37066   0.16667   0.00000  Uiso   1.00
O49    O     0.18573   0.29072   0.16667   0.00000  Uiso   1.00
O50    O     0.38402   0.17198   0.20693   0.00000  Uiso   1.00
O51    O     0.38403   0.32802   0.12639   0.00000  Uiso   1.00
O52    O     0.11598   0.17198   0.12641   0.00000  Uiso   1.00
O53    O     0.19137   0.03241   0.22936   0.00000  Uiso   1.00
O54    O     0.19136   0.46759   0.10399   0.00000  Uiso   1.00
O55    O     0.30863   0.03241   0.10397   0.00000  Uiso   1.00
O56    O     0.30864   0.46759   0.22935   0.00000  Uiso   1.00
O57    O     0.31427   0.20929   0.16666   0.00000  Uiso   1.00
O58    O     0.31427   0.29072   0.16666   0.00000  Uiso   1.00
O59    O     0.18573   0.20929   0.16667   0.00000  Uiso   1.00
O60    O     0.25000   0.29071   0.09613   0.00000  Uiso   1.00
O61    O     0.25000   0.20929   0.23720   0.00000  Uiso   1.00
O62    O     0.25000   0.29071   0.23720   0.00000  Uiso   1.00
O63    O     0.25000   0.20929   0.09613   0.00000  Uiso   1.00
O64    O     0.11597   0.32802   0.20693   0.00000  Uiso   1.00
C65    C     0.66485   0.25000   0.16667   0.00000  Uiso   1.00
C66    C     0.77902   0.44606   0.19763   0.00000  Uiso   1.00
C67    C     0.75000   0.25000   0.07349   0.00000  Uiso   1.00
C68    C     0.75000   0.25000   0.25985   0.00000  Uiso   1.00
C69    C     0.75000   0.02733   0.16667   0.00000  Uiso   1.00
C70    C     0.75000   0.47267   0.16667   0.00000  Uiso   1.00
C71    C     0.75000   0.25000   0.02183   0.00000  Uiso   1.00
C72    C     0.75000   0.25000   0.31150   0.00000  Uiso   1.00
C73    C     0.54700   0.28943   0.18588   0.00000  Uiso   1.00
C74    C     0.95300   0.21057   0.18588   0.00000  Uiso   1.00
C75    C     0.95300   0.28943   0.14744   0.00000  Uiso   1.00
C76    C     0.83515   0.25000   0.16666   0.00000  Uiso   1.00
C77    C     0.54700   0.21057   0.14745   0.00000  Uiso   1.00
C78    C     0.59314   0.28979   0.18641   0.00000  Uiso   1.00
C79    C     0.90685   0.21021   0.18641   0.00000  Uiso   1.00
C80    C     0.90686   0.28979   0.14692   0.00000  Uiso   1.00
C81    C     0.59315   0.21021   0.14693   0.00000  Uiso   1.00
C82    C     0.61639   0.25000   0.16667   0.00000  Uiso   1.00
C83    C     0.88361   0.25000   0.16666   0.00000  Uiso   1.00
C84    C     0.52409   0.25000   0.16667   0.00000  Uiso   1.00
C85    C     0.97591   0.25000   0.16667   0.00000  Uiso   1.00
C86    C     0.72189   0.10481   0.19660   0.00000  Uiso   1.00
C87    C     0.72189   0.39519   0.13674   0.00000  Uiso   1.00
C88    C     0.77811   0.10481   0.13674   0.00000  Uiso   1.00
C89    C     0.77811   0.39519   0.19659   0.00000  Uiso   1.00
C90    C     0.72098   0.05394   0.19764   0.00000  Uiso   1.00
C91    C     0.72098   0.44606   0.13570   0.00000  Uiso   1.00
C92    C     0.77902   0.05394   0.13570   0.00000  Uiso   1.00
Cu93   Cu    0.75000   0.29822   0.16667   0.00000  Uiso   1.00
Cu94   Cu    0.75000   0.20179   0.16667   0.00000  Uiso   1.00
H95    H     0.69980   0.12493   0.22014   0.00000  Uiso   1.00
H96    H     0.90526   0.14744   0.21893   0.00000  Uiso   1.00
H97    H     0.90527   0.35256   0.11439   0.00000  Uiso   1.00
H98    H     0.59474   0.14743   0.11441   0.00000  Uiso   1.00
H99    H     0.69386   0.49686   0.22735   0.00000  Uiso   1.00
H100   H     0.69386   0.00314   0.10600   0.00000  Uiso   1.00
H101   H     0.80614   0.49686   0.10599   0.00000  Uiso   1.00
H102   H     0.80614   0.00314   0.22733   0.00000  Uiso   1.00
H103   H     0.69980   0.37507   0.11320   0.00000  Uiso   1.00
H104   H     0.80020   0.12493   0.11319   0.00000  Uiso   1.00
H105   H     0.80020   0.37507   0.22013   0.00000  Uiso   1.00
H106   H     0.52883   0.31957   0.20124   0.00000  Uiso   1.00
H107   H     0.97116   0.18043   0.20124   0.00000  Uiso   1.00
H108   H     0.97117   0.31957   0.13209   0.00000  Uiso   1.00
H109   H     0.52884   0.18043   0.13210   0.00000  Uiso   1.00
H110   H     0.59473   0.35257   0.21893   0.00000  Uiso   1.00
N111   N     0.75000   0.12935   0.16667   0.00000  Uiso   1.00
N112   N     0.75000   0.37066   0.16667   0.00000  Uiso   1.00
O113   O     0.68573   0.29072   0.16667   0.00000  Uiso   1.00
O114   O     0.88402   0.17198   0.20693   0.00000  Uiso   1.00
O115   O     0.88403   0.32802   0.12639   0.00000  Uiso   1.00
O116   O     0.61598   0.17198   0.12641   0.00000  Uiso   1.00
O117   O     0.69137   0.03241   0.22936   0.00000  Uiso   1.00
O118   O     0.69136   0.46759   0.10399   0.00000  Uiso   1.00
O119   O     0.80863   0.03241   0.10397   0.00000  Uiso   1.00
O120   O     0.80864   0.46759   0.22935   0.00000  Uiso   1.00
O121   O     0.81427   0.20929   0.16666   0.00000  Uiso   1.00
O122   O     0.81427   0.29072   0.16666   0.00000  Uiso   1.00
O123   O     0.68573   0.20929   0.16667   0.00000  Uiso   1.00
O124   O     0.75000   0.29071   0.09613   0.00000  Uiso   1.00
O125   O     0.75000   0.20929   0.23720   0.00000  Uiso   1.00
O126   O     0.75000   0.29071   0.23720   0.00000  Uiso   1.00
O127   O     0.75000   0.20929   0.09613   0.00000  Uiso   1.00
O128   O     0.61597   0.32802   0.20693   0.00000  Uiso   1.00
C129   C     0.16485   0.75000   0.16667   0.00000  Uiso   1.00
C130   C     0.27902   0.94606   0.19763   0.00000  Uiso   1.00
C131   C     0.25000   0.75000   0.07349   0.00000  Uiso   1.00
C132   C     0.25000   0.75000   0.25985   0.00000  Uiso   1.00
C133   C     0.25000   0.52733   0.16667   0.00000  Uiso   1.00
C134   C     0.25000   0.97267   0.16667   0.00000  Uiso   1.00
C135   C     0.25000   0.75000   0.02183   0.00000  Uiso   1.00
C136   C     0.25000   0.75000   0.31150   0.00000  Uiso   1.00
C137   C     0.04700   0.78943   0.18588   0.00000  Uiso   1.00
C138   C     0.45300   0.71057   0.18588   0.00000  Uiso   1.00
C139   C     0.45300   0.78943   0.14744   0.00000  Uiso   1.00
C140   C     0.33515   0.75000   0.16666   0.00000  Uiso   1.00
C141   C     0.04700   0.71057   0.14745   0.00000  Uiso   1.00
C142   C     0.09314   0.78979   0.18641   0.00000  Uiso   1.00
C143   C     0.40685   0.71021   0.18641   0.00000  Uiso   1.00
C144   C     0.40686   0.78979   0.14692   0.00000  Uiso   1.00
C145   C     0.09315   0.71021   0.14693   0.00000  Uiso   1.00
C146   C     0.11639   0.75000   0.16667   0.00000  Uiso   1.00
C147   C     0.38361   0.75000   0.16666   0.00000  Uiso   1.00
C148   C     0.02409   0.75000   0.16667   0.00000  Uiso   1.00
C149   C     0.47591   0.75000   0.16667   0.00000  Uiso   1.00
C150   C     0.22189   0.60481   0.19660   0.00000  Uiso   1.00
C151   C     0.22189   0.89519   0.13674   0.00000  Uiso   1.00
C152   C     0.27811   0.60481   0.13674   0.00000  Uiso   1.00
C153   C     0.27811   0.89519   0.19659   0.00000  Uiso   1.00
C154   C     0.22098   0.55394   0.19764   0.00000  Uiso   1.00
C155   C     0.22098   0.94606   0.13570   0.00000  Uiso   1.00
C156   C     0.27902   0.55394   0.13570   0.00000  Uiso   1.00
Cu157  Cu    0.25000   0.79822   0.16667   0.00000  Uiso   1.00
Cu158  Cu    0.25000   0.70179   0.16667   0.00000  Uiso   1.00
H159   H     0.19980   0.62493   0.22014   0.00000  Uiso   1.00
H160   H     0.40526   0.64744   0.21893   0.00000  Uiso   1.00
H161   H     0.40527   0.85256   0.11439   0.00000  Uiso   1.00
H162   H     0.09474   0.64743   0.11441   0.00000  Uiso   1.00
H163   H     0.19386   0.99686   0.22735   0.00000  Uiso   1.00
H164   H     0.19386   0.50314   0.10600   0.00000  Uiso   1.00
H165   H     0.30614   0.99686   0.10599   0.00000  Uiso   1.00
H166   H     0.30614   0.50314   0.22733   0.00000  Uiso   1.00
H167   H     0.19980   0.87507   0.11320   0.00000  Uiso   1.00
H168   H     0.30020   0.62493   0.11319   0.00000  Uiso   1.00
H169   H     0.30020   0.87507   0.22013   0.00000  Uiso   1.00
H170   H     0.02883   0.81957   0.20124   0.00000  Uiso   1.00
H171   H     0.47116   0.68043   0.20124   0.00000  Uiso   1.00
H172   H     0.47117   0.81957   0.13209   0.00000  Uiso   1.00
H173   H     0.02884   0.68043   0.13210   0.00000  Uiso   1.00
H174   H     0.09473   0.85257   0.21893   0.00000  Uiso   1.00
N175   N     0.25000   0.62935   0.16667   0.00000  Uiso   1.00
N176   N     0.25000   0.87066   0.16667   0.00000  Uiso   1.00
O177   O     0.18573   0.79072   0.16667   0.00000  Uiso   1.00
O178   O     0.38402   0.67198   0.20693   0.00000  Uiso   1.00
O179   O     0.38403   0.82802   0.12639   0.00000  Uiso   1.00
O180   O     0.11598   0.67198   0.12641   0.00000  Uiso   1.00
O181   O     0.19137   0.53241   0.22936   0.00000  Uiso   1.00
O182   O     0.19136   0.96759   0.10399   0.00000  Uiso   1.00
O183   O     0.30863   0.53241   0.10397   0.00000  Uiso   1.00
O184   O     0.30864   0.96759   0.22935   0.00000  Uiso   1.00
O185   O     0.31427   0.70929   0.16666   0.00000  Uiso   1.00
O186   O     0.31427   0.79072   0.16666   0.00000  Uiso   1.00
O187   O     0.18573   0.70929   0.16667   0.00000  Uiso   1.00
O188   O     0.25000   0.79071   0.09613   0.00000  Uiso   1.00
O189   O     0.25000   0.70929   0.23720   0.00000  Uiso   1.00
O190   O     0.25000   0.79071   0.23720   0.00000  Uiso   1.00
O191   O     0.25000   0.70929   0.09613   0.00000  Uiso   1.00
O192   O     0.11597   0.82802   0.20693   0.00000  Uiso   1.00
C193   C     0.66485   0.75000   0.16667   0.00000  Uiso   1.00
C194   C     0.77902   0.94606   0.19763   0.00000  Uiso   1.00
C195   C     0.75000   0.75000   0.07349   0.00000  Uiso   1.00
C196   C     0.75000   0.75000   0.25985   0.00000  Uiso   1.00
C197   C     0.75000   0.52733   0.16667   0.00000  Uiso   1.00
C198   C     0.75000   0.97267   0.16667   0.00000  Uiso   1.00
C199   C     0.75000   0.75000   0.02183   0.00000  Uiso   1.00
C200   C     0.75000   0.75000   0.31150   0.00000  Uiso   1.00
C201   C     0.54700   0.78943   0.18588   0.00000  Uiso   1.00
C202   C     0.95300   0.71057   0.18588   0.00000  Uiso   1.00
C203   C     0.95300   0.78943   0.14744   0.00000  Uiso   1.00
C204   C     0.83515   0.75000   0.16666   0.00000  Uiso   1.00
C205   C     0.54700   0.71057   0.14745   0.00000  Uiso   1.00
C206   C     0.59314   0.78979   0.18641   0.00000  Uiso   1.00
C207   C     0.90685   0.71021   0.18641   0.00000  Uiso   1.00
C208   C     0.90686   0.78979   0.14692   0.00000  Uiso   1.00
C209   C     0.59315   0.71021   0.14693   0.00000  Uiso   1.00
C210   C     0.61639   0.75000   0.16667   0.00000  Uiso   1.00
C211   C     0.88361   0.75000   0.16666   0.00000  Uiso   1.00
C212   C     0.52409   0.75000   0.16667   0.00000  Uiso   1.00
C213   C     0.97591   0.75000   0.16667   0.00000  Uiso   1.00
C214   C     0.72189   0.60481   0.19660   0.00000  Uiso   1.00
C215   C     0.72189   0.89519   0.13674   0.00000  Uiso   1.00
C216   C     0.77811   0.60481   0.13674   0.00000  Uiso   1.00
C217   C     0.77811   0.89519   0.19659   0.00000  Uiso   1.00
C218   C     0.72098   0.55394   0.19764   0.00000  Uiso   1.00
C219   C     0.72098   0.94606   0.13570   0.00000  Uiso   1.00
C220   C     0.77902   0.55394   0.13570   0.00000  Uiso   1.00
Cu221  Cu    0.75000   0.79822   0.16667   0.00000  Uiso   1.00
Cu222  Cu    0.75000   0.70179   0.16667   0.00000  Uiso   1.00
H223   H     0.69980   0.62493   0.22014   0.00000  Uiso   1.00
H224   H     0.90526   0.64744   0.21893   0.00000  Uiso   1.00
H225   H     0.90527   0.85256   0.11439   0.00000  Uiso   1.00
H226   H     0.59474   0.64743   0.11441   0.00000  Uiso   1.00
H227   H     0.69386   0.99686   0.22735   0.00000  Uiso   1.00
H228   H     0.69386   0.50314   0.10600   0.00000  Uiso   1.00
H229   H     0.80614   0.99686   0.10599   0.00000  Uiso   1.00
H230   H     0.80614   0.50314   0.22733   0.00000  Uiso   1.00
H231   H     0.69980   0.87507   0.11320   0.00000  Uiso   1.00
H232   H     0.80020   0.62493   0.11319   0.00000  Uiso   1.00
H233   H     0.80020   0.87507   0.22013   0.00000  Uiso   1.00
H234   H     0.52883   0.81957   0.20124   0.00000  Uiso   1.00
H235   H     0.97116   0.68043   0.20124   0.00000  Uiso   1.00
H236   H     0.97117   0.81957   0.13209   0.00000  Uiso   1.00
H237   H     0.52884   0.68043   0.13210   0.00000  Uiso   1.00
H238   H     0.59473   0.85257   0.21893   0.00000  Uiso   1.00
N239   N     0.75000   0.62935   0.16667   0.00000  Uiso   1.00
N240   N     0.75000   0.87066   0.16667   0.00000  Uiso   1.00
O241   O     0.68573   0.79072   0.16667   0.00000  Uiso   1.00
O242   O     0.88402   0.67198   0.20693   0.00000  Uiso   1.00
O243   O     0.88403   0.82802   0.12639   0.00000  Uiso   1.00
O244   O     0.61598   0.67198   0.12641   0.00000  Uiso   1.00
O245   O     0.69137   0.53241   0.22936   0.00000  Uiso   1.00
O246   O     0.69136   0.96759   0.10399   0.00000  Uiso   1.00
O247   O     0.80863   0.53241   0.10397   0.00000  Uiso   1.00
O248   O     0.80864   0.96759   0.22935   0.00000  Uiso   1.00
O249   O     0.81427   0.70929   0.16666   0.00000  Uiso   1.00
O250   O     0.81427   0.79072   0.16666   0.00000  Uiso   1.00
O251   O     0.68573   0.70929   0.16667   0.00000  Uiso   1.00
O252   O     0.75000   0.79071   0.09613   0.00000  Uiso   1.00
O253   O     0.75000   0.70929   0.23720   0.00000  Uiso   1.00
O254   O     0.75000   0.79071   0.23720   0.00000  Uiso   1.00
O255   O     0.75000   0.70929   0.09613   0.00000  Uiso   1.00
O256   O     0.61597   0.82802   0.20693   0.00000  Uiso   1.00
C257   C     0.16485   0.25000   0.50000   0.00000  Uiso   1.00
C258   C     0.27902   0.44606   0.53096   0.00000  Uiso   1.00
C259   C     0.25000   0.25000   0.40682   0.00000  Uiso   1.00
C260   C     0.25000   0.25000   0.59318   0.00000  Uiso   1.00
C261   C     0.25000   0.02733   0.50000   0.00000  Uiso   1.00
C262   C     0.25000   0.47267   0.50000   0.00000  Uiso   1.00
C263   C     0.25000   0.25000   0.35516   0.00000  Uiso   1.00
C264   C     0.25000   0.25000   0.64484   0.00000  Uiso   1.00
C265   C     0.04700   0.28943   0.51922   0.00000  Uiso   1.00
C266   C     0.45300   0.21057   0.51922   0.00000  Uiso   1.00
C267   C     0.45300   0.28943   0.48078   0.00000  Uiso   1.00
C268   C     0.33515   0.25000   0.50000   0.00000  Uiso   1.00
C269   C     0.04700   0.21057   0.48078   0.00000  Uiso   1.00
C270   C     0.09314   0.28979   0.51974   0.00000  Uiso   1.00
C271   C     0.40685   0.21021   0.51974   0.00000  Uiso   1.00
C272   C     0.40686   0.28979   0.48025   0.00000  Uiso   1.00
C273   C     0.09315   0.21021   0.48026   0.00000  Uiso   1.00
C274   C     0.11639   0.25000   0.50000   0.00000  Uiso   1.00
C275   C     0.38361   0.25000   0.50000   0.00000  Uiso   1.00
C276   C     0.02409   0.25000   0.50000   0.00000  Uiso   1.00
C277   C     0.47591   0.25000   0.50000   0.00000  Uiso   1.00
C278   C     0.22189   0.10481   0.52993   0.00000  Uiso   1.00
C279   C     0.22189   0.39519   0.47008   0.00000  Uiso   1.00
C280   C     0.27811   0.10481   0.47007   0.00000  Uiso   1.00
C281   C     0.27811   0.39519   0.52992   0.00000  Uiso   1.00
C282   C     0.22098   0.05394   0.53097   0.00000  Uiso   1.00
C283   C     0.22098   0.44606   0.46904   0.00000  Uiso   1.00
C284   C     0.27902   0.05394   0.46903   0.00000  Uiso   1.00
Cu285  Cu    0.25000   0.29822   0.50000   0.00000  Uiso   1.00
Cu286  Cu    0.25000   0.20179   0.50000   0.00000  Uiso   1.00
H287   H     0.19980   0.12493   0.55348   0.00000  Uiso   1.00
H288   H     0.40526   0.14744   0.55227   0.00000  Uiso   1.00
H289   H     0.40527   0.35256   0.44773   0.00000  Uiso   1.00
H290   H     0.09474   0.14743   0.44774   0.00000  Uiso   1.00
H291   H     0.19386   0.49686   0.56068   0.00000  Uiso   1.00
H292   H     0.19386   0.00314   0.43934   0.00000  Uiso   1.00
H293   H     0.30614   0.49686   0.43932   0.00000  Uiso   1.00
H294   H     0.30614   0.00314   0.56066   0.00000  Uiso   1.00
H295   H     0.19980   0.37507   0.44654   0.00000  Uiso   1.00
H296   H     0.30020   0.12493   0.44652   0.00000  Uiso   1.00
H297   H     0.30020   0.37507   0.55346   0.00000  Uiso   1.00
H298   H     0.02883   0.31957   0.53457   0.00000  Uiso   1.00
H299   H     0.47116   0.18043   0.53458   0.00000  Uiso   1.00
H300   H     0.47117   0.31957   0.46542   0.00000  Uiso   1.00
H301   H     0.02884   0.18043   0.46543   0.00000  Uiso   1.00
H302   H     0.09473   0.35257   0.55226   0.00000  Uiso   1.00
N303   N     0.25000   0.12935   0.50000   0.00000  Uiso   1.00
N304   N     0.25000   0.37066   0.50000   0.00000  Uiso   1.00
O305   O     0.18573   0.29072   0.50000   0.00000  Uiso   1.00
O306   O     0.38402   0.17198   0.54027   0.00000  Uiso   1.00
O307   O     0.38403   0.32802   0.45973   0.00000  Uiso   1.00
O308   O     0.11598   0.17198   0.45974   0.00000  Uiso   1.00
O309   O     0.19137   0.03241   0.56270   0.00000  Uiso   1.00
O310   O     0.19136   0.46759   0.43732   0.00000  Uiso   1.00
O311   O     0.30863   0.03241   0.43730   0.00000  Uiso   1.00
O312   O     0.30864   0.46759   0.56268   0.00000  Uiso   1.00
O313   O     0.31427   0.20929   0.50000   0.00000  Uiso   1.00
O314   O     0.31427   0.29072   0.50000   0.00000  Uiso   1.00
O315   O     0.18573   0.20929   0.50000   0.00000  Uiso   1.00
O316   O     0.25000   0.29071   0.42946   0.00000  Uiso   1.00
O317   O     0.25000   0.20929   0.57054   0.00000  Uiso   1.00
O318   O     0.25000   0.29071   0.57054   0.00000  Uiso   1.00
O319   O     0.25000   0.20929   0.42946   0.00000  Uiso   1.00
O320   O     0.11597   0.32802   0.54027   0.00000  Uiso   1.00
C321   C     0.66485   0.25000   0.50000   0.00000  Uiso   1.00
C322   C     0.77902   0.44606   0.53096   0.00000  Uiso   1.00
C323   C     0.75000   0.25000   0.40682   0.00000  Uiso   1.00
C324   C     0.75000   0.25000   0.59318   0.00000  Uiso   1.00
C325   C     0.75000   0.02733   0.50000   0.00000  Uiso   1.00
C326   C     0.75000   0.47267   0.50000   0.00000  Uiso   1.00
C327   C     0.75000   0.25000   0.35516   0.00000  Uiso   1.00
C328   C     0.75000   0.25000   0.64484   0.00000  Uiso   1.00
C329   C     0.54700   0.28943   0.51922   0.00000  Uiso   1.00
C330   C     0.95300   0.21057   0.51922   0.00000  Uiso   1.00
C331   C     0.95300   0.28943   0.48078   0.00000  Uiso   1.00
C332   C     0.83515   0.25000   0.50000   0.00000  Uiso   1.00
C333   C     0.54700   0.21057   0.48078   0.00000  Uiso   1.00
C334   C     0.59314   0.28979   0.51974   0.00000  Uiso   1.00
C335   C     0.90685   0.21021   0.51974   0.00000  Uiso   1.00
C336   C     0.90686   0.28979   0.48025   0.00000  Uiso   1.00
C337   C     0.59315   0.21021   0.48026   0.00000  Uiso   1.00
C338   C     0.61639   0.25000   0.50000   0.00000  Uiso   1.00
C339   C     0.88361   0.25000   0.50000   0.00000  Uiso   1.00
C340   C     0.52409   0.25000   0.50000   0.00000  Uiso   1.00
C341   C     0.97591   0.25000   0.50000   0.00000  Uiso   1.00
C342   C     0.72189   0.10481   0.52993   0.00000  Uiso   1.00
C343   C     0.72189   0.39519   0.47008   0.00000  Uiso   1.00
C344   C     0.77811   0.10481   0.47007   0.00000  Uiso   1.00
C345   C     0.77811   0.39519   0.52992   0.00000  Uiso   1.00
C346   C     0.72098   0.05394   0.53097   0.00000  Uiso   1.00
C347   C     0.72098   0.44606   0.46904   0.00000  Uiso   1.00
C348   C     0.77902   0.05394   0.46903   0.00000  Uiso   1.00
Cu349  Cu    0.75000   0.29822   0.50000   0.00000  Uiso   1.00
Cu350  Cu    0.75000   0.20179   0.50000   0.00000  Uiso   1.00
H351   H     0.69980   0.12493   0.55348   0.00000  Uiso   1.00
H352   H     0.90526   0.14744   0.55227   0.00000  Uiso   1.00
H353   H     0.90527   0.35256   0.44773   0.00000  Uiso   1.00
H354   H     0.59474   0.14743   0.44774   0.00000  Uiso   1.00
H355   H     0.69386   0.49686   0.56068   0.00000  Uiso   1.00
H356   H     0.69386   0.00314   0.43934   0.00000  Uiso   1.00
H357   H     0.80614   0.49686   0.43932   0.00000  Uiso   1.00
H358   H     0.80614   0.00314   0.56066   0.00000  Uiso   1.00
H359   H     0.69980   0.37507   0.44654   0.00000  Uiso   1.00
H360   H     0.80020   0.12493   0.44652   0.00000  Uiso   1.00
H361   H     0.80020   0.37507   0.55346   0.00000  Uiso   1.00
H362   H     0.52883   0.31957   0.53457   0.00000  Uiso   1.00
H363   H     0.97116   0.18043   0.53458   0.00000  Uiso   1.00
H364   H     0.97117   0.31957   0.46542   0.00000  Uiso   1.00
H365   H     0.52884   0.18043   0.46543   0.00000  Uiso   1.00
H366   H     0.59473   0.35257   0.55226   0.00000  Uiso   1.00
N367   N     0.75000   0.12935   0.50000   0.00000  Uiso   1.00
N368   N     0.75000   0.37066   0.50000   0.00000  Uiso   1.00
O369   O     0.68573   0.29072   0.50000   0.00000  Uiso   1.00
O370   O     0.88402   0.17198   0.54027   0.00000  Uiso   1.00
O371   O     0.88403   0.32802   0.45973   0.00000  Uiso   1.00
O372   O     0.61598   0.17198   0.45974   0.00000  Uiso   1.00
O373   O     0.69137   0.03241   0.56270   0.00000  Uiso   1.00
O374   O     0.69136   0.46759   0.43732   0.00000  Uiso   1.00
O375   O     0.80863   0.03241   0.43730   0.00000  Uiso   1.00
O376   O     0.80864   0.46759   0.56268   0.00000  Uiso   1.00
O377   O     0.81427   0.20929   0.50000   0.00000  Uiso   1.00
O378   O     0.81427   0.29072   0.50000   0.00000  Uiso   1.00
O379   O     0.68573   0.20929   0.50000   0.00000  Uiso   1.00
O380   O     0.75000   0.29071   0.42946   0.00000  Uiso   1.00
O381   O     0.75000   0.20929   0.57054   0.00000  Uiso   1.00
O382   O     0.75000   0.29071   0.57054   0.00000  Uiso   1.00
O383   O     0.75000   0.20929   0.42946   0.00000  Uiso   1.00
O384   O     0.61597   0.32802   0.54027   0.00000  Uiso   1.00
C385   C     0.16485   0.75000   0.50000   0.00000  Uiso   1.00
C386   C     0.27902   0.94606   0.53096   0.00000  Uiso   1.00
C387   C     0.25000   0.75000   0.40682   0.00000  Uiso   1.00
C388   C     0.25000   0.75000   0.59318   0.00000  Uiso   1.00
C389   C     0.25000   0.52733   0.50000   0.00000  Uiso   1.00
C390   C     0.25000   0.97267   0.50000   0.00000  Uiso   1.00
C391   C     0.25000   0.75000   0.35516   0.00000  Uiso   1.00
C392   C     0.25000   0.75000   0.64484   0.00000  Uiso   1.00
C393   C     0.04700   0.78943   0.51922   0.00000  Uiso   1.00
C394   C     0.45300   0.71057   0.51922   0.00000  Uiso   1.00
C395   C     0.45300   0.78943   0.48078   0.00000  Uiso   1.00
C396   C     0.33515   0.75000   0.50000   0.00000  Uiso   1.00
C397   C     0.04700   0.71057   0.48078   0.00000  Uiso   1.00
C398   C     0.09314   0.78979   0.51974   0.00000  Uiso   1.00
C399   C     0.40685   0.71021   0.51974   0.00000  Uiso   1.00
C400   C     0.40686   0.78979   0.48025   0.00000  Uiso   1.00
C401   C     0.09315   0.71021   0.48026   0.00000  Uiso   1.00
C402   C     0.11639   0.75000   0.50000   0.00000  Uiso   1.00
C403   C     0.38361   0.75000   0.50000   0.00000  Uiso   1.00
C404   C     0.02409   0.75000   0.50000   0.00000  Uiso   1.00
C405   C     0.47591   0.75000   0.50000   0.00000  Uiso   1.00
C406   C     0.22189   0.60481   0.52993   0.00000  Uiso   1.00
C407   C     0.22189   0.89519   0.47008   0.00000  Uiso   1.00
C408   C     0.27811   0.60481   0.47007   0.00000  Uiso   1.00
C409   C     0.27811   0.89519   0.52992   0.00000  Uiso   1.00
C410   C     0.22098   0.55394   0.53097   0.00000  Uiso   1.00
C411   C     0.22098   0.94606   0.46904   0.00000  Uiso   1.00
C412   C     0.27902   0.55394   0.46903   0.00000  Uiso   1.00
Cu413  Cu    0.25000   0.79822   0.50000   0.00000  Uiso   1.00
Cu414  Cu    0.25000   0.70179   0.50000   0.00000  Uiso   1.00
H415   H     0.19980   0.62493   0.55348   0.00000  Uiso   1.00
H416   H     0.40526   0.64744   0.55227   0.00000  Uiso   1.00
H417   H     0.40527   0.85256   0.44773   0.00000  Uiso   1.00
H418   H     0.09474   0.64743   0.44774   0.00000  Uiso   1.00
H419   H     0.19386   0.99686   0.56068   0.00000  Uiso   1.00
H420   H     0.19386   0.50314   0.43934   0.00000  Uiso   1.00
H421   H     0.30614   0.99686   0.43932   0.00000  Uiso   1.00
H422   H     0.30614   0.50314   0.56066   0.00000  Uiso   1.00
H423   H     0.19980   0.87507   0.44654   0.00000  Uiso   1.00
H424   H     0.30020   0.62493   0.44652   0.00000  Uiso   1.00
H425   H     0.30020   0.87507   0.55346   0.00000  Uiso   1.00
H426   H     0.02883   0.81957   0.53457   0.00000  Uiso   1.00
H427   H     0.47116   0.68043   0.53458   0.00000  Uiso   1.00
H428   H     0.47117   0.81957   0.46542   0.00000  Uiso   1.00
H429   H     0.02884   0.68043   0.46543   0.00000  Uiso   1.00
H430   H     0.09473   0.85257   0.55226   0.00000  Uiso   1.00
N431   N     0.25000   0.62935   0.50000   0.00000  Uiso   1.00
N432   N     0.25000   0.87066   0.50000   0.00000  Uiso   1.00
O433   O     0.18573   0.79072   0.50000   0.00000  Uiso   1.00
O434   O     0.38402   0.67198   0.54027   0.00000  Uiso   1.00
O435   O     0.38403   0.82802   0.45973   0.00000  Uiso   1.00
O436   O     0.11598   0.67198   0.45974   0.00000  Uiso   1.00
O437   O     0.19137   0.53241   0.56270   0.00000  Uiso   1.00
O438   O     0.19136   0.96759   0.43732   0.00000  Uiso   1.00
O439   O     0.30863   0.53241   0.43730   0.00000  Uiso   1.00
O440   O     0.30864   0.96759   0.56268   0.00000  Uiso   1.00
O441   O     0.31427   0.70929   0.50000   0.00000  Uiso   1.00
O442   O     0.31427   0.79072   0.50000   0.00000  Uiso   1.00
O443   O     0.18573   0.70929   0.50000   0.00000  Uiso   1.00
O444   O     0.25000   0.79071   0.42946   0.00000  Uiso   1.00
O445   O     0.25000   0.70929   0.57054   0.00000  Uiso   1.00
O446   O     0.25000   0.79071   0.57054   0.00000  Uiso   1.00
O447   O     0.25000   0.70929   0.42946   0.00000  Uiso   1.00
O448   O     0.11597   0.82802   0.54027   0.00000  Uiso   1.00
C449   C     0.66485   0.75000   0.50000   0.00000  Uiso   1.00
C450   C     0.77902   0.94606   0.53096   0.00000  Uiso   1.00
C451   C     0.75000   0.75000   0.40682   0.00000  Uiso   1.00
C452   C     0.75000   0.75000   0.59318   0.00000  Uiso   1.00
C453   C     0.75000   0.52733   0.50000   0.00000  Uiso   1.00
C454   C     0.75000   0.97267   0.50000   0.00000  Uiso   1.00
C455   C     0.75000   0.75000   0.35516   0.00000  Uiso   1.00
C456   C     0.75000   0.75000   0.64484   0.00000  Uiso   1.00
C457   C     0.54700   0.78943   0.51922   0.00000  Uiso   1.00
C458   C     0.95300   0.71057   0.51922   0.00000  Uiso   1.00
C459   C     0.95300   0.78943   0.48078   0.00000  Uiso   1.00
C460   C     0.83515   0.75000   0.50000   0.00000  Uiso   1.00
C461   C     0.54700   0.71057   0.48078   0.00000  Uiso   1.00
C462   C     0.59314   0.78979   0.51974   0.00000  Uiso   1.00
C463   C     0.90685   0.71021   0.51974   0.00000  Uiso   1.00
C464   C     0.90686   0.78979   0.48025   0.00000  Uiso   1.00
C465   C     0.59315   0.71021   0.48026   0.00000  Uiso   1.00
C466   C     0.61639   0.75000   0.50000   0.00000  Uiso   1.00
C467   C     0.88361   0.75000   0.50000   0.00000  Uiso   1.00
C468   C     0.52409   0.75000   0.50000   0.00000  Uiso   1.00
C469   C     0.97591   0.75000   0.50000   0.00000  Uiso   1.00
C470   C     0.72189   0.60481   0.52993   0.00000  Uiso   1.00
C471   C     0.72189   0.89519   0.47008   0.00000  Uiso   1.00
C472   C     0.77811   0.60481   0.47007   0.00000  Uiso   1.00
C473   C     0.77811   0.89519   0.52992   0.00000  Uiso   1.00
C474   C     0.72098   0.55394   0.53097   0.00000  Uiso   1.00
C475   C     0.72098   0.94606   0.46904   0.00000  Uiso   1.00
C476   C     0.77902   0.55394   0.46903   0.00000  Uiso   1.00
Cu477  Cu    0.75000   0.79822   0.50000   0.00000  Uiso   1.00
Cu478  Cu    0.75000   0.70179   0.50000   0.00000  Uiso   1.00
H479   H     0.69980   0.62493   0.55348   0.00000  Uiso   1.00
H480   H     0.90526   0.64744   0.55227   0.00000  Uiso   1.00
H481   H     0.90527   0.85256   0.44773   0.00000  Uiso   1.00
H482   H     0.59474   0.64743   0.44774   0.00000  Uiso   1.00
H483   H     0.69386   0.99686   0.56068   0.00000  Uiso   1.00
H484   H     0.69386   0.50314   0.43934   0.00000  Uiso   1.00
H485   H     0.80614   0.99686   0.43932   0.00000  Uiso   1.00
H486   H     0.80614   0.50314   0.56066   0.00000  Uiso   1.00
H487   H     0.69980   0.87507   0.44654   0.00000  Uiso   1.00
H488   H     0.80020   0.62493   0.44652   0.00000  Uiso   1.00
H489   H     0.80020   0.87507   0.55346   0.00000  Uiso   1.00
H490   H     0.52883   0.81957   0.53457   0.00000  Uiso   1.00
H491   H     0.97116   0.68043   0.53458   0.00000  Uiso   1.00
H492   H     0.97117   0.81957   0.46542   0.00000  Uiso   1.00
H493   H     0.52884   0.68043   0.46543   0.00000  Uiso   1.00
H494   H     0.59473   0.85257   0.55226   0.00000  Uiso   1.00
N495   N     0.75000   0.62935   0.50000   0.00000  Uiso   1.00
N496   N     0.75000   0.87066   0.50000   0.00000  Uiso   1.00
O497   O     0.68573   0.79072   0.50000   0.00000  Uiso   1.00
O498   O     0.88402   0.67198   0.54027   0.00000  Uiso   1.00
O499   O     0.88403   0.82802   0.45973   0.00000  Uiso   1.00
O500   O     0.61598   0.67198   0.45974   0.00000  Uiso   1.00
O501   O     0.69137   0.53241   0.56270   0.00000  Uiso   1.00
O502   O     0.69136   0.96759   0.43732   0.00000  Uiso   1.00
O503   O     0.80863   0.53241   0.43730   0.00000  Uiso   1.00
O504   O     0.80864   0.96759   0.56268   0.00000  Uiso   1.00
O505   O     0.81427   0.70929   0.50000   0.00000  Uiso   1.00
O506   O     0.81427   0.79072   0.50000   0.00000  Uiso   1.00
O507   O     0.68573   0.70929   0.50000   0.00000  Uiso   1.00
O508   O     0.75000   0.79071   0.42946   0.00000  Uiso   1.00
O509   O     0.75000   0.70929   0.57054   0.00000  Uiso   1.00
O510   O     0.75000   0.79071   0.57054   0.00000  Uiso   1.00
O511   O     0.75000   0.70929   0.42946   0.00000  Uiso   1.00
O512   O     0.61597   0.82802   0.54027   0.00000  Uiso   1.00
C513   C     0.16485   0.25000   0.83334   0.00000  Uiso   1.00
C514   C     0.27902   0.44606   0.86430   0.00000  Uiso   1.00
C515   C     0.25000   0.25000   0.74015   0.00000  Uiso   1.00
C516   C     0.25000   0.25000   0.92651   0.00000  Uiso   1.00
C517   C     0.25000   0.02733   0.83333   0.00000  Uiso   1.00
C518   C     0.25000   0.47267   0.83333   0.00000  Uiso   1.00
C519   C     0.25000   0.25000   0.68850   0.00000  Uiso   1.00
C520   C     0.25000   0.25000   0.97817   0.00000  Uiso   1.00
C521   C     0.04700   0.28943   0.85255   0.00000  Uiso   1.00
C522   C     0.45300   0.21057   0.85255   0.00000  Uiso   1.00
C523   C     0.45300   0.28943   0.81411   0.00000  Uiso   1.00
C524   C     0.33515   0.25000   0.83333   0.00000  Uiso   1.00
C525   C     0.04700   0.21057   0.81412   0.00000  Uiso   1.00
C526   C     0.09314   0.28979   0.85308   0.00000  Uiso   1.00
C527   C     0.40685   0.21021   0.85307   0.00000  Uiso   1.00
C528   C     0.40686   0.28979   0.81359   0.00000  Uiso   1.00
C529   C     0.09315   0.21021   0.81360   0.00000  Uiso   1.00
C530   C     0.11639   0.25000   0.83334   0.00000  Uiso   1.00
C531   C     0.38361   0.25000   0.83333   0.00000  Uiso   1.00
C532   C     0.02409   0.25000   0.83333   0.00000  Uiso   1.00
C533   C     0.47591   0.25000   0.83333   0.00000  Uiso   1.00
C534   C     0.22189   0.10481   0.86326   0.00000  Uiso   1.00
C535   C     0.22189   0.39519   0.80341   0.00000  Uiso   1.00
C536   C     0.27811   0.10481   0.80340   0.00000  Uiso   1.00
C537   C     0.27811   0.39519   0.86326   0.00000  Uiso   1.00
C538   C     0.22098   0.05394   0.86430   0.00000  Uiso   1.00
C539   C     0.22098   0.44606   0.80237   0.00000  Uiso   1.00
C540   C     0.27902   0.05394   0.80236   0.00000  Uiso   1.00
Cu541  Cu    0.25000   0.29822   0.83333   0.00000  Uiso   1.00
Cu542  Cu    0.25000   0.20179   0.83333   0.00000  Uiso   1.00
H543   H     0.19980   0.12493   0.88681   0.00000  Uiso   1.00
H544   H     0.40526   0.14744   0.88560   0.00000  Uiso   1.00
H545   H     0.40527   0.35256   0.78106   0.00000  Uiso   1.00
H546   H     0.09474   0.14743   0.78107   0.00000  Uiso   1.00
H547   H     0.19386   0.49686   0.89401   0.00000  Uiso   1.00
H548   H     0.19386   0.00314   0.77267   0.00000  Uiso   1.00
H549   H     0.30614   0.49686   0.77265   0.00000  Uiso   1.00
H550   H     0.30614   0.00314   0.89400   0.00000  Uiso   1.00
H551   H     0.19980   0.37507   0.77987   0.00000  Uiso   1.00
H552   H     0.30020   0.12493   0.77985   0.00000  Uiso   1.00
H553   H     0.30020   0.37507   0.88680   0.00000  Uiso   1.00
H554   H     0.02883   0.31957   0.86791   0.00000  Uiso   1.00
H555   H     0.47116   0.18043   0.86791   0.00000  Uiso   1.00
H556   H     0.47117   0.31957   0.79875   0.00000  Uiso   1.00
H557   H     0.02884   0.18043   0.79876   0.00000  Uiso   1.00
H558   H     0.09473   0.35257   0.88560   0.00000  Uiso   1.00
N559   N     0.25000   0.12935   0.83333   0.00000  Uiso   1.00
N560   N     0.25000   0.37066   0.83333   0.00000  Uiso   1.00
O561   O     0.18573   0.29072   0.83334   0.00000  Uiso   1.00
O562   O     0.38402   0.17198   0.87360   0.00000  Uiso   1.00
O563   O     0.38403   0.32802   0.79306   0.00000  Uiso   1.00
O564   O     0.11598   0.17198   0.79307   0.00000  Uiso   1.00
O565   O     0.19137   0.03241   0.89603   0.00000  Uiso   1.00
O566   O     0.19136   0.46759   0.77065   0.00000  Uiso   1.00
O567   O     0.30863   0.03241   0.77064   0.00000  Uiso   1.00
O568   O     0.30864   0.46759   0.89601   0.00000  Uiso   1.00
O569   O     0.31427   0.20929   0.83333   0.00000  Uiso   1.00
O570   O     0.31427   0.29072   0.83333   0.00000  Uiso   1.00
O571   O     0.18573   0.20929   0.83334   0.00000  Uiso   1.00
O572   O     0.25000   0.29071   0.76280   0.00000  Uiso   1.00
O573   O     0.25000   0.20929   0.90387   0.00000  Uiso   1.00
O574   O     0.25000   0.29071   0.90387   0.00000  Uiso   1.00
O575   O     0.25000   0.20929   0.76280   0.00000  Uiso   1.00
O576   O     0.11597   0.32802   0.87360   0.00000  Uiso   1.00
C577   C     0.66485   0.25000   0.83334   0.00000  Uiso   1.00
C578   C     0.77902   0.44606   0.86430   0.00000  Uiso   1.00
C579   C     0.75000   0.25000   0.74015   0.00000  Uiso   1.00
C580   C     0.75000   0.25000   0.92651   0.00000  Uiso   1.00
C581   C     0.75000   0.02733   0.83333   0.00000  Uiso   1.00
C582   C     0.75000   0.47267   0.83333   0.00000  Uiso   1.00
C583   C     0.75000   0.25000   0.68850   0.00000  Uiso   1.00
C584   C     0.75000   0.25000   0.97817   0.00000  Uiso   1.00
C585   C     0.54700   0.28943   0.85255   0.00000  Uiso   1.00
C586   C     0.95300   0.21057   0.85255   0.00000  Uiso   1.00
C587   C     0.95300   0.28943   0.81411   0.00000  Uiso   1.00
C588   C     0.83515   0.25000   0.83333   0.00000  Uiso   1.00
C589   C     0.54700   0.21057   0.81412   0.00000  Uiso   1.00
C590   C     0.59314   0.28979   0.85308   0.00000  Uiso   1.00
C591   C     0.90685   0.21021   0.85307   0.00000  Uiso   1.00
C592   C     0.90686   0.28979   0.81359   0.00000  Uiso   1.00
C593   C     0.59315   0.21021   0.81360   0.00000  Uiso   1.00
C594   C     0.61639   0.25000   0.83334   0.00000  Uiso   1.00
C595   C     0.88361   0.25000   0.83333   0.00000  Uiso   1.00
C596   C     0.52409   0.25000   0.83333   0.00000  Uiso   1.00
C597   C     0.97591   0.25000   0.83333   0.00000  Uiso   1.00
C598   C     0.72189   0.10481   0.86326   0.00000  Uiso   1.00
C599   C     0.72189   0.39519   0.80341   0.00000  Uiso   1.00
C600   C     0.77811   0.10481   0.80340   0.00000  Uiso   1.00
C601   C     0.77811   0.39519   0.86326   0.00000  Uiso   1.00
C602   C     0.72098   0.05394   0.86430   0.00000  Uiso   1.00
C603   C     0.72098   0.44606   0.80237   0.00000  Uiso   1.00
C604   C     0.77902   0.05394   0.80236   0.00000  Uiso   1.00
Cu605  Cu    0.75000   0.29822   0.83333   0.00000  Uiso   1.00
Cu606  Cu    0.75000   0.20179   0.83333   0.00000  Uiso   1.00
H607   H     0.69980   0.12493   0.88681   0.00000  Uiso   1.00
H608   H     0.90526   0.14744   0.88560   0.00000  Uiso   1.00
H609   H     0.90527   0.35256   0.78106   0.00000  Uiso   1.00
H610   H     0.59474   0.14743   0.78107   0.00000  Uiso   1.00
H611   H     0.69386   0.49686   0.89401   0.00000  Uiso   1.00
H612   H     0.69386   0.00314   0.77267   0.00000  Uiso   1.00
H613   H     0.80614   0.49686   0.77265   0.00000  Uiso   1.00
H614   H     0.80614   0.00314   0.89400   0.00000  Uiso   1.00
H615   H     0.69980   0.37507   0.77987   0.00000  Uiso   1.00
H616   H     0.80020   0.12493   0.77985   0.00000  Uiso   1.00
H617   H     0.80020   0.37507   0.88680   0.00000  Uiso   1.00
H618   H     0.52883   0.31957   0.86791   0.00000  Uiso   1.00
H619   H     0.97116   0.18043   0.86791   0.00000  Uiso   1.00
H620   H     0.97117   0.31957   0.79875   0.00000  Uiso   1.00
H621   H     0.52884   0.18043   0.79876   0.00000  Uiso   1.00
H622   H     0.59473   0.35257   0.88560   0.00000  Uiso   1.00
N623   N     0.75000   0.12935   0.83333   0.00000  Uiso   1.00
N624   N     0.75000   0.37066   0.83333   0.00000  Uiso   1.00
O625   O     0.68573   0.29072   0.83334   0.00000  Uiso   1.00
O626   O     0.88402   0.17198   0.87360   0.00000  Uiso   1.00
O627   O     0.88403   0.32802   0.79306   0.00000  Uiso   1.00
O628   O     0.61598   0.17198   0.79307   0.00000  Uiso   1.00
O629   O     0.69137   0.03241   0.89603   0.00000  Uiso   1.00
O630   O     0.69136   0.46759   0.77065   0.00000  Uiso   1.00
O631   O     0.80863   0.03241   0.77064   0.00000  Uiso   1.00
O632   O     0.80864   0.46759   0.89601   0.00000  Uiso   1.00
O633   O     0.81427   0.20929   0.83333   0.00000  Uiso   1.00
O634   O     0.81427   0.29072   0.83333   0.00000  Uiso   1.00
O635   O     0.68573   0.20929   0.83334   0.00000  Uiso   1.00
O636   O     0.75000   0.29071   0.76280   0.00000  Uiso   1.00
O637   O     0.75000   0.20929   0.90387   0.00000  Uiso   1.00
O638   O     0.75000   0.29071   0.90387   0.00000  Uiso   1.00
O639   O     0.75000   0.20929   0.76280   0.00000  Uiso   1.00
O640   O     0.61597   0.32802   0.87360   0.00000  Uiso   1.00
C641   C     0.16485   0.75000   0.83334   0.00000  Uiso   1.00
C642   C     0.27902   0.94606   0.86430   0.00000  Uiso   1.00
C643   C     0.25000   0.75000   0.74015   0.00000  Uiso   1.00
C644   C     0.25000   0.75000   0.92651   0.00000  Uiso   1.00
C645   C     0.25000   0.52733   0.83333   0.00000  Uiso   1.00
C646   C     0.25000   0.97267   0.83333   0.00000  Uiso   1.00
C647   C     0.25000   0.75000   0.68850   0.00000  Uiso   1.00
C648   C     0.25000   0.75000   0.97817   0.00000  Uiso   1.00
C649   C     0.04700   0.78943   0.85255   0.00000  Uiso   1.00
C650   C     0.45300   0.71057   0.85255   0.00000  Uiso   1.00
C651   C     0.45300   0.78943   0.81411   0.00000  Uiso   1.00
C652   C     0.33515   0.75000   0.83333   0.00000  Uiso   1.00
C653   C     0.04700   0.71057   0.81412   0.00000  Uiso   1.00
C654   C     0.09314   0.78979   0.85308   0.00000  Uiso   1.00
C655   C     0.40685   0.71021   0.85307   0.00000  Uiso   1.00
C656   C     0.40686   0.78979   0.81359   0.00000  Uiso   1.00
C657   C     0.09315   0.71021   0.81360   0.00000  Uiso   1.00
C658   C     0.11639   0.75000   0.83334   0.00000  Uiso   1.00
C659   C     0.38361   0.75000   0.83333   0.00000  Uiso   1.00
C660   C     0.02409   0.75000   0.83333   0.00000  Uiso   1.00
C661   C     0.47591   0.75000   0.83333   0.00000  Uiso   1.00
C662   C     0.22189   0.60481   0.86326   0.00000  Uiso   1.00
C663   C     0.22189   0.89519   0.80341   0.00000  Uiso   1.00
C664   C     0.27811   0.60481   0.80340   0.00000  Uiso   1.00
C665   C     0.27811   0.89519   0.86326   0.00000  Uiso   1.00
C666   C     0.22098   0.55394   0.86430   0.00000  Uiso   1.00
C667   C     0.22098   0.94606   0.80237   0.00000  Uiso   1.00
C668   C     0.27902   0.55394   0.80236   0.00000  Uiso   1.00
Cu669  Cu    0.25000   0.79822   0.83333   0.00000  Uiso   1.00
Cu670  Cu    0.25000   0.70179   0.83333   0.00000  Uiso   1.00
H671   H     0.19980   0.62493   0.88681   0.00000  Uiso   1.00
H672   H     0.40526   0.64744   0.88560   0.00000  Uiso   1.00
H673   H     0.40527   0.85256   0.78106   0.00000  Uiso   1.00
H674   H     0.09474   0.64743   0.78107   0.00000  Uiso   1.00
H675   H     0.19386   0.99686   0.89401   0.00000  Uiso   1.00
H676   H     0.19386   0.50314   0.77267   0.00000  Uiso   1.00
H677   H     0.30614   0.99686   0.77265   0.00000  Uiso   1.00
H678   H     0.30614   0.50314   0.89400   0.00000  Uiso   1.00
H679   H     0.19980   0.87507   0.77987   0.00000  Uiso   1.00
H680   H     0.30020   0.62493   0.77985   0.00000  Uiso   1.00
H681   H     0.30020   0.87507   0.88680   0.00000  Uiso   1.00
H682   H     0.02883   0.81957   0.86791   0.00000  Uiso   1.00
H683   H     0.47116   0.68043   0.86791   0.00000  Uiso   1.00
H684   H     0.47117   0.81957   0.79875   0.00000  Uiso   1.00
H685   H     0.02884   0.68043   0.79876   0.00000  Uiso   1.00
H686   H     0.09473   0.85257   0.88560   0.00000  Uiso   1.00
N687   N     0.25000   0.62935   0.83333   0.00000  Uiso   1.00
N688   N     0.25000   0.87066   0.83333   0.00000  Uiso   1.00
O689   O     0.18573   0.79072   0.83334   0.00000  Uiso   1.00
O690   O     0.38402   0.67198   0.87360   0.00000  Uiso   1.00
O691   O     0.38403   0.82802   0.79306   0.00000  Uiso   1.00
O692   O     0.11598   0.67198   0.79307   0.00000  Uiso   1.00
O693   O     0.19137   0.53241   0.89603   0.00000  Uiso   1.00
O694   O     0.19136   0.96759   0.77065   0.00000  Uiso   1.00
O695   O     0.30863   0.53241   0.77064   0.00000  Uiso   1.00
O696   O     0.30864   0.96759   0.89601   0.00000  Uiso   1.00
O697   O     0.31427   0.70929   0.83333   0.00000  Uiso   1.00
O698   O     0.31427   0.79072   0.83333   0.00000  Uiso   1.00
O699   O     0.18573   0.70929   0.83334   0.00000  Uiso   1.00
O700   O     0.25000   0.79071   0.76280   0.00000  Uiso   1.00
O701   O     0.25000   0.70929   0.90387   0.00000  Uiso   1.00
O702   O     0.25000   0.79071   0.90387   0.00000  Uiso   1.00
O703   O     0.25000   0.70929   0.76280   0.00000  Uiso   1.00
O704   O     0.11597   0.82802   0.87360   0.00000  Uiso   1.00
C705   C     0.66485   0.75000   0.83334   0.00000  Uiso   1.00
C706   C     0.77902   0.94606   0.86430   0.00000  Uiso   1.00
C707   C     0.75000   0.75000   0.74015   0.00000  Uiso   1.00
C708   C     0.75000   0.75000   0.92651   0.00000  Uiso   1.00
C709   C     0.75000   0.52733   0.83333   0.00000  Uiso   1.00
C710   C     0.75000   0.97267   0.83333   0.00000  Uiso   1.00
C711   C     0.75000   0.75000   0.68850   0.00000  Uiso   1.00
C712   C     0.75000   0.75000   0.97817   0.00000  Uiso   1.00
C713   C     0.54700   0.78943   0.85255   0.00000  Uiso   1.00
C714   C     0.95300   0.71057   0.85255   0.00000  Uiso   1.00
C715   C     0.95300   0.78943   0.81411   0.00000  Uiso   1.00
C716   C     0.83515   0.75000   0.83333   0.00000  Uiso   1.00
C717   C     0.54700   0.71057   0.81412   0.00000  Uiso   1.00
C718   C     0.59314   0.78979   0.85308   0.00000  Uiso   1.00
C719   C     0.90685   0.71021   0.85307   0.00000  Uiso   1.00
C720   C     0.90686   0.78979   0.81359   0.00000  Uiso   1.00
C721   C     0.59315   0.71021   0.81360   0.00000  Uiso   1.00
C722   C     0.61639   0.75000   0.83334   0.00000  Uiso   1.00
C723   C     0.88361   0.75000   0.83333   0.00000  Uiso   1.00
C724   C     0.52409   0.75000   0.83333   0.00000  Uiso   1.00
C725   C     0.97591   0.75000   0.83333   0.00000  Uiso   1.00
C726   C     0.72189   0.60481   0.86326   0.00000  Uiso   1.00
C727   C     0.72189   0.89519   0.80341   0.00000  Uiso   1.00
C728   C     0.77811   0.60481   0.80340   0.00000  Uiso   1.00
C729   C     0.77811   0.89519   0.86326   0.00000  Uiso   1.00
C730   C     0.72098   0.55394   0.86430   0.00000  Uiso   1.00
C731   C     0.72098   0.94606   0.80237   0.00000  Uiso   1.00
C732   C     0.77902   0.55394   0.80236   0.00000  Uiso   1.00
Cu733  Cu    0.75000   0.79822   0.83333   0.00000  Uiso   1.00
Cu734  Cu    0.75000   0.70179   0.83333   0.00000  Uiso   1.00
H735   H     0.69980   0.62493   0.88681   0.00000  Uiso   1.00
H736   H     0.90526   0.64744   0.88560   0.00000  Uiso   1.00
H737   H     0.90527   0.85256   0.78106   0.00000  Uiso   1.00
H738   H     0.59474   0.64743   0.78107   0.00000  Uiso   1.00
H739   H     0.69386   0.99686   0.89401   0.00000  Uiso   1.00
H740   H     0.69386   0.50314   0.77267   0.00000  Uiso   1.00
H741   H     0.80614   0.99686   0.77265   0.00000  Uiso   1.00
H742   H     0.80614   0.50314   0.89400   0.00000  Uiso   1.00
H743   H     0.69980   0.87507   0.77987   0.00000  Uiso   1.00
H744   H     0.80020   0.62493   0.77985   0.00000  Uiso   1.00
H745   H     0.80020   0.87507   0.88680   0.00000  Uiso   1.00
H746   H     0.52883   0.81957   0.86791   0.00000  Uiso   1.00
H747   H     0.97116   0.68043   0.86791   0.00000  Uiso   1.00
H748   H     0.97117   0.81957   0.79875   0.00000  Uiso   1.00
H749   H     0.52884   0.68043   0.79876   0.00000  Uiso   1.00
H750   H     0.59473   0.85257   0.88560   0.00000  Uiso   1.00
N751   N     0.75000   0.62935   0.83333   0.00000  Uiso   1.00
N752   N     0.75000   0.87066   0.83333   0.00000  Uiso   1.00
O753   O     0.68573   0.79072   0.83334   0.00000  Uiso   1.00
O754   O     0.88402   0.67198   0.87360   0.00000  Uiso   1.00
O755   O     0.88403   0.82802   0.79306   0.00000  Uiso   1.00
O756   O     0.61598   0.67198   0.79307   0.00000  Uiso   1.00
O757   O     0.69137   0.53241   0.89603   0.00000  Uiso   1.00
O758   O     0.69136   0.96759   0.77065   0.00000  Uiso   1.00
O759   O     0.80863   0.53241   0.77064   0.00000  Uiso   1.00
O760   O     0.80864   0.96759   0.89601   0.00000  Uiso   1.00
O761   O     0.81427   0.70929   0.83333   0.00000  Uiso   1.00
O762   O     0.81427   0.79072   0.83333   0.00000  Uiso   1.00
O763   O     0.68573   0.70929   0.83334   0.00000  Uiso   1.00
O764   O     0.75000   0.79071   0.76280   0.00000  Uiso   1.00
O765   O     0.75000   0.70929   0.90387   0.00000  Uiso   1.00
O766   O     0.75000   0.79071   0.90387   0.00000  Uiso   1.00
O767   O     0.75000   0.70929   0.76280   0.00000  Uiso   1.00
O768   O     0.61597   0.82802   0.87360   0.00000  Uiso   1.00
loop_
_geom_bond_atom_site_label_1
_geom_bond_atom_site_label_2
_geom_bond_distance
_geom_bond_site_symmetry_2
_ccdc_geom_bond_type
C1     C18     1.470   .     S
C1     O59     1.293   .     A
C1     O49     1.293   .     A
C2     C6      1.425   .     A
C2     C25     1.408   .     A
C2     O56     1.382   .     S
C3     O63     1.285   .     A
C3     O60     1.285   .     A
C3     C7      1.408   .     S
C4     C8      1.408   .     S
C4     O62     1.285   .     A
C4     O61     1.285   .     A
C5     C28     1.425   .     A
C5     C26     1.425   .     A
C5     C134    1.513   1_545 S
C6     C27     1.425   .     A
C6     C133    1.513   .     S
C7     C520    1.190   1_554 S
C8     C263    1.190   .     S
C9     C14     1.400   .     A
C9     C20     1.396   .     A
C9     H42     1.084   .     S
C10    C21     1.396   .     A
C10    C15     1.400   .     A
C10    H43     1.084   .     S
C11    C16     1.400   .     A
C11    H44     1.084   .     S
C11    C21     1.396   .     A
C12    O58     1.293   .     A
C12    O57     1.293   .     A
C12    C19     1.470   .     S
C13    H45     1.084   .     S
C13    C17     1.400   .     A
C13    C20     1.396   .     A
C14    C18     1.414   .     A
C14    O64     1.383   .     S
C15    C19     1.414   .     A
C15    O50     1.383   .     S
C16    O51     1.383   .     S
C16    C19     1.414   .     A
C17    C18     1.414   .     A
C17    O52     1.383   .     S
C20    C85     1.462   1_455 S
C21    C84     1.462   .     S
C22    N47     1.362   .     A
C22    H31     1.082   .     S
C22    C26     1.408   .     A
C23    H39     1.082   .     S
C23    C27     1.408   .     A
C23    N48     1.362   .     A
C24    H40     1.082   .     S
C24    N47     1.362   .     A
C24    C28     1.408   .     A
C25    N48     1.362   .     A
C25    H41     1.082   .     S
C26    O53     1.382   .     S
C27    O54     1.382   .     S
C28    O55     1.382   .     S
Cu29   Cu30    2.669   .     S
Cu29   O60     1.934   .     S
Cu29   O49     1.961   .     S
Cu29   O58     1.961   .     S
Cu29   N48     2.005   .     S
Cu29   O62     1.934   .     S
Cu30   O63     1.934   .     S
Cu30   O59     1.961   .     S
Cu30   N47     2.005   .     S
Cu30   O61     1.934   .     S
Cu30   O57     1.961   .     S
H32    O50     0.992   .     S
H33    O51     0.992   .     S
H34    O52     0.992   .     S
H35    O181    0.988   .     S
H36    O182    0.988   1_545 S
H37    O183    0.988   .     S
H38    O184    0.988   1_545 S
H46    O64     0.992   .     S
O53    H163    0.988   1_545 S
O54    H164    0.988   .     S
O55    H165    0.988   1_545 S
O56    H166    0.988   .     S
C65    C82     1.470   .     S
C65    O123    1.293   .     A
C65    O113    1.293   .     A
C66    C70     1.425   .     A
C66    C89     1.408   .     A
C66    O120    1.382   .     S
C67    O127    1.285   .     A
C67    O124    1.285   .     A
C67    C71     1.408   .     S
C68    C72     1.408   .     S
C68    O126    1.285   .     A
C68    O125    1.285   .     A
C69    C92     1.425   .     A
C69    C90     1.425   .     A
C69    C198    1.513   1_545 S
C70    C91     1.425   .     A
C70    C197    1.513   .     S
C71    C584    1.190   1_554 S
C72    C327    1.190   .     S
C73    C78     1.400   .     A
C73    C84     1.396   .     A
C73    H106    1.084   .     S
C74    C85     1.396   .     A
C74    C79     1.400   .     A
C74    H107    1.084   .     S
C75    C80     1.400   .     A
C75    H108    1.084   .     S
C75    C85     1.396   .     A
C76    O122    1.293   .     A
C76    O121    1.293   .     A
C76    C83     1.470   .     S
C77    H109    1.084   .     S
C77    C81     1.400   .     A
C77    C84     1.396   .     A
C78    C82     1.414   .     A
C78    O128    1.383   .     S
C79    C83     1.414   .     A
C79    O114    1.383   .     S
C80    O115    1.383   .     S
C80    C83     1.414   .     A
C81    C82     1.414   .     A
C81    O116    1.383   .     S
C85    C20     1.462   1_655 S
C86    N111    1.362   .     A
C86    H95     1.082   .     S
C86    C90     1.408   .     A
C87    H103    1.082   .     S
C87    C91     1.408   .     A
C87    N112    1.362   .     A
C88    H104    1.082   .     S
C88    N111    1.362   .     A
C88    C92     1.408   .     A
C89    N112    1.362   .     A
C89    H105    1.082   .     S
C90    O117    1.382   .     S
C91    O118    1.382   .     S
C92    O119    1.382   .     S
Cu93   Cu94    2.669   .     S
Cu93   O124    1.934   .     S
Cu93   O113    1.961   .     S
Cu93   O122    1.961   .     S
Cu93   N112    2.005   .     S
Cu93   O126    1.934   .     S
Cu94   O127    1.934   .     S
Cu94   O123    1.961   .     S
Cu94   N111    2.005   .     S
Cu94   O125    1.934   .     S
Cu94   O121    1.961   .     S
H96    O114    0.992   .     S
H97    O115    0.992   .     S
H98    O116    0.992   .     S
H99    O245    0.988   .     S
H100   O246    0.988   1_545 S
H101   O247    0.988   .     S
H102   O248    0.988   1_545 S
H110   O128    0.992   .     S
O117   H227    0.988   1_545 S
O118   H228    0.988   .     S
O119   H229    0.988   1_545 S
O120   H230    0.988   .     S
C129   C146    1.470   .     S
C129   O187    1.293   .     A
C129   O177    1.293   .     A
C130   C134    1.425   .     A
C130   C153    1.408   .     A
C130   O184    1.382   .     S
C131   O191    1.285   .     A
C131   O188    1.285   .     A
C131   C135    1.408   .     S
C132   C136    1.408   .     S
C132   O190    1.285   .     A
C132   O189    1.285   .     A
C133   C156    1.425   .     A
C133   C154    1.425   .     A
C134   C155    1.425   .     A
C134   C5      1.513   1_565 S
C135   C648    1.190   1_554 S
C136   C391    1.190   .     S
C137   C142    1.400   .     A
C137   C148    1.396   .     A
C137   H170    1.084   .     S
C138   C149    1.396   .     A
C138   C143    1.400   .     A
C138   H171    1.084   .     S
C139   C144    1.400   .     A
C139   H172    1.084   .     S
C139   C149    1.396   .     A
C140   O186    1.293   .     A
C140   O185    1.293   .     A
C140   C147    1.470   .     S
C141   H173    1.084   .     S
C141   C145    1.400   .     A
C141   C148    1.396   .     A
C142   C146    1.414   .     A
C142   O192    1.383   .     S
C143   C147    1.414   .     A
C143   O178    1.383   .     S
C144   O179    1.383   .     S
C144   C147    1.414   .     A
C145   C146    1.414   .     A
C145   O180    1.383   .     S
C148   C213    1.462   1_455 S
C149   C212    1.462   .     S
C150   N175    1.362   .     A
C150   H159    1.082   .     S
C150   C154    1.408   .     A
C151   H167    1.082   .     S
C151   C155    1.408   .     A
C151   N176    1.362   .     A
C152   H168    1.082   .     S
C152   N175    1.362   .     A
C152   C156    1.408   .     A
C153   N176    1.362   .     A
C153   H169    1.082   .     S
C154   O181    1.382   .     S
C155   O182    1.382   .     S
C156   O183    1.382   .     S
Cu157  Cu158   2.669   .     S
Cu157  O188    1.934   .     S
Cu157  O177    1.961   .     S
Cu157  O186    1.961   .     S
Cu157  N176    2.005   .     S
Cu157  O190    1.934   .     S
Cu158  O191    1.934   .     S
Cu158  O187    1.961   .     S
Cu158  N175    2.005   .     S
Cu158  O189    1.934   .     S
Cu158  O185    1.961   .     S
H160   O178    0.992   .     S
H161   O179    0.992   .     S
H162   O180    0.992   .     S
H163   O53     0.988   1_565 S
H165   O55     0.988   1_565 S
H174   O192    0.992   .     S
O182   H36     0.988   1_565 S
O184   H38     0.988   1_565 S
C193   C210    1.470   .     S
C193   O251    1.293   .     A
C193   O241    1.293   .     A
C194   C198    1.425   .     A
C194   C217    1.408   .     A
C194   O248    1.382   .     S
C195   O255    1.285   .     A
C195   O252    1.285   .     A
C195   C199    1.408   .     S
C196   C200    1.408   .     S
C196   O254    1.285   .     A
C196   O253    1.285   .     A
C197   C220    1.425   .     A
C197   C218    1.425   .     A
C198   C219    1.425   .     A
C198   C69     1.513   1_565 S
C199   C712    1.190   1_554 S
C200   C455    1.190   .     S
C201   C206    1.400   .     A
C201   C212    1.396   .     A
C201   H234    1.084   .     S
C202   C213    1.396   .     A
C202   C207    1.400   .     A
C202   H235    1.084   .     S
C203   C208    1.400   .     A
C203   H236    1.084   .     S
C203   C213    1.396   .     A
C204   O250    1.293   .     A
C204   O249    1.293   .     A
C204   C211    1.470   .     S
C205   H237    1.084   .     S
C205   C209    1.400   .     A
C205   C212    1.396   .     A
C206   C210    1.414   .     A
C206   O256    1.383   .     S
C207   C211    1.414   .     A
C207   O242    1.383   .     S
C208   O243    1.383   .     S
C208   C211    1.414   .     A
C209   C210    1.414   .     A
C209   O244    1.383   .     S
C213   C148    1.462   1_655 S
C214   N239    1.362   .     A
C214   H223    1.082   .     S
C214   C218    1.408   .     A
C215   H231    1.082   .     S
C215   C219    1.408   .     A
C215   N240    1.362   .     A
C216   H232    1.082   .     S
C216   N239    1.362   .     A
C216   C220    1.408   .     A
C217   N240    1.362   .     A
C217   H233    1.082   .     S
C218   O245    1.382   .     S
C219   O246    1.382   .     S
C220   O247    1.382   .     S
Cu221  Cu222   2.669   .     S
Cu221  O252    1.934   .     S
Cu221  O241    1.961   .     S
Cu221  O250    1.961   .     S
Cu221  N240    2.005   .     S
Cu221  O254    1.934   .     S
Cu222  O255    1.934   .     S
Cu222  O251    1.961   .     S
Cu222  N239    2.005   .     S
Cu222  O253    1.934   .     S
Cu222  O249    1.961   .     S
H224   O242    0.992   .     S
H225   O243    0.992   .     S
H226   O244    0.992   .     S
H227   O117    0.988   1_565 S
H229   O119    0.988   1_565 S
H238   O256    0.992   .     S
O246   H100    0.988   1_565 S
O248   H102    0.988   1_565 S
C257   C274    1.470   .     S
C257   O315    1.293   .     A
C257   O305    1.293   .     A
C258   C262    1.425   .     A
C258   C281    1.408   .     A
C258   O312    1.382   .     S
C259   O319    1.285   .     A
C259   O316    1.285   .     A
C259   C263    1.408   .     S
C260   C264    1.408   .     S
C260   O318    1.285   .     A
C260   O317    1.285   .     A
C261   C284    1.425   .     A
C261   C282    1.425   .     A
C261   C390    1.513   1_545 S
C262   C283    1.425   .     A
C262   C389    1.513   .     S
C264   C519    1.190   .     S
C265   C270    1.400   .     A
C265   C276    1.396   .     A
C265   H298    1.084   .     S
C266   C277    1.396   .     A
C266   C271    1.400   .     A
C266   H299    1.084   .     S
C267   C272    1.400   .     A
C267   H300    1.084   .     S
C267   C277    1.396   .     A
C268   O314    1.293   .     A
C268   O313    1.293   .     A
C268   C275    1.470   .     S
C269   H301    1.084   .     S
C269   C273    1.400   .     A
C269   C276    1.396   .     A
C270   C274    1.414   .     A
C270   O320    1.383   .     S
C271   C275    1.414   .     A
C271   O306    1.383   .     S
C272   O307    1.383   .     S
C272   C275    1.414   .     A
C273   C274    1.414   .     A
C273   O308    1.383   .     S
C276   C341    1.462   1_455 S
C277   C340    1.462   .     S
C278   N303    1.362   .     A
C278   H287    1.082   .     S
C278   C282    1.408   .     A
C279   H295    1.082   .     S
C279   C283    1.408   .     A
C279   N304    1.362   .     A
C280   H296    1.082   .     S
C280   N303    1.362   .     A
C280   C284    1.408   .     A
C281   N304    1.362   .     A
C281   H297    1.082   .     S
C282   O309    1.382   .     S
C283   O310    1.382   .     S
C284   O311    1.382   .     S
Cu285  Cu286   2.669   .     S
Cu285  O316    1.934   .     S
Cu285  O305    1.961   .     S
Cu285  O314    1.961   .     S
Cu285  N304    2.005   .     S
Cu285  O318    1.934   .     S
Cu286  O319    1.934   .     S
Cu286  O315    1.961   .     S
Cu286  N303    2.005   .     S
Cu286  O317    1.934   .     S
Cu286  O313    1.961   .     S
H288   O306    0.992   .     S
H289   O307    0.992   .     S
H290   O308    0.992   .     S
H291   O437    0.988   .     S
H292   O438    0.988   1_545 S
H293   O439    0.988   .     S
H294   O440    0.988   1_545 S
H302   O320    0.992   .     S
O309   H419    0.988   1_545 S
O310   H420    0.988   .     S
O311   H421    0.988   1_545 S
O312   H422    0.988   .     S
C321   C338    1.470   .     S
C321   O379    1.293   .     A
C321   O369    1.293   .     A
C322   C326    1.425   .     A
C322   C345    1.408   .     A
C322   O376    1.382   .     S
C323   O383    1.285   .     A
C323   O380    1.285   .     A
C323   C327    1.408   .     S
C324   C328    1.408   .     S
C324   O382    1.285   .     A
C324   O381    1.285   .     A
C325   C348    1.425   .     A
C325   C346    1.425   .     A
C325   C454    1.513   1_545 S
C326   C347    1.425   .     A
C326   C453    1.513   .     S
C328   C583    1.190   .     S
C329   C334    1.400   .     A
C329   C340    1.396   .     A
C329   H362    1.084   .     S
C330   C341    1.396   .     A
C330   C335    1.400   .     A
C330   H363    1.084   .     S
C331   C336    1.400   .     A
C331   H364    1.084   .     S
C331   C341    1.396   .     A
C332   O378    1.293   .     A
C332   O377    1.293   .     A
C332   C339    1.470   .     S
C333   H365    1.084   .     S
C333   C337    1.400   .     A
C333   C340    1.396   .     A
C334   C338    1.414   .     A
C334   O384    1.383   .     S
C335   C339    1.414   .     A
C335   O370    1.383   .     S
C336   O371    1.383   .     S
C336   C339    1.414   .     A
C337   C338    1.414   .     A
C337   O372    1.383   .     S
C341   C276    1.462   1_655 S
C342   N367    1.362   .     A
C342   H351    1.082   .     S
C342   C346    1.408   .     A
C343   H359    1.082   .     S
C343   C347    1.408   .     A
C343   N368    1.362   .     A
C344   H360    1.082   .     S
C344   N367    1.362   .     A
C344   C348    1.408   .     A
C345   N368    1.362   .     A
C345   H361    1.082   .     S
C346   O373    1.382   .     S
C347   O374    1.382   .     S
C348   O375    1.382   .     S
Cu349  Cu350   2.669   .     S
Cu349  O380    1.934   .     S
Cu349  O369    1.961   .     S
Cu349  O378    1.961   .     S
Cu349  N368    2.005   .     S
Cu349  O382    1.934   .     S
Cu350  O383    1.934   .     S
Cu350  O379    1.961   .     S
Cu350  N367    2.005   .     S
Cu350  O381    1.934   .     S
Cu350  O377    1.961   .     S
H352   O370    0.992   .     S
H353   O371    0.992   .     S
H354   O372    0.992   .     S
H355   O501    0.988   .     S
H356   O502    0.988   1_545 S
H357   O503    0.988   .     S
H358   O504    0.988   1_545 S
H366   O384    0.992   .     S
O373   H483    0.988   1_545 S
O374   H484    0.988   .     S
O375   H485    0.988   1_545 S
O376   H486    0.988   .     S
C385   C402    1.470   .     S
C385   O443    1.293   .     A
C385   O433    1.293   .     A
C386   C390    1.425   .     A
C386   C409    1.408   .     A
C386   O440    1.382   .     S
C387   O447    1.285   .     A
C387   O444    1.285   .     A
C387   C391    1.408   .     S
C388   C392    1.408   .     S
C388   O446    1.285   .     A
C388   O445    1.285   .     A
C389   C412    1.425   .     A
C389   C410    1.425   .     A
C390   C411    1.425   .     A
C390   C261    1.513   1_565 S
C392   C647    1.190   .     S
C393   C398    1.400   .     A
C393   C404    1.396   .     A
C393   H426    1.084   .     S
C394   C405    1.396   .     A
C394   C399    1.400   .     A
C394   H427    1.084   .     S
C395   C400    1.400   .     A
C395   H428    1.084   .     S
C395   C405    1.396   .     A
C396   O442    1.293   .     A
C396   O441    1.293   .     A
C396   C403    1.470   .     S
C397   H429    1.084   .     S
C397   C401    1.400   .     A
C397   C404    1.396   .     A
C398   C402    1.414   .     A
C398   O448    1.383   .     S
C399   C403    1.414   .     A
C399   O434    1.383   .     S
C400   O435    1.383   .     S
C400   C403    1.414   .     A
C401   C402    1.414   .     A
C401   O436    1.383   .     S
C404   C469    1.462   1_455 S
C405   C468    1.462   .     S
C406   N431    1.362   .     A
C406   H415    1.082   .     S
C406   C410    1.408   .     A
C407   H423    1.082   .     S
C407   C411    1.408   .     A
C407   N432    1.362   .     A
C408   H424    1.082   .     S
C408   N431    1.362   .     A
C408   C412    1.408   .     A
C409   N432    1.362   .     A
C409   H425    1.082   .     S
C410   O437    1.382   .     S
C411   O438    1.382   .     S
C412   O439    1.382   .     S
Cu413  Cu414   2.669   .     S
Cu413  O444    1.934   .     S
Cu413  O433    1.961   .     S
Cu413  O442    1.961   .     S
Cu413  N432    2.005   .     S
Cu413  O446    1.934   .     S
Cu414  O447    1.934   .     S
Cu414  O443    1.961   .     S
Cu414  N431    2.005   .     S
Cu414  O445    1.934   .     S
Cu414  O441    1.961   .     S
H416   O434    0.992   .     S
H417   O435    0.992   .     S
H418   O436    0.992   .     S
H419   O309    0.988   1_565 S
H421   O311    0.988   1_565 S
H430   O448    0.992   .     S
O438   H292    0.988   1_565 S
O440   H294    0.988   1_565 S
C449   C466    1.470   .     S
C449   O507    1.293   .     A
C449   O497    1.293   .     A
C450   C454    1.425   .     A
C450   C473    1.408   .     A
C450   O504    1.382   .     S
C451   O511    1.285   .     A
C451   O508    1.285   .     A
C451   C455    1.408   .     S
C452   C456    1.408   .     S
C452   O510    1.285   .     A
C452   O509    1.285   .     A
C453   C476    1.425   .     A
C453   C474    1.425   .     A
C454   C475    1.425   .     A
C454   C325    1.513   1_565 S
C456   C711    1.190   .     S
C457   C462    1.400   .     A
C457   C468    1.396   .     A
C457   H490    1.084   .     S
C458   C469    1.396   .     A
C458   C463    1.400   .     A
C458   H491    1.084   .     S
C459   C464    1.400   .     A
C459   H492    1.084   .     S
C459   C469    1.396   .     A
C460   O506    1.293   .     A
C460   O505    1.293   .     A
C460   C467    1.470   .     S
C461   H493    1.084   .     S
C461   C465    1.400   .     A
C461   C468    1.396   .     A
C462   C466    1.414   .     A
C462   O512    1.383   .     S
C463   C467    1.414   .     A
C463   O498    1.383   .     S
C464   O499    1.383   .     S
C464   C467    1.414   .     A
C465   C466    1.414   .     A
C465   O500    1.383   .     S
C469   C404    1.462   1_655 S
C470   N495    1.362   .     A
C470   H479    1.082   .     S
C470   C474    1.408   .     A
C471   H487    1.082   .     S
C471   C475    1.408   .     A
C471   N496    1.362   .     A
C472   H488    1.082   .     S
C472   N495    1.362   .     A
C472   C476    1.408   .     A
C473   N496    1.362   .     A
C473   H489    1.082   .     S
C474   O501    1.382   .     S
C475   O502    1.382   .     S
C476   O503    1.382   .     S
Cu477  Cu478   2.669   .     S
Cu477  O508    1.934   .     S
Cu477  O497    1.961   .     S
Cu477  O506    1.961   .     S
Cu477  N496    2.005   .     S
Cu477  O510    1.934   .     S
Cu478  O511    1.934   .     S
Cu478  O507    1.961   .     S
Cu478  N495    2.005   .     S
Cu478  O509    1.934   .     S
Cu478  O505    1.961   .     S
H480   O498    0.992   .     S
H481   O499    0.992   .     S
H482   O500    0.992   .     S
H483   O373    0.988   1_565 S
H485   O375    0.988   1_565 S
H494   O512    0.992   .     S
O502   H356    0.988   1_565 S
O504   H358    0.988   1_565 S
C513   C530    1.470   .     S
C513   O571    1.293   .     A
C513   O561    1.293   .     A
C514   C518    1.425   .     A
C514   C537    1.408   .     A
C514   O568    1.382   .     S
C515   O575    1.285   .     A
C515   O572    1.285   .     A
C515   C519    1.408   .     S
C516   C520    1.408   .     S
C516   O574    1.285   .     A
C516   O573    1.285   .     A
C517   C540    1.425   .     A
C517   C538    1.425   .     A
C517   C646    1.513   1_545 S
C518   C539    1.425   .     A
C518   C645    1.513   .     S
C520   C7      1.190   1_556 S
C521   C526    1.400   .     A
C521   C532    1.396   .     A
C521   H554    1.084   .     S
C522   C533    1.396   .     A
C522   C527    1.400   .     A
C522   H555    1.084   .     S
C523   C528    1.400   .     A
C523   H556    1.084   .     S
C523   C533    1.396   .     A
C524   O570    1.293   .     A
C524   O569    1.293   .     A
C524   C531    1.470   .     S
C525   H557    1.084   .     S
C525   C529    1.400   .     A
C525   C532    1.396   .     A
C526   C530    1.414   .     A
C526   O576    1.383   .     S
C527   C531    1.414   .     A
C527   O562    1.383   .     S
C528   O563    1.383   .     S
C528   C531    1.414   .     A
C529   C530    1.414   .     A
C529   O564    1.383   .     S
C532   C597    1.462   1_455 S
C533   C596    1.462   .     S
C534   N559    1.362   .     A
C534   H543    1.082   .     S
C534   C538    1.408   .     A
C535   H551    1.082   .     S
C535   C539    1.408   .     A
C535   N560    1.362   .     A
C536   H552    1.082   .     S
C536   N559    1.362   .     A
C536   C540    1.408   .     A
C537   N560    1.362   .     A
C537   H553    1.082   .     S
C538   O565    1.382   .     S
C539   O566    1.382   .     S
C540   O567    1.382   .     S
Cu541  Cu542   2.669   .     S
Cu541  O572    1.934   .     S
Cu541  O561    1.961   .     S
Cu541  O570    1.961   .     S
Cu541  N560    2.005   .     S
Cu541  O574    1.934   .     S
Cu542  O575    1.934   .     S
Cu542  O571    1.961   .     S
Cu542  N559    2.005   .     S
Cu542  O573    1.934   .     S
Cu542  O569    1.961   .     S
H544   O562    0.992   .     S
H545   O563    0.992   .     S
H546   O564    0.992   .     S
H547   O693    0.988   .     S
H548   O694    0.988   1_545 S
H549   O695    0.988   .     S
H550   O696    0.988   1_545 S
H558   O576    0.992   .     S
O565   H675    0.988   1_545 S
O566   H676    0.988   .     S
O567   H677    0.988   1_545 S
O568   H678    0.988   .     S
C577   C594    1.470   .     S
C577   O635    1.293   .     A
C577   O625    1.293   .     A
C578   C582    1.425   .     A
C578   C601    1.408   .     A
C578   O632    1.382   .     S
C579   O639    1.285   .     A
C579   O636    1.285   .     A
C579   C583    1.408   .     S
C580   C584    1.408   .     S
C580   O638    1.285   .     A
C580   O637    1.285   .     A
C581   C604    1.425   .     A
C581   C602    1.425   .     A
C581   C710    1.513   1_545 S
C582   C603    1.425   .     A
C582   C709    1.513   .     S
C584   C71     1.190   1_556 S
C585   C590    1.400   .     A
C585   C596    1.396   .     A
C585   H618    1.084   .     S
C586   C597    1.396   .     A
C586   C591    1.400   .     A
C586   H619    1.084   .     S
C587   C592    1.400   .     A
C587   H620    1.084   .     S
C587   C597    1.396   .     A
C588   O634    1.293   .     A
C588   O633    1.293   .     A
C588   C595    1.470   .     S
C589   H621    1.084   .     S
C589   C593    1.400   .     A
C589   C596    1.396   .     A
C590   C594    1.414   .     A
C590   O640    1.383   .     S
C591   C595    1.414   .     A
C591   O626    1.383   .     S
C592   O627    1.383   .     S
C592   C595    1.414   .     A
C593   C594    1.414   .     A
C593   O628    1.383   .     S
C597   C532    1.462   1_655 S
C598   N623    1.362   .     A
C598   H607    1.082   .     S
C598   C602    1.408   .     A
C599   H615    1.082   .     S
C599   C603    1.408   .     A
C599   N624    1.362   .     A
C600   H616    1.082   .     S
C600   N623    1.362   .     A
C600   C604    1.408   .     A
C601   N624    1.362   .     A
C601   H617    1.082   .     S
C602   O629    1.382   .     S
C603   O630    1.382   .     S
C604   O631    1.382   .     S
Cu605  Cu606   2.669   .     S
Cu605  O636    1.934   .     S
Cu605  O625    1.961   .     S
Cu605  O634    1.961   .     S
Cu605  N624    2.005   .     S
Cu605  O638    1.934   .     S
Cu606  O639    1.934   .     S
Cu606  O635    1.961   .     S
Cu606  N623    2.005   .     S
Cu606  O637    1.934   .     S
Cu606  O633    1.961   .     S
H608   O626    0.992   .     S
H609   O627    0.992   .     S
H610   O628    0.992   .     S
H611   O757    0.988   .     S
H612   O758    0.988   1_545 S
H613   O759    0.988   .     S
H614   O760    0.988   1_545 S
H622   O640    0.992   .     S
O629   H739    0.988   1_545 S
O630   H740    0.988   .     S
O631   H741    0.988   1_545 S
O632   H742    0.988   .     S
C641   C658    1.470   .     S
C641   O699    1.293   .     A
C641   O689    1.293   .     A
C642   C646    1.425   .     A
C642   C665    1.408   .     A
C642   O696    1.382   .     S
C643   O703    1.285   .     A
C643   O700    1.285   .     A
C643   C647    1.408   .     S
C644   C648    1.408   .     S
C644   O702    1.285   .     A
C644   O701    1.285   .     A
C645   C668    1.425   .     A
C645   C666    1.425   .     A
C646   C667    1.425   .     A
C646   C517    1.513   1_565 S
C648   C135    1.190   1_556 S
C649   C654    1.400   .     A
C649   C660    1.396   .     A
C649   H682    1.084   .     S
C650   C661    1.396   .     A
C650   C655    1.400   .     A
C650   H683    1.084   .     S
C651   C656    1.400   .     A
C651   H684    1.084   .     S
C651   C661    1.396   .     A
C652   O698    1.293   .     A
C652   O697    1.293   .     A
C652   C659    1.470   .     S
C653   H685    1.084   .     S
C653   C657    1.400   .     A
C653   C660    1.396   .     A
C654   C658    1.414   .     A
C654   O704    1.383   .     S
C655   C659    1.414   .     A
C655   O690    1.383   .     S
C656   O691    1.383   .     S
C656   C659    1.414   .     A
C657   C658    1.414   .     A
C657   O692    1.383   .     S
C660   C725    1.462   1_455 S
C661   C724    1.462   .     S
C662   N687    1.362   .     A
C662   H671    1.082   .     S
C662   C666    1.408   .     A
C663   H679    1.082   .     S
C663   C667    1.408   .     A
C663   N688    1.362   .     A
C664   H680    1.082   .     S
C664   N687    1.362   .     A
C664   C668    1.408   .     A
C665   N688    1.362   .     A
C665   H681    1.082   .     S
C666   O693    1.382   .     S
C667   O694    1.382   .     S
C668   O695    1.382   .     S
Cu669  Cu670   2.669   .     S
Cu669  O700    1.934   .     S
Cu669  O689    1.961   .     S
Cu669  O698    1.961   .     S
Cu669  N688    2.005   .     S
Cu669  O702    1.934   .     S
Cu670  O703    1.934   .     S
Cu670  O699    1.961   .     S
Cu670  N687    2.005   .     S
Cu670  O701    1.934   .     S
Cu670  O697    1.961   .     S
H672   O690    0.992   .     S
H673   O691    0.992   .     S
H674   O692    0.992   .     S
H675   O565    0.988   1_565 S
H677   O567    0.988   1_565 S
H686   O704    0.992   .     S
O694   H548    0.988   1_565 S
O696   H550    0.988   1_565 S
C705   C722    1.470   .     S
C705   O763    1.293   .     A
C705   O753    1.293   .     A
C706   C710    1.425   .     A
C706   C729    1.408   .     A
C706   O760    1.382   .     S
C707   O767    1.285   .     A
C707   O764    1.285   .     A
C707   C711    1.408   .     S
C708   C712    1.408   .     S
C708   O766    1.285   .     A
C708   O765    1.285   .     A
C709   C732    1.425   .     A
C709   C730    1.425   .     A
C710   C731    1.425   .     A
C710   C581    1.513   1_565 S
C712   C199    1.190   1_556 S
C713   C718    1.400   .     A
C713   C724    1.396   .     A
C713   H746    1.084   .     S
C714   C725    1.396   .     A
C714   C719    1.400   .     A
C714   H747    1.084   .     S
C715   C720    1.400   .     A
C715   H748    1.084   .     S
C715   C725    1.396   .     A
C716   O762    1.293   .     A
C716   O761    1.293   .     A
C716   C723    1.470   .     S
C717   H749    1.084   .     S
C717   C721    1.400   .     A
C717   C724    1.396   .     A
C718   C722    1.414   .     A
C718   O768    1.383   .     S
C719   C723    1.414   .     A
C719   O754    1.383   .     S
C720   O755    1.383   .     S
C720   C723    1.414   .     A
C721   C722    1.414   .     A
C721   O756    1.383   .     S
C725   C660    1.462   1_655 S
C726   N751    1.362   .     A
C726   H735    1.082   .     S
C726   C730    1.408   .     A
C727   H743    1.082   .     S
C727   C731    1.408   .     A
C727   N752    1.362   .     A
C728   H744    1.082   .     S
C728   N751    1.362   .     A
C728   C732    1.408   .     A
C729   N752    1.362   .     A
C729   H745    1.082   .     S
C730   O757    1.382   .     S
C731   O758    1.382   .     S
C732   O759    1.382   .     S
Cu733  Cu734   2.669   .     S
Cu733  O764    1.934   .     S
Cu733  O753    1.961   .     S
Cu733  O762    1.961   .     S
Cu733  N752    2.005   .     S
Cu733  O766    1.934   .     S
Cu734  O767    1.934   .     S
Cu734  O763    1.961   .     S
Cu734  N751    2.005   .     S
Cu734  O765    1.934   .     S
Cu734  O761    1.961   .     S
H736   O754    0.992   .     S
H737   O755    0.992   .     S
H738   O756    0.992   .     S
H739   O629    0.988   1_565 S
H741   O631    0.988   1_565 S
H750   O768    0.992   .     S
O758   H612    0.988   1_565 S
O760   H614    0.988   1_565 S
