data_str_m2_o1_o16_pcu_sym.125
_audit_creation_date              2020-01-03
_audit_creation_method            'Materials Studio'
_symmetry_space_group_name_H-M    'P1'
_symmetry_Int_Tables_number       1
_symmetry_cell_setting            triclinic
loop_
_symmetry_equiv_pos_as_xyz
  x,y,z
_cell_length_a                    28.5166
_cell_length_b                    32.4934
_cell_length_c                    26.7937
_cell_angle_alpha                 90.2942
_cell_angle_beta                  72.8049
_cell_angle_gamma                 89.9757
loop_
_atom_site_label
_atom_site_type_symbol
_atom_site_fract_x
_atom_site_fract_y
_atom_site_fract_z
_atom_site_U_iso_or_equiv
_atom_site_adp_type
_atom_site_occupancy
C1     C     0.16661   0.24599   0.25020   0.00000  Uiso   1.00
C2     C     0.14383   0.14983   0.49010   0.00000  Uiso   1.00
C3     C     0.15809   0.14563   0.43504   0.00000  Uiso   1.00
C4     C     0.18072   0.14759   0.01592   0.00000  Uiso   1.00
C5     C     0.22830   0.13262   0.48886   0.00000  Uiso   1.00
C6     C     0.23915   0.12106   0.43622   0.00000  Uiso   1.00
C7     C     0.20441   0.12794   0.40979   0.00000  Uiso   1.00
C8     C     0.17250   0.16251   0.06696   0.00000  Uiso   1.00
C9     C     0.25367   0.14139   0.06723   0.00000  Uiso   1.00
C10    C     0.12516   0.15874   0.40731   0.00000  Uiso   1.00
C11    C     0.20889   0.31206   0.25135   0.00000  Uiso   1.00
C12    C     0.14067   0.16379   0.35004   0.00000  Uiso   1.00
C13    C     0.20890   0.02130   0.25133   0.00000  Uiso   1.00
C14    C     0.16653   0.04275   0.25043   0.00000  Uiso   1.00
C15    C     0.12407   0.02132   0.24984   0.00000  Uiso   1.00
C16    C     0.12405   0.31208   0.24991   0.00000  Uiso   1.00
C17    C     0.16651   0.29062   0.25050   0.00000  Uiso   1.00
C18    C     0.30034   0.19452   0.27946   0.00000  Uiso   1.00
C19    C     0.01663   0.19447   0.27952   0.00000  Uiso   1.00
C20    C     0.03287   0.13859   0.22090   0.00000  Uiso   1.00
C21    C     0.31653   0.13854   0.22103   0.00000  Uiso   1.00
C22    C     0.16663   0.08735   0.25011   0.00000  Uiso   1.00
C23    C     0.19282   0.16543   0.14988   0.00000  Uiso   1.00
C24    C     0.26422   0.12939   0.01507   0.00000  Uiso   1.00
C25    C     0.20757   0.15785   0.09341   0.00000  Uiso   1.00
C26    C     0.07679   0.16937   0.43517   0.00000  Uiso   1.00
C27    C     0.06068   0.16651   0.48914   0.00000  Uiso   1.00
C28    C     0.09305   0.15521   0.01689   0.00000  Uiso   1.00
Cu29   Cu    0.11978   0.16666   0.25000   0.00000  Uiso   1.00
Cu30   Cu    0.21355   0.16667   0.25000   0.00000  Uiso   1.00
H31    H     0.24204   0.03731   0.25195   0.00000  Uiso   1.00
H32    H     0.09089   0.29608   0.24937   0.00000  Uiso   1.00
H33    H     0.27505   0.21681   0.30310   0.00000  Uiso   1.00
H34    H     0.02879   0.21670   0.30320   0.00000  Uiso   1.00
H35    H     0.13915   0.17880   0.08669   0.00000  Uiso   1.00
H36    H     0.05088   0.17927   0.41513   0.00000  Uiso   1.00
H37    H     0.02260   0.17275   0.00980   0.00000  Uiso   1.00
H38    H     0.21444   0.11817   0.36954   0.00000  Uiso   1.00
H39    H     0.24203   0.29604   0.25198   0.00000  Uiso   1.00
N40    N     0.04931   0.16666   0.24998   0.00000  Uiso   1.00
N41    N     0.28402   0.16669   0.24999   0.00000  Uiso   1.00
O42    O     0.12708   0.22678   0.25000   0.00000  Uiso   1.00
O43    O     0.20627   0.22679   0.25000   0.00000  Uiso   1.00
O44    O     0.10775   0.16665   0.32549   0.00000  Uiso   1.00
O45    O     0.18694   0.16666   0.32549   0.00000  Uiso   1.00
O46    O     0.12706   0.10654   0.24999   0.00000  Uiso   1.00
O47    O     0.20625   0.10655   0.24999   0.00000  Uiso   1.00
O48    O     0.14640   0.16667   0.17451   0.00000  Uiso   1.00
O49    O     0.22559   0.16668   0.17451   0.00000  Uiso   1.00
H50    H     0.28119   0.13711   0.08726   0.00000  Uiso   1.00
H51    H     0.09094   0.03734   0.24920   0.00000  Uiso   1.00
H52    H     0.05802   0.11606   0.19770   0.00000  Uiso   1.00
H53    H     0.30404   0.11591   0.19816   0.00000  Uiso   1.00
O54    O     0.28627   0.10904   0.40844   0.00000  Uiso   1.00
C55    C     0.28662   0.06652   0.39747   0.00000  Uiso   1.00
H56    H     0.26213   0.05907   0.37310   0.00000  Uiso   1.00
H57    H     0.27500   0.04849   0.43435   0.00000  Uiso   1.00
C58    C     0.00525   0.05364   0.36711   0.00000  Uiso   1.00
H59    H     0.03069   0.06009   0.39058   0.00000  Uiso   1.00
H60    H     0.00626   0.02019   0.35813   0.00000  Uiso   1.00
H61    H     0.01763   0.07096   0.32986   0.00000  Uiso   1.00
H62    H     0.30026   0.11691   0.49563   0.00000  Uiso   1.00
O63    O     0.07383   0.14705   0.06963   0.00000  Uiso   1.00
C64    C     0.05536   0.10632   0.07641   0.00000  Uiso   1.00
H65    H     0.04028   0.09548   0.04465   0.00000  Uiso   1.00
H66    H     0.02424   0.10565   0.11277   0.00000  Uiso   1.00
C67    C     0.09437   0.07627   0.08261   0.00000  Uiso   1.00
H68    H     0.11068   0.08757   0.11296   0.00000  Uiso   1.00
H69    H     0.07747   0.04571   0.09450   0.00000  Uiso   1.00
H70    H     0.12381   0.07262   0.04504   0.00000  Uiso   1.00
C71    C     0.49995   0.24599   0.25020   0.00000  Uiso   1.00
C72    C     0.47716   0.14983   0.49010   0.00000  Uiso   1.00
C73    C     0.49142   0.14563   0.43504   0.00000  Uiso   1.00
C74    C     0.51406   0.14759   0.01592   0.00000  Uiso   1.00
C75    C     0.56163   0.13262   0.48886   0.00000  Uiso   1.00
C76    C     0.57248   0.12106   0.43622   0.00000  Uiso   1.00
C77    C     0.53774   0.12794   0.40979   0.00000  Uiso   1.00
C78    C     0.50583   0.16251   0.06696   0.00000  Uiso   1.00
C79    C     0.58701   0.14139   0.06723   0.00000  Uiso   1.00
C80    C     0.45850   0.15874   0.40731   0.00000  Uiso   1.00
C81    C     0.54222   0.31206   0.25135   0.00000  Uiso   1.00
C82    C     0.47401   0.16379   0.35004   0.00000  Uiso   1.00
C83    C     0.54223   0.02130   0.25133   0.00000  Uiso   1.00
C84    C     0.49987   0.04275   0.25043   0.00000  Uiso   1.00
C85    C     0.45741   0.02132   0.24984   0.00000  Uiso   1.00
C86    C     0.45739   0.31208   0.24991   0.00000  Uiso   1.00
C87    C     0.49984   0.29062   0.25050   0.00000  Uiso   1.00
C88    C     0.63367   0.19452   0.27946   0.00000  Uiso   1.00
C89    C     0.34996   0.19447   0.27952   0.00000  Uiso   1.00
C90    C     0.36620   0.13859   0.22090   0.00000  Uiso   1.00
C91    C     0.64986   0.13854   0.22103   0.00000  Uiso   1.00
C92    C     0.49996   0.08735   0.25011   0.00000  Uiso   1.00
C93    C     0.52615   0.16543   0.14988   0.00000  Uiso   1.00
C94    C     0.59755   0.12939   0.01507   0.00000  Uiso   1.00
C95    C     0.54090   0.15785   0.09341   0.00000  Uiso   1.00
C96    C     0.41012   0.16937   0.43517   0.00000  Uiso   1.00
C97    C     0.39401   0.16651   0.48914   0.00000  Uiso   1.00
C98    C     0.42638   0.15521   0.01689   0.00000  Uiso   1.00
Cu99   Cu    0.45311   0.16666   0.25000   0.00000  Uiso   1.00
Cu100  Cu    0.54689   0.16667   0.25000   0.00000  Uiso   1.00
H101   H     0.57537   0.03731   0.25195   0.00000  Uiso   1.00
H102   H     0.42422   0.29608   0.24937   0.00000  Uiso   1.00
H103   H     0.60839   0.21681   0.30310   0.00000  Uiso   1.00
H104   H     0.36212   0.21670   0.30320   0.00000  Uiso   1.00
H105   H     0.47248   0.17880   0.08669   0.00000  Uiso   1.00
H106   H     0.38421   0.17927   0.41513   0.00000  Uiso   1.00
H107   H     0.35593   0.17275   0.00980   0.00000  Uiso   1.00
H108   H     0.54778   0.11817   0.36954   0.00000  Uiso   1.00
H109   H     0.57536   0.29604   0.25198   0.00000  Uiso   1.00
N110   N     0.38265   0.16666   0.24998   0.00000  Uiso   1.00
N111   N     0.61735   0.16669   0.24999   0.00000  Uiso   1.00
O112   O     0.46042   0.22678   0.25000   0.00000  Uiso   1.00
O113   O     0.53961   0.22679   0.25000   0.00000  Uiso   1.00
O114   O     0.44108   0.16665   0.32549   0.00000  Uiso   1.00
O115   O     0.52027   0.16666   0.32549   0.00000  Uiso   1.00
O116   O     0.46039   0.10654   0.24999   0.00000  Uiso   1.00
O117   O     0.53958   0.10655   0.24999   0.00000  Uiso   1.00
O118   O     0.47973   0.16667   0.17451   0.00000  Uiso   1.00
O119   O     0.55892   0.16668   0.17451   0.00000  Uiso   1.00
H120   H     0.61452   0.13711   0.08726   0.00000  Uiso   1.00
H121   H     0.42427   0.03734   0.24920   0.00000  Uiso   1.00
H122   H     0.39135   0.11606   0.19770   0.00000  Uiso   1.00
H123   H     0.63737   0.11591   0.19816   0.00000  Uiso   1.00
O124   O     0.61960   0.10904   0.40844   0.00000  Uiso   1.00
C125   C     0.61995   0.06652   0.39747   0.00000  Uiso   1.00
H126   H     0.59547   0.05907   0.37310   0.00000  Uiso   1.00
H127   H     0.60834   0.04849   0.43435   0.00000  Uiso   1.00
C128   C     0.33859   0.05364   0.36711   0.00000  Uiso   1.00
H129   H     0.36403   0.06009   0.39058   0.00000  Uiso   1.00
H130   H     0.33959   0.02019   0.35813   0.00000  Uiso   1.00
H131   H     0.35096   0.07096   0.32986   0.00000  Uiso   1.00
H132   H     0.63359   0.11691   0.49563   0.00000  Uiso   1.00
O133   O     0.40717   0.14705   0.06963   0.00000  Uiso   1.00
C134   C     0.38869   0.10632   0.07641   0.00000  Uiso   1.00
H135   H     0.37361   0.09548   0.04465   0.00000  Uiso   1.00
H136   H     0.35757   0.10565   0.11277   0.00000  Uiso   1.00
C137   C     0.42770   0.07627   0.08261   0.00000  Uiso   1.00
H138   H     0.44401   0.08757   0.11296   0.00000  Uiso   1.00
H139   H     0.41081   0.04571   0.09450   0.00000  Uiso   1.00
H140   H     0.45714   0.07262   0.04504   0.00000  Uiso   1.00
C141   C     0.83328   0.24599   0.25020   0.00000  Uiso   1.00
C142   C     0.81050   0.14983   0.49010   0.00000  Uiso   1.00
C143   C     0.82476   0.14563   0.43504   0.00000  Uiso   1.00
C144   C     0.84739   0.14759   0.01592   0.00000  Uiso   1.00
C145   C     0.89496   0.13262   0.48886   0.00000  Uiso   1.00
C146   C     0.90582   0.12106   0.43622   0.00000  Uiso   1.00
C147   C     0.87108   0.12794   0.40979   0.00000  Uiso   1.00
C148   C     0.83916   0.16251   0.06696   0.00000  Uiso   1.00
C149   C     0.92034   0.14139   0.06723   0.00000  Uiso   1.00
C150   C     0.79183   0.15874   0.40731   0.00000  Uiso   1.00
C151   C     0.87556   0.31206   0.25135   0.00000  Uiso   1.00
C152   C     0.80734   0.16379   0.35004   0.00000  Uiso   1.00
C153   C     0.87556   0.02130   0.25133   0.00000  Uiso   1.00
C154   C     0.83320   0.04275   0.25043   0.00000  Uiso   1.00
C155   C     0.79074   0.02132   0.24984   0.00000  Uiso   1.00
C156   C     0.79072   0.31208   0.24991   0.00000  Uiso   1.00
C157   C     0.83318   0.29062   0.25050   0.00000  Uiso   1.00
C158   C     0.96700   0.19452   0.27946   0.00000  Uiso   1.00
C159   C     0.68329   0.19447   0.27952   0.00000  Uiso   1.00
C160   C     0.69954   0.13859   0.22090   0.00000  Uiso   1.00
C161   C     0.98319   0.13854   0.22103   0.00000  Uiso   1.00
C162   C     0.83329   0.08735   0.25011   0.00000  Uiso   1.00
C163   C     0.85948   0.16543   0.14988   0.00000  Uiso   1.00
C164   C     0.93089   0.12939   0.01507   0.00000  Uiso   1.00
C165   C     0.87424   0.15785   0.09341   0.00000  Uiso   1.00
C166   C     0.74345   0.16937   0.43517   0.00000  Uiso   1.00
C167   C     0.72735   0.16651   0.48914   0.00000  Uiso   1.00
C168   C     0.75971   0.15521   0.01689   0.00000  Uiso   1.00
Cu169  Cu    0.78645   0.16666   0.25000   0.00000  Uiso   1.00
Cu170  Cu    0.88022   0.16667   0.25000   0.00000  Uiso   1.00
H171   H     0.90871   0.03731   0.25195   0.00000  Uiso   1.00
H172   H     0.75755   0.29608   0.24937   0.00000  Uiso   1.00
H173   H     0.94172   0.21681   0.30310   0.00000  Uiso   1.00
H174   H     0.69545   0.21670   0.30320   0.00000  Uiso   1.00
H175   H     0.80582   0.17880   0.08669   0.00000  Uiso   1.00
H176   H     0.71755   0.17927   0.41513   0.00000  Uiso   1.00
H177   H     0.68926   0.17275   0.00980   0.00000  Uiso   1.00
H178   H     0.88111   0.11817   0.36954   0.00000  Uiso   1.00
H179   H     0.90870   0.29604   0.25198   0.00000  Uiso   1.00
N180   N     0.71598   0.16666   0.24998   0.00000  Uiso   1.00
N181   N     0.95069   0.16669   0.24999   0.00000  Uiso   1.00
O182   O     0.79375   0.22678   0.25000   0.00000  Uiso   1.00
O183   O     0.87294   0.22679   0.25000   0.00000  Uiso   1.00
O184   O     0.77441   0.16665   0.32549   0.00000  Uiso   1.00
O185   O     0.85360   0.16666   0.32549   0.00000  Uiso   1.00
O186   O     0.79373   0.10654   0.24999   0.00000  Uiso   1.00
O187   O     0.87292   0.10655   0.24999   0.00000  Uiso   1.00
O188   O     0.81306   0.16667   0.17451   0.00000  Uiso   1.00
O189   O     0.89225   0.16668   0.17451   0.00000  Uiso   1.00
H190   H     0.94785   0.13711   0.08726   0.00000  Uiso   1.00
H191   H     0.75760   0.03734   0.24920   0.00000  Uiso   1.00
H192   H     0.72469   0.11606   0.19770   0.00000  Uiso   1.00
H193   H     0.97070   0.11591   0.19816   0.00000  Uiso   1.00
O194   O     0.95294   0.10904   0.40844   0.00000  Uiso   1.00
C195   C     0.95328   0.06652   0.39747   0.00000  Uiso   1.00
H196   H     0.92880   0.05907   0.37310   0.00000  Uiso   1.00
H197   H     0.94167   0.04849   0.43435   0.00000  Uiso   1.00
C198   C     0.67192   0.05364   0.36711   0.00000  Uiso   1.00
H199   H     0.69736   0.06009   0.39058   0.00000  Uiso   1.00
H200   H     0.67292   0.02019   0.35813   0.00000  Uiso   1.00
H201   H     0.68430   0.07096   0.32986   0.00000  Uiso   1.00
H202   H     0.96693   0.11691   0.49563   0.00000  Uiso   1.00
O203   O     0.74050   0.14705   0.06963   0.00000  Uiso   1.00
C204   C     0.72202   0.10632   0.07641   0.00000  Uiso   1.00
H205   H     0.70695   0.09548   0.04465   0.00000  Uiso   1.00
H206   H     0.69090   0.10565   0.11277   0.00000  Uiso   1.00
C207   C     0.76104   0.07627   0.08261   0.00000  Uiso   1.00
H208   H     0.77734   0.08757   0.11296   0.00000  Uiso   1.00
H209   H     0.74414   0.04571   0.09450   0.00000  Uiso   1.00
H210   H     0.79047   0.07262   0.04504   0.00000  Uiso   1.00
C211   C     0.16661   0.57933   0.25020   0.00000  Uiso   1.00
C212   C     0.14383   0.48317   0.49010   0.00000  Uiso   1.00
C213   C     0.15809   0.47896   0.43504   0.00000  Uiso   1.00
C214   C     0.18072   0.48093   0.01592   0.00000  Uiso   1.00
C215   C     0.22830   0.46596   0.48886   0.00000  Uiso   1.00
C216   C     0.23915   0.45439   0.43622   0.00000  Uiso   1.00
C217   C     0.20441   0.46127   0.40979   0.00000  Uiso   1.00
C218   C     0.17250   0.49585   0.06696   0.00000  Uiso   1.00
C219   C     0.25367   0.47472   0.06723   0.00000  Uiso   1.00
C220   C     0.12516   0.49207   0.40731   0.00000  Uiso   1.00
C221   C     0.20889   0.64539   0.25135   0.00000  Uiso   1.00
C222   C     0.14067   0.49713   0.35004   0.00000  Uiso   1.00
C223   C     0.20890   0.35463   0.25133   0.00000  Uiso   1.00
C224   C     0.16653   0.37609   0.25043   0.00000  Uiso   1.00
C225   C     0.12407   0.35465   0.24984   0.00000  Uiso   1.00
C226   C     0.12405   0.64541   0.24991   0.00000  Uiso   1.00
C227   C     0.16651   0.62395   0.25050   0.00000  Uiso   1.00
C228   C     0.30034   0.52786   0.27946   0.00000  Uiso   1.00
C229   C     0.01663   0.52780   0.27952   0.00000  Uiso   1.00
C230   C     0.03287   0.47192   0.22090   0.00000  Uiso   1.00
C231   C     0.31653   0.47187   0.22103   0.00000  Uiso   1.00
C232   C     0.16663   0.42068   0.25011   0.00000  Uiso   1.00
C233   C     0.19282   0.49877   0.14988   0.00000  Uiso   1.00
C234   C     0.26422   0.46272   0.01507   0.00000  Uiso   1.00
C235   C     0.20757   0.49119   0.09341   0.00000  Uiso   1.00
C236   C     0.07679   0.50270   0.43517   0.00000  Uiso   1.00
C237   C     0.06068   0.49984   0.48914   0.00000  Uiso   1.00
C238   C     0.09305   0.48854   0.01689   0.00000  Uiso   1.00
Cu239  Cu    0.11978   0.49999   0.25000   0.00000  Uiso   1.00
Cu240  Cu    0.21355   0.50001   0.25000   0.00000  Uiso   1.00
H241   H     0.24204   0.37064   0.25195   0.00000  Uiso   1.00
H242   H     0.09089   0.62941   0.24937   0.00000  Uiso   1.00
H243   H     0.27505   0.55014   0.30310   0.00000  Uiso   1.00
H244   H     0.02879   0.55003   0.30320   0.00000  Uiso   1.00
H245   H     0.13915   0.51213   0.08669   0.00000  Uiso   1.00
H246   H     0.05088   0.51261   0.41513   0.00000  Uiso   1.00
H247   H     0.02260   0.50608   0.00980   0.00000  Uiso   1.00
H248   H     0.21444   0.45150   0.36954   0.00000  Uiso   1.00
H249   H     0.24203   0.62937   0.25198   0.00000  Uiso   1.00
N250   N     0.04931   0.49999   0.24998   0.00000  Uiso   1.00
N251   N     0.28402   0.50002   0.24999   0.00000  Uiso   1.00
O252   O     0.12708   0.56011   0.25000   0.00000  Uiso   1.00
O253   O     0.20627   0.56012   0.25000   0.00000  Uiso   1.00
O254   O     0.10775   0.49998   0.32549   0.00000  Uiso   1.00
O255   O     0.18694   0.49999   0.32549   0.00000  Uiso   1.00
O256   O     0.12706   0.43988   0.24999   0.00000  Uiso   1.00
O257   O     0.20625   0.43989   0.24999   0.00000  Uiso   1.00
O258   O     0.14640   0.50001   0.17451   0.00000  Uiso   1.00
O259   O     0.22559   0.50002   0.17451   0.00000  Uiso   1.00
H260   H     0.28119   0.47044   0.08726   0.00000  Uiso   1.00
H261   H     0.09094   0.37068   0.24920   0.00000  Uiso   1.00
H262   H     0.05802   0.44939   0.19770   0.00000  Uiso   1.00
H263   H     0.30404   0.44924   0.19816   0.00000  Uiso   1.00
O264   O     0.28627   0.44238   0.40844   0.00000  Uiso   1.00
C265   C     0.28662   0.39985   0.39747   0.00000  Uiso   1.00
H266   H     0.26213   0.39241   0.37310   0.00000  Uiso   1.00
H267   H     0.27500   0.38183   0.43435   0.00000  Uiso   1.00
C268   C     0.00525   0.38697   0.36711   0.00000  Uiso   1.00
H269   H     0.03069   0.39342   0.39058   0.00000  Uiso   1.00
H270   H     0.00626   0.35352   0.35813   0.00000  Uiso   1.00
H271   H     0.01763   0.40429   0.32986   0.00000  Uiso   1.00
H272   H     0.30026   0.45024   0.49563   0.00000  Uiso   1.00
O273   O     0.07383   0.48038   0.06963   0.00000  Uiso   1.00
C274   C     0.05536   0.43965   0.07641   0.00000  Uiso   1.00
H275   H     0.04028   0.42881   0.04465   0.00000  Uiso   1.00
H276   H     0.02424   0.43898   0.11277   0.00000  Uiso   1.00
C277   C     0.09437   0.40960   0.08261   0.00000  Uiso   1.00
H278   H     0.11068   0.42090   0.11296   0.00000  Uiso   1.00
H279   H     0.07747   0.37904   0.09450   0.00000  Uiso   1.00
H280   H     0.12381   0.40595   0.04504   0.00000  Uiso   1.00
C281   C     0.49995   0.57933   0.25020   0.00000  Uiso   1.00
C282   C     0.47716   0.48317   0.49010   0.00000  Uiso   1.00
C283   C     0.49142   0.47896   0.43504   0.00000  Uiso   1.00
C284   C     0.51406   0.48093   0.01592   0.00000  Uiso   1.00
C285   C     0.56163   0.46596   0.48886   0.00000  Uiso   1.00
C286   C     0.57248   0.45439   0.43622   0.00000  Uiso   1.00
C287   C     0.53774   0.46127   0.40979   0.00000  Uiso   1.00
C288   C     0.50583   0.49585   0.06696   0.00000  Uiso   1.00
C289   C     0.58701   0.47472   0.06723   0.00000  Uiso   1.00
C290   C     0.45850   0.49207   0.40731   0.00000  Uiso   1.00
C291   C     0.54222   0.64539   0.25135   0.00000  Uiso   1.00
C292   C     0.47401   0.49713   0.35004   0.00000  Uiso   1.00
C293   C     0.54223   0.35463   0.25133   0.00000  Uiso   1.00
C294   C     0.49987   0.37609   0.25043   0.00000  Uiso   1.00
C295   C     0.45741   0.35465   0.24984   0.00000  Uiso   1.00
C296   C     0.45739   0.64541   0.24991   0.00000  Uiso   1.00
C297   C     0.49984   0.62395   0.25050   0.00000  Uiso   1.00
C298   C     0.63367   0.52786   0.27946   0.00000  Uiso   1.00
C299   C     0.34996   0.52780   0.27952   0.00000  Uiso   1.00
C300   C     0.36620   0.47192   0.22090   0.00000  Uiso   1.00
C301   C     0.64986   0.47187   0.22103   0.00000  Uiso   1.00
C302   C     0.49996   0.42068   0.25011   0.00000  Uiso   1.00
C303   C     0.52615   0.49877   0.14988   0.00000  Uiso   1.00
C304   C     0.59755   0.46272   0.01507   0.00000  Uiso   1.00
C305   C     0.54090   0.49119   0.09341   0.00000  Uiso   1.00
C306   C     0.41012   0.50270   0.43517   0.00000  Uiso   1.00
C307   C     0.39401   0.49984   0.48914   0.00000  Uiso   1.00
C308   C     0.42638   0.48854   0.01689   0.00000  Uiso   1.00
Cu309  Cu    0.45311   0.49999   0.25000   0.00000  Uiso   1.00
Cu310  Cu    0.54689   0.50001   0.25000   0.00000  Uiso   1.00
H311   H     0.57537   0.37064   0.25195   0.00000  Uiso   1.00
H312   H     0.42422   0.62941   0.24937   0.00000  Uiso   1.00
H313   H     0.60839   0.55014   0.30310   0.00000  Uiso   1.00
H314   H     0.36212   0.55003   0.30320   0.00000  Uiso   1.00
H315   H     0.47248   0.51213   0.08669   0.00000  Uiso   1.00
H316   H     0.38421   0.51261   0.41513   0.00000  Uiso   1.00
H317   H     0.35593   0.50608   0.00980   0.00000  Uiso   1.00
H318   H     0.54778   0.45150   0.36954   0.00000  Uiso   1.00
H319   H     0.57536   0.62937   0.25198   0.00000  Uiso   1.00
N320   N     0.38265   0.49999   0.24998   0.00000  Uiso   1.00
N321   N     0.61735   0.50002   0.24999   0.00000  Uiso   1.00
O322   O     0.46042   0.56011   0.25000   0.00000  Uiso   1.00
O323   O     0.53961   0.56012   0.25000   0.00000  Uiso   1.00
O324   O     0.44108   0.49998   0.32549   0.00000  Uiso   1.00
O325   O     0.52027   0.49999   0.32549   0.00000  Uiso   1.00
O326   O     0.46039   0.43988   0.24999   0.00000  Uiso   1.00
O327   O     0.53958   0.43989   0.24999   0.00000  Uiso   1.00
O328   O     0.47973   0.50001   0.17451   0.00000  Uiso   1.00
O329   O     0.55892   0.50002   0.17451   0.00000  Uiso   1.00
H330   H     0.61452   0.47044   0.08726   0.00000  Uiso   1.00
H331   H     0.42427   0.37068   0.24920   0.00000  Uiso   1.00
H332   H     0.39135   0.44939   0.19770   0.00000  Uiso   1.00
H333   H     0.63737   0.44924   0.19816   0.00000  Uiso   1.00
O334   O     0.61960   0.44238   0.40844   0.00000  Uiso   1.00
C335   C     0.61995   0.39985   0.39747   0.00000  Uiso   1.00
H336   H     0.59547   0.39241   0.37310   0.00000  Uiso   1.00
H337   H     0.60834   0.38183   0.43435   0.00000  Uiso   1.00
C338   C     0.33859   0.38697   0.36711   0.00000  Uiso   1.00
H339   H     0.36403   0.39342   0.39058   0.00000  Uiso   1.00
H340   H     0.33959   0.35352   0.35813   0.00000  Uiso   1.00
H341   H     0.35096   0.40429   0.32986   0.00000  Uiso   1.00
H342   H     0.63359   0.45024   0.49563   0.00000  Uiso   1.00
O343   O     0.40717   0.48038   0.06963   0.00000  Uiso   1.00
C344   C     0.38869   0.43965   0.07641   0.00000  Uiso   1.00
H345   H     0.37361   0.42881   0.04465   0.00000  Uiso   1.00
H346   H     0.35757   0.43898   0.11277   0.00000  Uiso   1.00
C347   C     0.42770   0.40960   0.08261   0.00000  Uiso   1.00
H348   H     0.44401   0.42090   0.11296   0.00000  Uiso   1.00
H349   H     0.41081   0.37904   0.09450   0.00000  Uiso   1.00
H350   H     0.45714   0.40595   0.04504   0.00000  Uiso   1.00
C351   C     0.83328   0.57933   0.25020   0.00000  Uiso   1.00
C352   C     0.81050   0.48317   0.49010   0.00000  Uiso   1.00
C353   C     0.82476   0.47896   0.43504   0.00000  Uiso   1.00
C354   C     0.84739   0.48093   0.01592   0.00000  Uiso   1.00
C355   C     0.89496   0.46596   0.48886   0.00000  Uiso   1.00
C356   C     0.90582   0.45439   0.43622   0.00000  Uiso   1.00
C357   C     0.87108   0.46127   0.40979   0.00000  Uiso   1.00
C358   C     0.83916   0.49585   0.06696   0.00000  Uiso   1.00
C359   C     0.92034   0.47472   0.06723   0.00000  Uiso   1.00
C360   C     0.79183   0.49207   0.40731   0.00000  Uiso   1.00
C361   C     0.87556   0.64539   0.25135   0.00000  Uiso   1.00
C362   C     0.80734   0.49713   0.35004   0.00000  Uiso   1.00
C363   C     0.87556   0.35463   0.25133   0.00000  Uiso   1.00
C364   C     0.83320   0.37609   0.25043   0.00000  Uiso   1.00
C365   C     0.79074   0.35465   0.24984   0.00000  Uiso   1.00
C366   C     0.79072   0.64541   0.24991   0.00000  Uiso   1.00
C367   C     0.83318   0.62395   0.25050   0.00000  Uiso   1.00
C368   C     0.96700   0.52786   0.27946   0.00000  Uiso   1.00
C369   C     0.68329   0.52780   0.27952   0.00000  Uiso   1.00
C370   C     0.69954   0.47192   0.22090   0.00000  Uiso   1.00
C371   C     0.98319   0.47187   0.22103   0.00000  Uiso   1.00
C372   C     0.83329   0.42068   0.25011   0.00000  Uiso   1.00
C373   C     0.85948   0.49877   0.14988   0.00000  Uiso   1.00
C374   C     0.93089   0.46272   0.01507   0.00000  Uiso   1.00
C375   C     0.87424   0.49119   0.09341   0.00000  Uiso   1.00
C376   C     0.74345   0.50270   0.43517   0.00000  Uiso   1.00
C377   C     0.72735   0.49984   0.48914   0.00000  Uiso   1.00
C378   C     0.75971   0.48854   0.01689   0.00000  Uiso   1.00
Cu379  Cu    0.78645   0.49999   0.25000   0.00000  Uiso   1.00
Cu380  Cu    0.88022   0.50001   0.25000   0.00000  Uiso   1.00
H381   H     0.90871   0.37064   0.25195   0.00000  Uiso   1.00
H382   H     0.75755   0.62941   0.24937   0.00000  Uiso   1.00
H383   H     0.94172   0.55014   0.30310   0.00000  Uiso   1.00
H384   H     0.69545   0.55003   0.30320   0.00000  Uiso   1.00
H385   H     0.80582   0.51213   0.08669   0.00000  Uiso   1.00
H386   H     0.71755   0.51261   0.41513   0.00000  Uiso   1.00
H387   H     0.68926   0.50608   0.00980   0.00000  Uiso   1.00
H388   H     0.88111   0.45150   0.36954   0.00000  Uiso   1.00
H389   H     0.90870   0.62937   0.25198   0.00000  Uiso   1.00
N390   N     0.71598   0.49999   0.24998   0.00000  Uiso   1.00
N391   N     0.95069   0.50002   0.24999   0.00000  Uiso   1.00
O392   O     0.79375   0.56011   0.25000   0.00000  Uiso   1.00
O393   O     0.87294   0.56012   0.25000   0.00000  Uiso   1.00
O394   O     0.77441   0.49998   0.32549   0.00000  Uiso   1.00
O395   O     0.85360   0.49999   0.32549   0.00000  Uiso   1.00
O396   O     0.79373   0.43988   0.24999   0.00000  Uiso   1.00
O397   O     0.87292   0.43989   0.24999   0.00000  Uiso   1.00
O398   O     0.81306   0.50001   0.17451   0.00000  Uiso   1.00
O399   O     0.89225   0.50002   0.17451   0.00000  Uiso   1.00
H400   H     0.94785   0.47044   0.08726   0.00000  Uiso   1.00
H401   H     0.75760   0.37068   0.24920   0.00000  Uiso   1.00
H402   H     0.72469   0.44939   0.19770   0.00000  Uiso   1.00
H403   H     0.97070   0.44924   0.19816   0.00000  Uiso   1.00
O404   O     0.95294   0.44238   0.40844   0.00000  Uiso   1.00
C405   C     0.95328   0.39985   0.39747   0.00000  Uiso   1.00
H406   H     0.92880   0.39241   0.37310   0.00000  Uiso   1.00
H407   H     0.94167   0.38183   0.43435   0.00000  Uiso   1.00
C408   C     0.67192   0.38697   0.36711   0.00000  Uiso   1.00
H409   H     0.69736   0.39342   0.39058   0.00000  Uiso   1.00
H410   H     0.67292   0.35352   0.35813   0.00000  Uiso   1.00
H411   H     0.68430   0.40429   0.32986   0.00000  Uiso   1.00
H412   H     0.96693   0.45024   0.49563   0.00000  Uiso   1.00
O413   O     0.74050   0.48038   0.06963   0.00000  Uiso   1.00
C414   C     0.72202   0.43965   0.07641   0.00000  Uiso   1.00
H415   H     0.70695   0.42881   0.04465   0.00000  Uiso   1.00
H416   H     0.69090   0.43898   0.11277   0.00000  Uiso   1.00
C417   C     0.76104   0.40960   0.08261   0.00000  Uiso   1.00
H418   H     0.77734   0.42090   0.11296   0.00000  Uiso   1.00
H419   H     0.74414   0.37904   0.09450   0.00000  Uiso   1.00
H420   H     0.79047   0.40595   0.04504   0.00000  Uiso   1.00
C421   C     0.16661   0.91266   0.25020   0.00000  Uiso   1.00
C422   C     0.14383   0.81650   0.49010   0.00000  Uiso   1.00
C423   C     0.15809   0.81229   0.43504   0.00000  Uiso   1.00
C424   C     0.18072   0.81426   0.01592   0.00000  Uiso   1.00
C425   C     0.22830   0.79929   0.48886   0.00000  Uiso   1.00
C426   C     0.23915   0.78773   0.43622   0.00000  Uiso   1.00
C427   C     0.20441   0.79461   0.40979   0.00000  Uiso   1.00
C428   C     0.17250   0.82918   0.06696   0.00000  Uiso   1.00
C429   C     0.25367   0.80806   0.06723   0.00000  Uiso   1.00
C430   C     0.12516   0.82541   0.40731   0.00000  Uiso   1.00
C431   C     0.20889   0.97873   0.25135   0.00000  Uiso   1.00
C432   C     0.14067   0.83046   0.35004   0.00000  Uiso   1.00
C433   C     0.20890   0.68796   0.25133   0.00000  Uiso   1.00
C434   C     0.16653   0.70942   0.25043   0.00000  Uiso   1.00
C435   C     0.12407   0.68799   0.24984   0.00000  Uiso   1.00
C436   C     0.12405   0.97875   0.24991   0.00000  Uiso   1.00
C437   C     0.16651   0.95728   0.25050   0.00000  Uiso   1.00
C438   C     0.30034   0.86119   0.27946   0.00000  Uiso   1.00
C439   C     0.01663   0.86113   0.27952   0.00000  Uiso   1.00
C440   C     0.03287   0.80526   0.22090   0.00000  Uiso   1.00
C441   C     0.31653   0.80521   0.22103   0.00000  Uiso   1.00
C442   C     0.16663   0.75401   0.25011   0.00000  Uiso   1.00
C443   C     0.19282   0.83210   0.14988   0.00000  Uiso   1.00
C444   C     0.26422   0.79605   0.01507   0.00000  Uiso   1.00
C445   C     0.20757   0.82452   0.09341   0.00000  Uiso   1.00
C446   C     0.07679   0.83603   0.43517   0.00000  Uiso   1.00
C447   C     0.06068   0.83317   0.48914   0.00000  Uiso   1.00
C448   C     0.09305   0.82188   0.01689   0.00000  Uiso   1.00
Cu449  Cu    0.11978   0.83333   0.25000   0.00000  Uiso   1.00
Cu450  Cu    0.21355   0.83334   0.25000   0.00000  Uiso   1.00
H451   H     0.24204   0.70398   0.25195   0.00000  Uiso   1.00
H452   H     0.09089   0.96275   0.24937   0.00000  Uiso   1.00
H453   H     0.27505   0.88347   0.30310   0.00000  Uiso   1.00
H454   H     0.02879   0.88336   0.30320   0.00000  Uiso   1.00
H455   H     0.13915   0.84546   0.08669   0.00000  Uiso   1.00
H456   H     0.05088   0.84594   0.41513   0.00000  Uiso   1.00
H457   H     0.02260   0.83942   0.00980   0.00000  Uiso   1.00
H458   H     0.21444   0.78484   0.36954   0.00000  Uiso   1.00
H459   H     0.24203   0.96271   0.25198   0.00000  Uiso   1.00
N460   N     0.04931   0.83332   0.24998   0.00000  Uiso   1.00
N461   N     0.28402   0.83335   0.24999   0.00000  Uiso   1.00
O462   O     0.12708   0.89345   0.25000   0.00000  Uiso   1.00
O463   O     0.20627   0.89346   0.25000   0.00000  Uiso   1.00
O464   O     0.10775   0.83332   0.32549   0.00000  Uiso   1.00
O465   O     0.18694   0.83333   0.32549   0.00000  Uiso   1.00
O466   O     0.12706   0.77321   0.24999   0.00000  Uiso   1.00
O467   O     0.20625   0.77322   0.24999   0.00000  Uiso   1.00
O468   O     0.14640   0.83334   0.17451   0.00000  Uiso   1.00
O469   O     0.22559   0.83335   0.17451   0.00000  Uiso   1.00
H470   H     0.28119   0.80378   0.08726   0.00000  Uiso   1.00
H471   H     0.09094   0.70401   0.24920   0.00000  Uiso   1.00
H472   H     0.05802   0.78273   0.19770   0.00000  Uiso   1.00
H473   H     0.30404   0.78257   0.19816   0.00000  Uiso   1.00
O474   O     0.28627   0.77571   0.40844   0.00000  Uiso   1.00
C475   C     0.28662   0.73318   0.39747   0.00000  Uiso   1.00
H476   H     0.26213   0.72574   0.37310   0.00000  Uiso   1.00
H477   H     0.27500   0.71516   0.43435   0.00000  Uiso   1.00
C478   C     0.00525   0.72031   0.36711   0.00000  Uiso   1.00
H479   H     0.03069   0.72676   0.39058   0.00000  Uiso   1.00
H480   H     0.00626   0.68686   0.35813   0.00000  Uiso   1.00
H481   H     0.01763   0.73762   0.32986   0.00000  Uiso   1.00
H482   H     0.30026   0.78358   0.49563   0.00000  Uiso   1.00
O483   O     0.07383   0.81371   0.06963   0.00000  Uiso   1.00
C484   C     0.05536   0.77299   0.07641   0.00000  Uiso   1.00
H485   H     0.04028   0.76215   0.04465   0.00000  Uiso   1.00
H486   H     0.02424   0.77232   0.11277   0.00000  Uiso   1.00
C487   C     0.09437   0.74293   0.08261   0.00000  Uiso   1.00
H488   H     0.11068   0.75423   0.11296   0.00000  Uiso   1.00
H489   H     0.07747   0.71237   0.09450   0.00000  Uiso   1.00
H490   H     0.12381   0.73929   0.04504   0.00000  Uiso   1.00
C491   C     0.49995   0.91266   0.25020   0.00000  Uiso   1.00
C492   C     0.47716   0.81650   0.49010   0.00000  Uiso   1.00
C493   C     0.49142   0.81229   0.43504   0.00000  Uiso   1.00
C494   C     0.51406   0.81426   0.01592   0.00000  Uiso   1.00
C495   C     0.56163   0.79929   0.48886   0.00000  Uiso   1.00
C496   C     0.57248   0.78773   0.43622   0.00000  Uiso   1.00
C497   C     0.53774   0.79461   0.40979   0.00000  Uiso   1.00
C498   C     0.50583   0.82918   0.06696   0.00000  Uiso   1.00
C499   C     0.58701   0.80806   0.06723   0.00000  Uiso   1.00
C500   C     0.45850   0.82541   0.40731   0.00000  Uiso   1.00
C501   C     0.54222   0.97873   0.25135   0.00000  Uiso   1.00
C502   C     0.47401   0.83046   0.35004   0.00000  Uiso   1.00
C503   C     0.54223   0.68796   0.25133   0.00000  Uiso   1.00
C504   C     0.49987   0.70942   0.25043   0.00000  Uiso   1.00
C505   C     0.45741   0.68799   0.24984   0.00000  Uiso   1.00
C506   C     0.45739   0.97875   0.24991   0.00000  Uiso   1.00
C507   C     0.49984   0.95728   0.25050   0.00000  Uiso   1.00
C508   C     0.63367   0.86119   0.27946   0.00000  Uiso   1.00
C509   C     0.34996   0.86113   0.27952   0.00000  Uiso   1.00
C510   C     0.36620   0.80526   0.22090   0.00000  Uiso   1.00
C511   C     0.64986   0.80521   0.22103   0.00000  Uiso   1.00
C512   C     0.49996   0.75401   0.25011   0.00000  Uiso   1.00
C513   C     0.52615   0.83210   0.14988   0.00000  Uiso   1.00
C514   C     0.59755   0.79605   0.01507   0.00000  Uiso   1.00
C515   C     0.54090   0.82452   0.09341   0.00000  Uiso   1.00
C516   C     0.41012   0.83603   0.43517   0.00000  Uiso   1.00
C517   C     0.39401   0.83317   0.48914   0.00000  Uiso   1.00
C518   C     0.42638   0.82188   0.01689   0.00000  Uiso   1.00
Cu519  Cu    0.45311   0.83333   0.25000   0.00000  Uiso   1.00
Cu520  Cu    0.54689   0.83334   0.25000   0.00000  Uiso   1.00
H521   H     0.57537   0.70398   0.25195   0.00000  Uiso   1.00
H522   H     0.42422   0.96275   0.24937   0.00000  Uiso   1.00
H523   H     0.60839   0.88347   0.30310   0.00000  Uiso   1.00
H524   H     0.36212   0.88336   0.30320   0.00000  Uiso   1.00
H525   H     0.47248   0.84546   0.08669   0.00000  Uiso   1.00
H526   H     0.38421   0.84594   0.41513   0.00000  Uiso   1.00
H527   H     0.35593   0.83942   0.00980   0.00000  Uiso   1.00
H528   H     0.54778   0.78484   0.36954   0.00000  Uiso   1.00
H529   H     0.57536   0.96271   0.25198   0.00000  Uiso   1.00
N530   N     0.38265   0.83332   0.24998   0.00000  Uiso   1.00
N531   N     0.61735   0.83335   0.24999   0.00000  Uiso   1.00
O532   O     0.46042   0.89345   0.25000   0.00000  Uiso   1.00
O533   O     0.53961   0.89346   0.25000   0.00000  Uiso   1.00
O534   O     0.44108   0.83332   0.32549   0.00000  Uiso   1.00
O535   O     0.52027   0.83333   0.32549   0.00000  Uiso   1.00
O536   O     0.46039   0.77321   0.24999   0.00000  Uiso   1.00
O537   O     0.53958   0.77322   0.24999   0.00000  Uiso   1.00
O538   O     0.47973   0.83334   0.17451   0.00000  Uiso   1.00
O539   O     0.55892   0.83335   0.17451   0.00000  Uiso   1.00
H540   H     0.61452   0.80378   0.08726   0.00000  Uiso   1.00
H541   H     0.42427   0.70401   0.24920   0.00000  Uiso   1.00
H542   H     0.39135   0.78273   0.19770   0.00000  Uiso   1.00
H543   H     0.63737   0.78257   0.19816   0.00000  Uiso   1.00
O544   O     0.61960   0.77571   0.40844   0.00000  Uiso   1.00
C545   C     0.61995   0.73318   0.39747   0.00000  Uiso   1.00
H546   H     0.59547   0.72574   0.37310   0.00000  Uiso   1.00
H547   H     0.60834   0.71516   0.43435   0.00000  Uiso   1.00
C548   C     0.33859   0.72031   0.36711   0.00000  Uiso   1.00
H549   H     0.36403   0.72676   0.39058   0.00000  Uiso   1.00
H550   H     0.33959   0.68686   0.35813   0.00000  Uiso   1.00
H551   H     0.35096   0.73762   0.32986   0.00000  Uiso   1.00
H552   H     0.63359   0.78358   0.49563   0.00000  Uiso   1.00
O553   O     0.40717   0.81371   0.06963   0.00000  Uiso   1.00
C554   C     0.38869   0.77299   0.07641   0.00000  Uiso   1.00
H555   H     0.37361   0.76215   0.04465   0.00000  Uiso   1.00
H556   H     0.35757   0.77232   0.11277   0.00000  Uiso   1.00
C557   C     0.42770   0.74293   0.08261   0.00000  Uiso   1.00
H558   H     0.44401   0.75423   0.11296   0.00000  Uiso   1.00
H559   H     0.41081   0.71237   0.09450   0.00000  Uiso   1.00
H560   H     0.45714   0.73929   0.04504   0.00000  Uiso   1.00
C561   C     0.83328   0.91266   0.25020   0.00000  Uiso   1.00
C562   C     0.81050   0.81650   0.49010   0.00000  Uiso   1.00
C563   C     0.82476   0.81229   0.43504   0.00000  Uiso   1.00
C564   C     0.84739   0.81426   0.01592   0.00000  Uiso   1.00
C565   C     0.89496   0.79929   0.48886   0.00000  Uiso   1.00
C566   C     0.90582   0.78773   0.43622   0.00000  Uiso   1.00
C567   C     0.87108   0.79461   0.40979   0.00000  Uiso   1.00
C568   C     0.83916   0.82918   0.06696   0.00000  Uiso   1.00
C569   C     0.92034   0.80806   0.06723   0.00000  Uiso   1.00
C570   C     0.79183   0.82541   0.40731   0.00000  Uiso   1.00
C571   C     0.87556   0.97873   0.25135   0.00000  Uiso   1.00
C572   C     0.80734   0.83046   0.35004   0.00000  Uiso   1.00
C573   C     0.87556   0.68796   0.25133   0.00000  Uiso   1.00
C574   C     0.83320   0.70942   0.25043   0.00000  Uiso   1.00
C575   C     0.79074   0.68799   0.24984   0.00000  Uiso   1.00
C576   C     0.79072   0.97875   0.24991   0.00000  Uiso   1.00
C577   C     0.83318   0.95728   0.25050   0.00000  Uiso   1.00
C578   C     0.96700   0.86119   0.27946   0.00000  Uiso   1.00
C579   C     0.68329   0.86113   0.27952   0.00000  Uiso   1.00
C580   C     0.69954   0.80526   0.22090   0.00000  Uiso   1.00
C581   C     0.98319   0.80521   0.22103   0.00000  Uiso   1.00
C582   C     0.83329   0.75401   0.25011   0.00000  Uiso   1.00
C583   C     0.85948   0.83210   0.14988   0.00000  Uiso   1.00
C584   C     0.93089   0.79605   0.01507   0.00000  Uiso   1.00
C585   C     0.87424   0.82452   0.09341   0.00000  Uiso   1.00
C586   C     0.74345   0.83603   0.43517   0.00000  Uiso   1.00
C587   C     0.72735   0.83317   0.48914   0.00000  Uiso   1.00
C588   C     0.75971   0.82188   0.01689   0.00000  Uiso   1.00
Cu589  Cu    0.78645   0.83333   0.25000   0.00000  Uiso   1.00
Cu590  Cu    0.88022   0.83334   0.25000   0.00000  Uiso   1.00
H591   H     0.90871   0.70398   0.25195   0.00000  Uiso   1.00
H592   H     0.75755   0.96275   0.24937   0.00000  Uiso   1.00
H593   H     0.94172   0.88347   0.30310   0.00000  Uiso   1.00
H594   H     0.69545   0.88336   0.30320   0.00000  Uiso   1.00
H595   H     0.80582   0.84546   0.08669   0.00000  Uiso   1.00
H596   H     0.71755   0.84594   0.41513   0.00000  Uiso   1.00
H597   H     0.68926   0.83942   0.00980   0.00000  Uiso   1.00
H598   H     0.88111   0.78484   0.36954   0.00000  Uiso   1.00
H599   H     0.90870   0.96271   0.25198   0.00000  Uiso   1.00
N600   N     0.71598   0.83332   0.24998   0.00000  Uiso   1.00
N601   N     0.95069   0.83335   0.24999   0.00000  Uiso   1.00
O602   O     0.79375   0.89345   0.25000   0.00000  Uiso   1.00
O603   O     0.87294   0.89346   0.25000   0.00000  Uiso   1.00
O604   O     0.77441   0.83332   0.32549   0.00000  Uiso   1.00
O605   O     0.85360   0.83333   0.32549   0.00000  Uiso   1.00
O606   O     0.79373   0.77321   0.24999   0.00000  Uiso   1.00
O607   O     0.87292   0.77322   0.24999   0.00000  Uiso   1.00
O608   O     0.81306   0.83334   0.17451   0.00000  Uiso   1.00
O609   O     0.89225   0.83335   0.17451   0.00000  Uiso   1.00
H610   H     0.94785   0.80378   0.08726   0.00000  Uiso   1.00
H611   H     0.75760   0.70401   0.24920   0.00000  Uiso   1.00
H612   H     0.72469   0.78273   0.19770   0.00000  Uiso   1.00
H613   H     0.97070   0.78257   0.19816   0.00000  Uiso   1.00
O614   O     0.95294   0.77571   0.40844   0.00000  Uiso   1.00
C615   C     0.95328   0.73318   0.39747   0.00000  Uiso   1.00
H616   H     0.92880   0.72574   0.37310   0.00000  Uiso   1.00
H617   H     0.94167   0.71516   0.43435   0.00000  Uiso   1.00
C618   C     0.67192   0.72031   0.36711   0.00000  Uiso   1.00
H619   H     0.69736   0.72676   0.39058   0.00000  Uiso   1.00
H620   H     0.67292   0.68686   0.35813   0.00000  Uiso   1.00
H621   H     0.68430   0.73762   0.32986   0.00000  Uiso   1.00
H622   H     0.96693   0.78358   0.49563   0.00000  Uiso   1.00
O623   O     0.74050   0.81371   0.06963   0.00000  Uiso   1.00
C624   C     0.72202   0.77299   0.07641   0.00000  Uiso   1.00
H625   H     0.70695   0.76215   0.04465   0.00000  Uiso   1.00
H626   H     0.69090   0.77232   0.11277   0.00000  Uiso   1.00
C627   C     0.76104   0.74293   0.08261   0.00000  Uiso   1.00
H628   H     0.77734   0.75423   0.11296   0.00000  Uiso   1.00
H629   H     0.74414   0.71237   0.09450   0.00000  Uiso   1.00
H630   H     0.79047   0.73929   0.04504   0.00000  Uiso   1.00
C631   C     0.16661   0.24599   0.75020   0.00000  Uiso   1.00
C632   C     0.14383   0.14983   0.99010   0.00000  Uiso   1.00
C633   C     0.15809   0.14563   0.93504   0.00000  Uiso   1.00
C634   C     0.18072   0.14759   0.51592   0.00000  Uiso   1.00
C635   C     0.22830   0.13262   0.98886   0.00000  Uiso   1.00
C636   C     0.23915   0.12106   0.93622   0.00000  Uiso   1.00
C637   C     0.20441   0.12794   0.90979   0.00000  Uiso   1.00
C638   C     0.17250   0.16251   0.56696   0.00000  Uiso   1.00
C639   C     0.25367   0.14139   0.56723   0.00000  Uiso   1.00
C640   C     0.12516   0.15874   0.90731   0.00000  Uiso   1.00
C641   C     0.20889   0.31206   0.75135   0.00000  Uiso   1.00
C642   C     0.14067   0.16379   0.85004   0.00000  Uiso   1.00
C643   C     0.20890   0.02130   0.75133   0.00000  Uiso   1.00
C644   C     0.16653   0.04275   0.75043   0.00000  Uiso   1.00
C645   C     0.12407   0.02132   0.74984   0.00000  Uiso   1.00
C646   C     0.12405   0.31208   0.74991   0.00000  Uiso   1.00
C647   C     0.16651   0.29062   0.75050   0.00000  Uiso   1.00
C648   C     0.30034   0.19452   0.77946   0.00000  Uiso   1.00
C649   C     0.01663   0.19447   0.77952   0.00000  Uiso   1.00
C650   C     0.03287   0.13859   0.72090   0.00000  Uiso   1.00
C651   C     0.31653   0.13854   0.72103   0.00000  Uiso   1.00
C652   C     0.16663   0.08735   0.75011   0.00000  Uiso   1.00
C653   C     0.19282   0.16543   0.64988   0.00000  Uiso   1.00
C654   C     0.26422   0.12939   0.51507   0.00000  Uiso   1.00
C655   C     0.20757   0.15785   0.59341   0.00000  Uiso   1.00
C656   C     0.07679   0.16937   0.93517   0.00000  Uiso   1.00
C657   C     0.06068   0.16651   0.98914   0.00000  Uiso   1.00
C658   C     0.09305   0.15521   0.51689   0.00000  Uiso   1.00
Cu659  Cu    0.11978   0.16666   0.75000   0.00000  Uiso   1.00
Cu660  Cu    0.21355   0.16667   0.75000   0.00000  Uiso   1.00
H661   H     0.24204   0.03731   0.75195   0.00000  Uiso   1.00
H662   H     0.09089   0.29608   0.74937   0.00000  Uiso   1.00
H663   H     0.27505   0.21681   0.80310   0.00000  Uiso   1.00
H664   H     0.02879   0.21670   0.80320   0.00000  Uiso   1.00
H665   H     0.13915   0.17880   0.58669   0.00000  Uiso   1.00
H666   H     0.05088   0.17927   0.91513   0.00000  Uiso   1.00
H667   H     0.02260   0.17275   0.50980   0.00000  Uiso   1.00
H668   H     0.21444   0.11817   0.86954   0.00000  Uiso   1.00
H669   H     0.24203   0.29604   0.75198   0.00000  Uiso   1.00
N670   N     0.04931   0.16666   0.74998   0.00000  Uiso   1.00
N671   N     0.28402   0.16669   0.74999   0.00000  Uiso   1.00
O672   O     0.12708   0.22678   0.75000   0.00000  Uiso   1.00
O673   O     0.20627   0.22679   0.75000   0.00000  Uiso   1.00
O674   O     0.10775   0.16665   0.82549   0.00000  Uiso   1.00
O675   O     0.18694   0.16666   0.82549   0.00000  Uiso   1.00
O676   O     0.12706   0.10654   0.74999   0.00000  Uiso   1.00
O677   O     0.20625   0.10655   0.74999   0.00000  Uiso   1.00
O678   O     0.14640   0.16667   0.67451   0.00000  Uiso   1.00
O679   O     0.22559   0.16668   0.67451   0.00000  Uiso   1.00
H680   H     0.28119   0.13711   0.58726   0.00000  Uiso   1.00
H681   H     0.09094   0.03734   0.74920   0.00000  Uiso   1.00
H682   H     0.05802   0.11606   0.69770   0.00000  Uiso   1.00
H683   H     0.30404   0.11591   0.69816   0.00000  Uiso   1.00
O684   O     0.28627   0.10904   0.90844   0.00000  Uiso   1.00
C685   C     0.28662   0.06652   0.89747   0.00000  Uiso   1.00
H686   H     0.26213   0.05907   0.87310   0.00000  Uiso   1.00
H687   H     0.27500   0.04849   0.93435   0.00000  Uiso   1.00
C688   C     0.00525   0.05364   0.86711   0.00000  Uiso   1.00
H689   H     0.03069   0.06009   0.89058   0.00000  Uiso   1.00
H690   H     0.00626   0.02019   0.85813   0.00000  Uiso   1.00
H691   H     0.01763   0.07096   0.82986   0.00000  Uiso   1.00
H692   H     0.30026   0.11691   0.99563   0.00000  Uiso   1.00
O693   O     0.07383   0.14705   0.56963   0.00000  Uiso   1.00
C694   C     0.05536   0.10632   0.57641   0.00000  Uiso   1.00
H695   H     0.04028   0.09548   0.54465   0.00000  Uiso   1.00
H696   H     0.02424   0.10565   0.61277   0.00000  Uiso   1.00
C697   C     0.09437   0.07627   0.58261   0.00000  Uiso   1.00
H698   H     0.11068   0.08757   0.61296   0.00000  Uiso   1.00
H699   H     0.07747   0.04571   0.59450   0.00000  Uiso   1.00
H700   H     0.12381   0.07262   0.54504   0.00000  Uiso   1.00
C701   C     0.49995   0.24599   0.75020   0.00000  Uiso   1.00
C702   C     0.47716   0.14983   0.99010   0.00000  Uiso   1.00
C703   C     0.49142   0.14563   0.93504   0.00000  Uiso   1.00
C704   C     0.51406   0.14759   0.51592   0.00000  Uiso   1.00
C705   C     0.56163   0.13262   0.98886   0.00000  Uiso   1.00
C706   C     0.57248   0.12106   0.93622   0.00000  Uiso   1.00
C707   C     0.53774   0.12794   0.90979   0.00000  Uiso   1.00
C708   C     0.50583   0.16251   0.56696   0.00000  Uiso   1.00
C709   C     0.58701   0.14139   0.56723   0.00000  Uiso   1.00
C710   C     0.45850   0.15874   0.90731   0.00000  Uiso   1.00
C711   C     0.54222   0.31206   0.75135   0.00000  Uiso   1.00
C712   C     0.47401   0.16379   0.85004   0.00000  Uiso   1.00
C713   C     0.54223   0.02130   0.75133   0.00000  Uiso   1.00
C714   C     0.49987   0.04275   0.75043   0.00000  Uiso   1.00
C715   C     0.45741   0.02132   0.74984   0.00000  Uiso   1.00
C716   C     0.45739   0.31208   0.74991   0.00000  Uiso   1.00
C717   C     0.49984   0.29062   0.75050   0.00000  Uiso   1.00
C718   C     0.63367   0.19452   0.77946   0.00000  Uiso   1.00
C719   C     0.34996   0.19447   0.77952   0.00000  Uiso   1.00
C720   C     0.36620   0.13859   0.72090   0.00000  Uiso   1.00
C721   C     0.64986   0.13854   0.72103   0.00000  Uiso   1.00
C722   C     0.49996   0.08735   0.75011   0.00000  Uiso   1.00
C723   C     0.52615   0.16543   0.64988   0.00000  Uiso   1.00
C724   C     0.59755   0.12939   0.51507   0.00000  Uiso   1.00
C725   C     0.54090   0.15785   0.59341   0.00000  Uiso   1.00
C726   C     0.41012   0.16937   0.93517   0.00000  Uiso   1.00
C727   C     0.39401   0.16651   0.98914   0.00000  Uiso   1.00
C728   C     0.42638   0.15521   0.51689   0.00000  Uiso   1.00
Cu729  Cu    0.45311   0.16666   0.75000   0.00000  Uiso   1.00
Cu730  Cu    0.54689   0.16667   0.75000   0.00000  Uiso   1.00
H731   H     0.57537   0.03731   0.75195   0.00000  Uiso   1.00
H732   H     0.42422   0.29608   0.74937   0.00000  Uiso   1.00
H733   H     0.60839   0.21681   0.80310   0.00000  Uiso   1.00
H734   H     0.36212   0.21670   0.80320   0.00000  Uiso   1.00
H735   H     0.47248   0.17880   0.58669   0.00000  Uiso   1.00
H736   H     0.38421   0.17927   0.91513   0.00000  Uiso   1.00
H737   H     0.35593   0.17275   0.50980   0.00000  Uiso   1.00
H738   H     0.54778   0.11817   0.86954   0.00000  Uiso   1.00
H739   H     0.57536   0.29604   0.75198   0.00000  Uiso   1.00
N740   N     0.38265   0.16666   0.74998   0.00000  Uiso   1.00
N741   N     0.61735   0.16669   0.74999   0.00000  Uiso   1.00
O742   O     0.46042   0.22678   0.75000   0.00000  Uiso   1.00
O743   O     0.53961   0.22679   0.75000   0.00000  Uiso   1.00
O744   O     0.44108   0.16665   0.82549   0.00000  Uiso   1.00
O745   O     0.52027   0.16666   0.82549   0.00000  Uiso   1.00
O746   O     0.46039   0.10654   0.74999   0.00000  Uiso   1.00
O747   O     0.53958   0.10655   0.74999   0.00000  Uiso   1.00
O748   O     0.47973   0.16667   0.67451   0.00000  Uiso   1.00
O749   O     0.55892   0.16668   0.67451   0.00000  Uiso   1.00
H750   H     0.61452   0.13711   0.58726   0.00000  Uiso   1.00
H751   H     0.42427   0.03734   0.74920   0.00000  Uiso   1.00
H752   H     0.39135   0.11606   0.69770   0.00000  Uiso   1.00
H753   H     0.63737   0.11591   0.69816   0.00000  Uiso   1.00
O754   O     0.61960   0.10904   0.90844   0.00000  Uiso   1.00
C755   C     0.61995   0.06652   0.89747   0.00000  Uiso   1.00
H756   H     0.59547   0.05907   0.87310   0.00000  Uiso   1.00
H757   H     0.60834   0.04849   0.93435   0.00000  Uiso   1.00
C758   C     0.33859   0.05364   0.86711   0.00000  Uiso   1.00
H759   H     0.36403   0.06009   0.89058   0.00000  Uiso   1.00
H760   H     0.33959   0.02019   0.85813   0.00000  Uiso   1.00
H761   H     0.35096   0.07096   0.82986   0.00000  Uiso   1.00
H762   H     0.63359   0.11691   0.99563   0.00000  Uiso   1.00
O763   O     0.40717   0.14705   0.56963   0.00000  Uiso   1.00
C764   C     0.38869   0.10632   0.57641   0.00000  Uiso   1.00
H765   H     0.37361   0.09548   0.54465   0.00000  Uiso   1.00
H766   H     0.35757   0.10565   0.61277   0.00000  Uiso   1.00
C767   C     0.42770   0.07627   0.58261   0.00000  Uiso   1.00
H768   H     0.44401   0.08757   0.61296   0.00000  Uiso   1.00
H769   H     0.41081   0.04571   0.59450   0.00000  Uiso   1.00
H770   H     0.45714   0.07262   0.54504   0.00000  Uiso   1.00
C771   C     0.83328   0.24599   0.75020   0.00000  Uiso   1.00
C772   C     0.81050   0.14983   0.99010   0.00000  Uiso   1.00
C773   C     0.82476   0.14563   0.93504   0.00000  Uiso   1.00
C774   C     0.84739   0.14759   0.51592   0.00000  Uiso   1.00
C775   C     0.89496   0.13262   0.98886   0.00000  Uiso   1.00
C776   C     0.90582   0.12106   0.93622   0.00000  Uiso   1.00
C777   C     0.87108   0.12794   0.90979   0.00000  Uiso   1.00
C778   C     0.83916   0.16251   0.56696   0.00000  Uiso   1.00
C779   C     0.92034   0.14139   0.56723   0.00000  Uiso   1.00
C780   C     0.79183   0.15874   0.90731   0.00000  Uiso   1.00
C781   C     0.87556   0.31206   0.75135   0.00000  Uiso   1.00
C782   C     0.80734   0.16379   0.85004   0.00000  Uiso   1.00
C783   C     0.87556   0.02130   0.75133   0.00000  Uiso   1.00
C784   C     0.83320   0.04275   0.75043   0.00000  Uiso   1.00
C785   C     0.79074   0.02132   0.74984   0.00000  Uiso   1.00
C786   C     0.79072   0.31208   0.74991   0.00000  Uiso   1.00
C787   C     0.83318   0.29062   0.75050   0.00000  Uiso   1.00
C788   C     0.96700   0.19452   0.77946   0.00000  Uiso   1.00
C789   C     0.68329   0.19447   0.77952   0.00000  Uiso   1.00
C790   C     0.69954   0.13859   0.72090   0.00000  Uiso   1.00
C791   C     0.98319   0.13854   0.72103   0.00000  Uiso   1.00
C792   C     0.83329   0.08735   0.75011   0.00000  Uiso   1.00
C793   C     0.85948   0.16543   0.64988   0.00000  Uiso   1.00
C794   C     0.93089   0.12939   0.51507   0.00000  Uiso   1.00
C795   C     0.87424   0.15785   0.59341   0.00000  Uiso   1.00
C796   C     0.74345   0.16937   0.93517   0.00000  Uiso   1.00
C797   C     0.72735   0.16651   0.98914   0.00000  Uiso   1.00
C798   C     0.75971   0.15521   0.51689   0.00000  Uiso   1.00
Cu799  Cu    0.78645   0.16666   0.75000   0.00000  Uiso   1.00
Cu800  Cu    0.88022   0.16667   0.75000   0.00000  Uiso   1.00
H801   H     0.90871   0.03731   0.75195   0.00000  Uiso   1.00
H802   H     0.75755   0.29608   0.74937   0.00000  Uiso   1.00
H803   H     0.94172   0.21681   0.80310   0.00000  Uiso   1.00
H804   H     0.69545   0.21670   0.80320   0.00000  Uiso   1.00
H805   H     0.80582   0.17880   0.58669   0.00000  Uiso   1.00
H806   H     0.71755   0.17927   0.91513   0.00000  Uiso   1.00
H807   H     0.68926   0.17275   0.50980   0.00000  Uiso   1.00
H808   H     0.88111   0.11817   0.86954   0.00000  Uiso   1.00
H809   H     0.90870   0.29604   0.75198   0.00000  Uiso   1.00
N810   N     0.71598   0.16666   0.74998   0.00000  Uiso   1.00
N811   N     0.95069   0.16669   0.74999   0.00000  Uiso   1.00
O812   O     0.79375   0.22678   0.75000   0.00000  Uiso   1.00
O813   O     0.87294   0.22679   0.75000   0.00000  Uiso   1.00
O814   O     0.77441   0.16665   0.82549   0.00000  Uiso   1.00
O815   O     0.85360   0.16666   0.82549   0.00000  Uiso   1.00
O816   O     0.79373   0.10654   0.74999   0.00000  Uiso   1.00
O817   O     0.87292   0.10655   0.74999   0.00000  Uiso   1.00
O818   O     0.81306   0.16667   0.67451   0.00000  Uiso   1.00
O819   O     0.89225   0.16668   0.67451   0.00000  Uiso   1.00
H820   H     0.94785   0.13711   0.58726   0.00000  Uiso   1.00
H821   H     0.75760   0.03734   0.74920   0.00000  Uiso   1.00
H822   H     0.72469   0.11606   0.69770   0.00000  Uiso   1.00
H823   H     0.97070   0.11591   0.69816   0.00000  Uiso   1.00
O824   O     0.95294   0.10904   0.90844   0.00000  Uiso   1.00
C825   C     0.95328   0.06652   0.89747   0.00000  Uiso   1.00
H826   H     0.92880   0.05907   0.87310   0.00000  Uiso   1.00
H827   H     0.94167   0.04849   0.93435   0.00000  Uiso   1.00
C828   C     0.67192   0.05364   0.86711   0.00000  Uiso   1.00
H829   H     0.69736   0.06009   0.89058   0.00000  Uiso   1.00
H830   H     0.67292   0.02019   0.85813   0.00000  Uiso   1.00
H831   H     0.68430   0.07096   0.82986   0.00000  Uiso   1.00
H832   H     0.96693   0.11691   0.99563   0.00000  Uiso   1.00
O833   O     0.74050   0.14705   0.56963   0.00000  Uiso   1.00
C834   C     0.72202   0.10632   0.57641   0.00000  Uiso   1.00
H835   H     0.70695   0.09548   0.54465   0.00000  Uiso   1.00
H836   H     0.69090   0.10565   0.61277   0.00000  Uiso   1.00
C837   C     0.76104   0.07627   0.58261   0.00000  Uiso   1.00
H838   H     0.77734   0.08757   0.61296   0.00000  Uiso   1.00
H839   H     0.74414   0.04571   0.59450   0.00000  Uiso   1.00
H840   H     0.79047   0.07262   0.54504   0.00000  Uiso   1.00
C841   C     0.16661   0.57933   0.75020   0.00000  Uiso   1.00
C842   C     0.14383   0.48317   0.99010   0.00000  Uiso   1.00
C843   C     0.15809   0.47896   0.93504   0.00000  Uiso   1.00
C844   C     0.18072   0.48093   0.51592   0.00000  Uiso   1.00
C845   C     0.22830   0.46596   0.98886   0.00000  Uiso   1.00
C846   C     0.23915   0.45439   0.93622   0.00000  Uiso   1.00
C847   C     0.20441   0.46127   0.90979   0.00000  Uiso   1.00
C848   C     0.17250   0.49585   0.56696   0.00000  Uiso   1.00
C849   C     0.25367   0.47472   0.56723   0.00000  Uiso   1.00
C850   C     0.12516   0.49207   0.90731   0.00000  Uiso   1.00
C851   C     0.20889   0.64539   0.75135   0.00000  Uiso   1.00
C852   C     0.14067   0.49713   0.85004   0.00000  Uiso   1.00
C853   C     0.20890   0.35463   0.75133   0.00000  Uiso   1.00
C854   C     0.16653   0.37609   0.75043   0.00000  Uiso   1.00
C855   C     0.12407   0.35465   0.74984   0.00000  Uiso   1.00
C856   C     0.12405   0.64541   0.74991   0.00000  Uiso   1.00
C857   C     0.16651   0.62395   0.75050   0.00000  Uiso   1.00
C858   C     0.30034   0.52786   0.77946   0.00000  Uiso   1.00
C859   C     0.01663   0.52780   0.77952   0.00000  Uiso   1.00
C860   C     0.03287   0.47192   0.72090   0.00000  Uiso   1.00
C861   C     0.31653   0.47187   0.72103   0.00000  Uiso   1.00
C862   C     0.16663   0.42068   0.75011   0.00000  Uiso   1.00
C863   C     0.19282   0.49877   0.64988   0.00000  Uiso   1.00
C864   C     0.26422   0.46272   0.51507   0.00000  Uiso   1.00
C865   C     0.20757   0.49119   0.59341   0.00000  Uiso   1.00
C866   C     0.07679   0.50270   0.93517   0.00000  Uiso   1.00
C867   C     0.06068   0.49984   0.98914   0.00000  Uiso   1.00
C868   C     0.09305   0.48854   0.51689   0.00000  Uiso   1.00
Cu869  Cu    0.11978   0.49999   0.75000   0.00000  Uiso   1.00
Cu870  Cu    0.21355   0.50001   0.75000   0.00000  Uiso   1.00
H871   H     0.24204   0.37064   0.75195   0.00000  Uiso   1.00
H872   H     0.09089   0.62941   0.74937   0.00000  Uiso   1.00
H873   H     0.27505   0.55014   0.80310   0.00000  Uiso   1.00
H874   H     0.02879   0.55003   0.80320   0.00000  Uiso   1.00
H875   H     0.13915   0.51213   0.58669   0.00000  Uiso   1.00
H876   H     0.05088   0.51261   0.91513   0.00000  Uiso   1.00
H877   H     0.02260   0.50608   0.50980   0.00000  Uiso   1.00
H878   H     0.21444   0.45150   0.86954   0.00000  Uiso   1.00
H879   H     0.24203   0.62937   0.75198   0.00000  Uiso   1.00
N880   N     0.04931   0.49999   0.74998   0.00000  Uiso   1.00
N881   N     0.28402   0.50002   0.74999   0.00000  Uiso   1.00
O882   O     0.12708   0.56011   0.75000   0.00000  Uiso   1.00
O883   O     0.20627   0.56012   0.75000   0.00000  Uiso   1.00
O884   O     0.10775   0.49998   0.82549   0.00000  Uiso   1.00
O885   O     0.18694   0.49999   0.82549   0.00000  Uiso   1.00
O886   O     0.12706   0.43988   0.74999   0.00000  Uiso   1.00
O887   O     0.20625   0.43989   0.74999   0.00000  Uiso   1.00
O888   O     0.14640   0.50001   0.67451   0.00000  Uiso   1.00
O889   O     0.22559   0.50002   0.67451   0.00000  Uiso   1.00
H890   H     0.28119   0.47044   0.58726   0.00000  Uiso   1.00
H891   H     0.09094   0.37068   0.74920   0.00000  Uiso   1.00
H892   H     0.05802   0.44939   0.69770   0.00000  Uiso   1.00
H893   H     0.30404   0.44924   0.69816   0.00000  Uiso   1.00
O894   O     0.28627   0.44238   0.90844   0.00000  Uiso   1.00
C895   C     0.28662   0.39985   0.89747   0.00000  Uiso   1.00
H896   H     0.26213   0.39241   0.87310   0.00000  Uiso   1.00
H897   H     0.27500   0.38183   0.93435   0.00000  Uiso   1.00
C898   C     0.00525   0.38697   0.86711   0.00000  Uiso   1.00
H899   H     0.03069   0.39342   0.89058   0.00000  Uiso   1.00
H900   H     0.00626   0.35352   0.85813   0.00000  Uiso   1.00
H901   H     0.01763   0.40429   0.82986   0.00000  Uiso   1.00
H902   H     0.30026   0.45024   0.99563   0.00000  Uiso   1.00
O903   O     0.07383   0.48038   0.56963   0.00000  Uiso   1.00
C904   C     0.05536   0.43965   0.57641   0.00000  Uiso   1.00
H905   H     0.04028   0.42881   0.54465   0.00000  Uiso   1.00
H906   H     0.02424   0.43898   0.61277   0.00000  Uiso   1.00
C907   C     0.09437   0.40960   0.58261   0.00000  Uiso   1.00
H908   H     0.11068   0.42090   0.61296   0.00000  Uiso   1.00
H909   H     0.07747   0.37904   0.59450   0.00000  Uiso   1.00
H910   H     0.12381   0.40595   0.54504   0.00000  Uiso   1.00
C911   C     0.49995   0.57933   0.75020   0.00000  Uiso   1.00
C912   C     0.47716   0.48317   0.99010   0.00000  Uiso   1.00
C913   C     0.49142   0.47896   0.93504   0.00000  Uiso   1.00
C914   C     0.51406   0.48093   0.51592   0.00000  Uiso   1.00
C915   C     0.56163   0.46596   0.98886   0.00000  Uiso   1.00
C916   C     0.57248   0.45439   0.93622   0.00000  Uiso   1.00
C917   C     0.53774   0.46127   0.90979   0.00000  Uiso   1.00
C918   C     0.50583   0.49585   0.56696   0.00000  Uiso   1.00
C919   C     0.58701   0.47472   0.56723   0.00000  Uiso   1.00
C920   C     0.45850   0.49207   0.90731   0.00000  Uiso   1.00
C921   C     0.54222   0.64539   0.75135   0.00000  Uiso   1.00
C922   C     0.47401   0.49713   0.85004   0.00000  Uiso   1.00
C923   C     0.54223   0.35463   0.75133   0.00000  Uiso   1.00
C924   C     0.49987   0.37609   0.75043   0.00000  Uiso   1.00
C925   C     0.45741   0.35465   0.74984   0.00000  Uiso   1.00
C926   C     0.45739   0.64541   0.74991   0.00000  Uiso   1.00
C927   C     0.49984   0.62395   0.75050   0.00000  Uiso   1.00
C928   C     0.63367   0.52786   0.77946   0.00000  Uiso   1.00
C929   C     0.34996   0.52780   0.77952   0.00000  Uiso   1.00
C930   C     0.36620   0.47192   0.72090   0.00000  Uiso   1.00
C931   C     0.64986   0.47187   0.72103   0.00000  Uiso   1.00
C932   C     0.49996   0.42068   0.75011   0.00000  Uiso   1.00
C933   C     0.52615   0.49877   0.64988   0.00000  Uiso   1.00
C934   C     0.59755   0.46272   0.51507   0.00000  Uiso   1.00
C935   C     0.54090   0.49119   0.59341   0.00000  Uiso   1.00
C936   C     0.41012   0.50270   0.93517   0.00000  Uiso   1.00
C937   C     0.39401   0.49984   0.98914   0.00000  Uiso   1.00
C938   C     0.42638   0.48854   0.51689   0.00000  Uiso   1.00
Cu939  Cu    0.45311   0.49999   0.75000   0.00000  Uiso   1.00
Cu940  Cu    0.54689   0.50001   0.75000   0.00000  Uiso   1.00
H941   H     0.57537   0.37064   0.75195   0.00000  Uiso   1.00
H942   H     0.42422   0.62941   0.74937   0.00000  Uiso   1.00
H943   H     0.60839   0.55014   0.80310   0.00000  Uiso   1.00
H944   H     0.36212   0.55003   0.80320   0.00000  Uiso   1.00
H945   H     0.47248   0.51213   0.58669   0.00000  Uiso   1.00
H946   H     0.38421   0.51261   0.91513   0.00000  Uiso   1.00
H947   H     0.35593   0.50608   0.50980   0.00000  Uiso   1.00
H948   H     0.54778   0.45150   0.86954   0.00000  Uiso   1.00
H949   H     0.57536   0.62937   0.75198   0.00000  Uiso   1.00
N950   N     0.38265   0.49999   0.74998   0.00000  Uiso   1.00
N951   N     0.61735   0.50002   0.74999   0.00000  Uiso   1.00
O952   O     0.46042   0.56011   0.75000   0.00000  Uiso   1.00
O953   O     0.53961   0.56012   0.75000   0.00000  Uiso   1.00
O954   O     0.44108   0.49998   0.82549   0.00000  Uiso   1.00
O955   O     0.52027   0.49999   0.82549   0.00000  Uiso   1.00
O956   O     0.46039   0.43988   0.74999   0.00000  Uiso   1.00
O957   O     0.53958   0.43989   0.74999   0.00000  Uiso   1.00
O958   O     0.47973   0.50001   0.67451   0.00000  Uiso   1.00
O959   O     0.55892   0.50002   0.67451   0.00000  Uiso   1.00
H960   H     0.61452   0.47044   0.58726   0.00000  Uiso   1.00
H961   H     0.42427   0.37068   0.74920   0.00000  Uiso   1.00
H962   H     0.39135   0.44939   0.69770   0.00000  Uiso   1.00
H963   H     0.63737   0.44924   0.69816   0.00000  Uiso   1.00
O964   O     0.61960   0.44238   0.90844   0.00000  Uiso   1.00
C965   C     0.61995   0.39985   0.89747   0.00000  Uiso   1.00
H966   H     0.59547   0.39241   0.87310   0.00000  Uiso   1.00
H967   H     0.60834   0.38183   0.93435   0.00000  Uiso   1.00
C968   C     0.33859   0.38697   0.86711   0.00000  Uiso   1.00
H969   H     0.36403   0.39342   0.89058   0.00000  Uiso   1.00
H970   H     0.33959   0.35352   0.85813   0.00000  Uiso   1.00
H971   H     0.35096   0.40429   0.82986   0.00000  Uiso   1.00
H972   H     0.63359   0.45024   0.99563   0.00000  Uiso   1.00
O973   O     0.40717   0.48038   0.56963   0.00000  Uiso   1.00
C974   C     0.38869   0.43965   0.57641   0.00000  Uiso   1.00
H975   H     0.37361   0.42881   0.54465   0.00000  Uiso   1.00
H976   H     0.35757   0.43898   0.61277   0.00000  Uiso   1.00
C977   C     0.42770   0.40960   0.58261   0.00000  Uiso   1.00
H978   H     0.44401   0.42090   0.61296   0.00000  Uiso   1.00
H979   H     0.41081   0.37904   0.59450   0.00000  Uiso   1.00
H980   H     0.45714   0.40595   0.54504   0.00000  Uiso   1.00
C981   C     0.83328   0.57933   0.75020   0.00000  Uiso   1.00
C982   C     0.81050   0.48317   0.99010   0.00000  Uiso   1.00
C983   C     0.82476   0.47896   0.93504   0.00000  Uiso   1.00
C984   C     0.84739   0.48093   0.51592   0.00000  Uiso   1.00
C985   C     0.89496   0.46596   0.98886   0.00000  Uiso   1.00
C986   C     0.90582   0.45439   0.93622   0.00000  Uiso   1.00
C987   C     0.87108   0.46127   0.90979   0.00000  Uiso   1.00
C988   C     0.83916   0.49585   0.56696   0.00000  Uiso   1.00
C989   C     0.92034   0.47472   0.56723   0.00000  Uiso   1.00
C990   C     0.79183   0.49207   0.90731   0.00000  Uiso   1.00
C991   C     0.87556   0.64539   0.75135   0.00000  Uiso   1.00
C992   C     0.80734   0.49713   0.85004   0.00000  Uiso   1.00
C993   C     0.87556   0.35463   0.75133   0.00000  Uiso   1.00
C994   C     0.83320   0.37609   0.75043   0.00000  Uiso   1.00
C995   C     0.79074   0.35465   0.74984   0.00000  Uiso   1.00
C996   C     0.79072   0.64541   0.74991   0.00000  Uiso   1.00
C997   C     0.83318   0.62395   0.75050   0.00000  Uiso   1.00
C998   C     0.96700   0.52786   0.77946   0.00000  Uiso   1.00
C999   C     0.68329   0.52780   0.77952   0.00000  Uiso   1.00
C1000  C     0.69954   0.47192   0.72090   0.00000  Uiso   1.00
C1001  C     0.98319   0.47187   0.72103   0.00000  Uiso   1.00
C1002  C     0.83329   0.42068   0.75011   0.00000  Uiso   1.00
C1003  C     0.85948   0.49877   0.64988   0.00000  Uiso   1.00
C1004  C     0.93089   0.46272   0.51507   0.00000  Uiso   1.00
C1005  C     0.87424   0.49119   0.59341   0.00000  Uiso   1.00
C1006  C     0.74345   0.50270   0.93517   0.00000  Uiso   1.00
C1007  C     0.72735   0.49984   0.98914   0.00000  Uiso   1.00
C1008  C     0.75971   0.48854   0.51689   0.00000  Uiso   1.00
Cu1009 Cu    0.78645   0.49999   0.75000   0.00000  Uiso   1.00
Cu1010 Cu    0.88022   0.50001   0.75000   0.00000  Uiso   1.00
H1011  H     0.90871   0.37064   0.75195   0.00000  Uiso   1.00
H1012  H     0.75755   0.62941   0.74937   0.00000  Uiso   1.00
H1013  H     0.94172   0.55014   0.80310   0.00000  Uiso   1.00
H1014  H     0.69545   0.55003   0.80320   0.00000  Uiso   1.00
H1015  H     0.80582   0.51213   0.58669   0.00000  Uiso   1.00
H1016  H     0.71755   0.51261   0.91513   0.00000  Uiso   1.00
H1017  H     0.68926   0.50608   0.50980   0.00000  Uiso   1.00
H1018  H     0.88111   0.45150   0.86954   0.00000  Uiso   1.00
H1019  H     0.90870   0.62937   0.75198   0.00000  Uiso   1.00
N1020  N     0.71598   0.49999   0.74998   0.00000  Uiso   1.00
N1021  N     0.95069   0.50002   0.74999   0.00000  Uiso   1.00
O1022  O     0.79375   0.56011   0.75000   0.00000  Uiso   1.00
O1023  O     0.87294   0.56012   0.75000   0.00000  Uiso   1.00
O1024  O     0.77441   0.49998   0.82549   0.00000  Uiso   1.00
O1025  O     0.85360   0.49999   0.82549   0.00000  Uiso   1.00
O1026  O     0.79373   0.43988   0.74999   0.00000  Uiso   1.00
O1027  O     0.87292   0.43989   0.74999   0.00000  Uiso   1.00
O1028  O     0.81306   0.50001   0.67451   0.00000  Uiso   1.00
O1029  O     0.89225   0.50002   0.67451   0.00000  Uiso   1.00
H1030  H     0.94785   0.47044   0.58726   0.00000  Uiso   1.00
H1031  H     0.75760   0.37068   0.74920   0.00000  Uiso   1.00
H1032  H     0.72469   0.44939   0.69770   0.00000  Uiso   1.00
H1033  H     0.97070   0.44924   0.69816   0.00000  Uiso   1.00
O1034  O     0.95294   0.44238   0.90844   0.00000  Uiso   1.00
C1035  C     0.95328   0.39985   0.89747   0.00000  Uiso   1.00
H1036  H     0.92880   0.39241   0.87310   0.00000  Uiso   1.00
H1037  H     0.94167   0.38183   0.93435   0.00000  Uiso   1.00
C1038  C     0.67192   0.38697   0.86711   0.00000  Uiso   1.00
H1039  H     0.69736   0.39342   0.89058   0.00000  Uiso   1.00
H1040  H     0.67292   0.35352   0.85813   0.00000  Uiso   1.00
H1041  H     0.68430   0.40429   0.82986   0.00000  Uiso   1.00
H1042  H     0.96693   0.45024   0.99563   0.00000  Uiso   1.00
O1043  O     0.74050   0.48038   0.56963   0.00000  Uiso   1.00
C1044  C     0.72202   0.43965   0.57641   0.00000  Uiso   1.00
H1045  H     0.70695   0.42881   0.54465   0.00000  Uiso   1.00
H1046  H     0.69090   0.43898   0.61277   0.00000  Uiso   1.00
C1047  C     0.76104   0.40960   0.58261   0.00000  Uiso   1.00
H1048  H     0.77734   0.42090   0.61296   0.00000  Uiso   1.00
H1049  H     0.74414   0.37904   0.59450   0.00000  Uiso   1.00
H1050  H     0.79047   0.40595   0.54504   0.00000  Uiso   1.00
C1051  C     0.16661   0.91266   0.75020   0.00000  Uiso   1.00
C1052  C     0.14383   0.81650   0.99010   0.00000  Uiso   1.00
C1053  C     0.15809   0.81229   0.93504   0.00000  Uiso   1.00
C1054  C     0.18072   0.81426   0.51592   0.00000  Uiso   1.00
C1055  C     0.22830   0.79929   0.98886   0.00000  Uiso   1.00
C1056  C     0.23915   0.78773   0.93622   0.00000  Uiso   1.00
C1057  C     0.20441   0.79461   0.90979   0.00000  Uiso   1.00
C1058  C     0.17250   0.82918   0.56696   0.00000  Uiso   1.00
C1059  C     0.25367   0.80806   0.56723   0.00000  Uiso   1.00
C1060  C     0.12516   0.82541   0.90731   0.00000  Uiso   1.00
C1061  C     0.20889   0.97873   0.75135   0.00000  Uiso   1.00
C1062  C     0.14067   0.83046   0.85004   0.00000  Uiso   1.00
C1063  C     0.20890   0.68796   0.75133   0.00000  Uiso   1.00
C1064  C     0.16653   0.70942   0.75043   0.00000  Uiso   1.00
C1065  C     0.12407   0.68799   0.74984   0.00000  Uiso   1.00
C1066  C     0.12405   0.97875   0.74991   0.00000  Uiso   1.00
C1067  C     0.16651   0.95728   0.75050   0.00000  Uiso   1.00
C1068  C     0.30034   0.86119   0.77946   0.00000  Uiso   1.00
C1069  C     0.01663   0.86113   0.77952   0.00000  Uiso   1.00
C1070  C     0.03287   0.80526   0.72090   0.00000  Uiso   1.00
C1071  C     0.31653   0.80521   0.72103   0.00000  Uiso   1.00
C1072  C     0.16663   0.75401   0.75011   0.00000  Uiso   1.00
C1073  C     0.19282   0.83210   0.64988   0.00000  Uiso   1.00
C1074  C     0.26422   0.79605   0.51507   0.00000  Uiso   1.00
C1075  C     0.20757   0.82452   0.59341   0.00000  Uiso   1.00
C1076  C     0.07679   0.83603   0.93517   0.00000  Uiso   1.00
C1077  C     0.06068   0.83317   0.98914   0.00000  Uiso   1.00
C1078  C     0.09305   0.82188   0.51689   0.00000  Uiso   1.00
Cu1079 Cu    0.11978   0.83333   0.75000   0.00000  Uiso   1.00
Cu1080 Cu    0.21355   0.83334   0.75000   0.00000  Uiso   1.00
H1081  H     0.24204   0.70398   0.75195   0.00000  Uiso   1.00
H1082  H     0.09089   0.96275   0.74937   0.00000  Uiso   1.00
H1083  H     0.27505   0.88347   0.80310   0.00000  Uiso   1.00
H1084  H     0.02879   0.88336   0.80320   0.00000  Uiso   1.00
H1085  H     0.13915   0.84546   0.58669   0.00000  Uiso   1.00
H1086  H     0.05088   0.84594   0.91513   0.00000  Uiso   1.00
H1087  H     0.02260   0.83942   0.50980   0.00000  Uiso   1.00
H1088  H     0.21444   0.78484   0.86954   0.00000  Uiso   1.00
H1089  H     0.24203   0.96271   0.75198   0.00000  Uiso   1.00
N1090  N     0.04931   0.83332   0.74998   0.00000  Uiso   1.00
N1091  N     0.28402   0.83335   0.74999   0.00000  Uiso   1.00
O1092  O     0.12708   0.89345   0.75000   0.00000  Uiso   1.00
O1093  O     0.20627   0.89346   0.75000   0.00000  Uiso   1.00
O1094  O     0.10775   0.83332   0.82549   0.00000  Uiso   1.00
O1095  O     0.18694   0.83333   0.82549   0.00000  Uiso   1.00
O1096  O     0.12706   0.77321   0.74999   0.00000  Uiso   1.00
O1097  O     0.20625   0.77322   0.74999   0.00000  Uiso   1.00
O1098  O     0.14640   0.83334   0.67451   0.00000  Uiso   1.00
O1099  O     0.22559   0.83335   0.67451   0.00000  Uiso   1.00
H1100  H     0.28119   0.80378   0.58726   0.00000  Uiso   1.00
H1101  H     0.09094   0.70401   0.74920   0.00000  Uiso   1.00
H1102  H     0.05802   0.78273   0.69770   0.00000  Uiso   1.00
H1103  H     0.30404   0.78257   0.69816   0.00000  Uiso   1.00
O1104  O     0.28627   0.77571   0.90844   0.00000  Uiso   1.00
C1105  C     0.28662   0.73318   0.89747   0.00000  Uiso   1.00
H1106  H     0.26213   0.72574   0.87310   0.00000  Uiso   1.00
H1107  H     0.27500   0.71516   0.93435   0.00000  Uiso   1.00
C1108  C     0.00525   0.72031   0.86711   0.00000  Uiso   1.00
H1109  H     0.03069   0.72676   0.89058   0.00000  Uiso   1.00
H1110  H     0.00626   0.68686   0.85813   0.00000  Uiso   1.00
H1111  H     0.01763   0.73762   0.82986   0.00000  Uiso   1.00
H1112  H     0.30026   0.78358   0.99563   0.00000  Uiso   1.00
O1113  O     0.07383   0.81371   0.56963   0.00000  Uiso   1.00
C1114  C     0.05536   0.77299   0.57641   0.00000  Uiso   1.00
H1115  H     0.04028   0.76215   0.54465   0.00000  Uiso   1.00
H1116  H     0.02424   0.77232   0.61277   0.00000  Uiso   1.00
C1117  C     0.09437   0.74293   0.58261   0.00000  Uiso   1.00
H1118  H     0.11068   0.75423   0.61296   0.00000  Uiso   1.00
H1119  H     0.07747   0.71237   0.59450   0.00000  Uiso   1.00
H1120  H     0.12381   0.73929   0.54504   0.00000  Uiso   1.00
C1121  C     0.49995   0.91266   0.75020   0.00000  Uiso   1.00
C1122  C     0.47716   0.81650   0.99010   0.00000  Uiso   1.00
C1123  C     0.49142   0.81229   0.93504   0.00000  Uiso   1.00
C1124  C     0.51406   0.81426   0.51592   0.00000  Uiso   1.00
C1125  C     0.56163   0.79929   0.98886   0.00000  Uiso   1.00
C1126  C     0.57248   0.78773   0.93622   0.00000  Uiso   1.00
C1127  C     0.53774   0.79461   0.90979   0.00000  Uiso   1.00
C1128  C     0.50583   0.82918   0.56696   0.00000  Uiso   1.00
C1129  C     0.58701   0.80806   0.56723   0.00000  Uiso   1.00
C1130  C     0.45850   0.82541   0.90731   0.00000  Uiso   1.00
C1131  C     0.54222   0.97873   0.75135   0.00000  Uiso   1.00
C1132  C     0.47401   0.83046   0.85004   0.00000  Uiso   1.00
C1133  C     0.54223   0.68796   0.75133   0.00000  Uiso   1.00
C1134  C     0.49987   0.70942   0.75043   0.00000  Uiso   1.00
C1135  C     0.45741   0.68799   0.74984   0.00000  Uiso   1.00
C1136  C     0.45739   0.97875   0.74991   0.00000  Uiso   1.00
C1137  C     0.49984   0.95728   0.75050   0.00000  Uiso   1.00
C1138  C     0.63367   0.86119   0.77946   0.00000  Uiso   1.00
C1139  C     0.34996   0.86113   0.77952   0.00000  Uiso   1.00
C1140  C     0.36620   0.80526   0.72090   0.00000  Uiso   1.00
C1141  C     0.64986   0.80521   0.72103   0.00000  Uiso   1.00
C1142  C     0.49996   0.75401   0.75011   0.00000  Uiso   1.00
C1143  C     0.52615   0.83210   0.64988   0.00000  Uiso   1.00
C1144  C     0.59755   0.79605   0.51507   0.00000  Uiso   1.00
C1145  C     0.54090   0.82452   0.59341   0.00000  Uiso   1.00
C1146  C     0.41012   0.83603   0.93517   0.00000  Uiso   1.00
C1147  C     0.39401   0.83317   0.98914   0.00000  Uiso   1.00
C1148  C     0.42638   0.82188   0.51689   0.00000  Uiso   1.00
Cu1149 Cu    0.45311   0.83333   0.75000   0.00000  Uiso   1.00
Cu1150 Cu    0.54689   0.83334   0.75000   0.00000  Uiso   1.00
H1151  H     0.57537   0.70398   0.75195   0.00000  Uiso   1.00
H1152  H     0.42422   0.96275   0.74937   0.00000  Uiso   1.00
H1153  H     0.60839   0.88347   0.80310   0.00000  Uiso   1.00
H1154  H     0.36212   0.88336   0.80320   0.00000  Uiso   1.00
H1155  H     0.47248   0.84546   0.58669   0.00000  Uiso   1.00
H1156  H     0.38421   0.84594   0.91513   0.00000  Uiso   1.00
H1157  H     0.35593   0.83942   0.50980   0.00000  Uiso   1.00
H1158  H     0.54778   0.78484   0.86954   0.00000  Uiso   1.00
H1159  H     0.57536   0.96271   0.75198   0.00000  Uiso   1.00
N1160  N     0.38265   0.83332   0.74998   0.00000  Uiso   1.00
N1161  N     0.61735   0.83335   0.74999   0.00000  Uiso   1.00
O1162  O     0.46042   0.89345   0.75000   0.00000  Uiso   1.00
O1163  O     0.53961   0.89346   0.75000   0.00000  Uiso   1.00
O1164  O     0.44108   0.83332   0.82549   0.00000  Uiso   1.00
O1165  O     0.52027   0.83333   0.82549   0.00000  Uiso   1.00
O1166  O     0.46039   0.77321   0.74999   0.00000  Uiso   1.00
O1167  O     0.53958   0.77322   0.74999   0.00000  Uiso   1.00
O1168  O     0.47973   0.83334   0.67451   0.00000  Uiso   1.00
O1169  O     0.55892   0.83335   0.67451   0.00000  Uiso   1.00
H1170  H     0.61452   0.80378   0.58726   0.00000  Uiso   1.00
H1171  H     0.42427   0.70401   0.74920   0.00000  Uiso   1.00
H1172  H     0.39135   0.78273   0.69770   0.00000  Uiso   1.00
H1173  H     0.63737   0.78257   0.69816   0.00000  Uiso   1.00
O1174  O     0.61960   0.77571   0.90844   0.00000  Uiso   1.00
C1175  C     0.61995   0.73318   0.89747   0.00000  Uiso   1.00
H1176  H     0.59547   0.72574   0.87310   0.00000  Uiso   1.00
H1177  H     0.60834   0.71516   0.93435   0.00000  Uiso   1.00
C1178  C     0.33859   0.72031   0.86711   0.00000  Uiso   1.00
H1179  H     0.36403   0.72676   0.89058   0.00000  Uiso   1.00
H1180  H     0.33959   0.68686   0.85813   0.00000  Uiso   1.00
H1181  H     0.35096   0.73762   0.82986   0.00000  Uiso   1.00
H1182  H     0.63359   0.78358   0.99563   0.00000  Uiso   1.00
O1183  O     0.40717   0.81371   0.56963   0.00000  Uiso   1.00
C1184  C     0.38869   0.77299   0.57641   0.00000  Uiso   1.00
H1185  H     0.37361   0.76215   0.54465   0.00000  Uiso   1.00
H1186  H     0.35757   0.77232   0.61277   0.00000  Uiso   1.00
C1187  C     0.42770   0.74293   0.58261   0.00000  Uiso   1.00
H1188  H     0.44401   0.75423   0.61296   0.00000  Uiso   1.00
H1189  H     0.41081   0.71237   0.59450   0.00000  Uiso   1.00
H1190  H     0.45714   0.73929   0.54504   0.00000  Uiso   1.00
C1191  C     0.83328   0.91266   0.75020   0.00000  Uiso   1.00
C1192  C     0.81050   0.81650   0.99010   0.00000  Uiso   1.00
C1193  C     0.82476   0.81229   0.93504   0.00000  Uiso   1.00
C1194  C     0.84739   0.81426   0.51592   0.00000  Uiso   1.00
C1195  C     0.89496   0.79929   0.98886   0.00000  Uiso   1.00
C1196  C     0.90582   0.78773   0.93622   0.00000  Uiso   1.00
C1197  C     0.87108   0.79461   0.90979   0.00000  Uiso   1.00
C1198  C     0.83916   0.82918   0.56696   0.00000  Uiso   1.00
C1199  C     0.92034   0.80806   0.56723   0.00000  Uiso   1.00
C1200  C     0.79183   0.82541   0.90731   0.00000  Uiso   1.00
C1201  C     0.87556   0.97873   0.75135   0.00000  Uiso   1.00
C1202  C     0.80734   0.83046   0.85004   0.00000  Uiso   1.00
C1203  C     0.87556   0.68796   0.75133   0.00000  Uiso   1.00
C1204  C     0.83320   0.70942   0.75043   0.00000  Uiso   1.00
C1205  C     0.79074   0.68799   0.74984   0.00000  Uiso   1.00
C1206  C     0.79072   0.97875   0.74991   0.00000  Uiso   1.00
C1207  C     0.83318   0.95728   0.75050   0.00000  Uiso   1.00
C1208  C     0.96700   0.86119   0.77946   0.00000  Uiso   1.00
C1209  C     0.68329   0.86113   0.77952   0.00000  Uiso   1.00
C1210  C     0.69954   0.80526   0.72090   0.00000  Uiso   1.00
C1211  C     0.98319   0.80521   0.72103   0.00000  Uiso   1.00
C1212  C     0.83329   0.75401   0.75011   0.00000  Uiso   1.00
C1213  C     0.85948   0.83210   0.64988   0.00000  Uiso   1.00
C1214  C     0.93089   0.79605   0.51507   0.00000  Uiso   1.00
C1215  C     0.87424   0.82452   0.59341   0.00000  Uiso   1.00
C1216  C     0.74345   0.83603   0.93517   0.00000  Uiso   1.00
C1217  C     0.72735   0.83317   0.98914   0.00000  Uiso   1.00
C1218  C     0.75971   0.82188   0.51689   0.00000  Uiso   1.00
Cu1219 Cu    0.78645   0.83333   0.75000   0.00000  Uiso   1.00
Cu1220 Cu    0.88022   0.83334   0.75000   0.00000  Uiso   1.00
H1221  H     0.90871   0.70398   0.75195   0.00000  Uiso   1.00
H1222  H     0.75755   0.96275   0.74937   0.00000  Uiso   1.00
H1223  H     0.94172   0.88347   0.80310   0.00000  Uiso   1.00
H1224  H     0.69545   0.88336   0.80320   0.00000  Uiso   1.00
H1225  H     0.80582   0.84546   0.58669   0.00000  Uiso   1.00
H1226  H     0.71755   0.84594   0.91513   0.00000  Uiso   1.00
H1227  H     0.68926   0.83942   0.50980   0.00000  Uiso   1.00
H1228  H     0.88111   0.78484   0.86954   0.00000  Uiso   1.00
H1229  H     0.90870   0.96271   0.75198   0.00000  Uiso   1.00
N1230  N     0.71598   0.83332   0.74998   0.00000  Uiso   1.00
N1231  N     0.95069   0.83335   0.74999   0.00000  Uiso   1.00
O1232  O     0.79375   0.89345   0.75000   0.00000  Uiso   1.00
O1233  O     0.87294   0.89346   0.75000   0.00000  Uiso   1.00
O1234  O     0.77441   0.83332   0.82549   0.00000  Uiso   1.00
O1235  O     0.85360   0.83333   0.82549   0.00000  Uiso   1.00
O1236  O     0.79373   0.77321   0.74999   0.00000  Uiso   1.00
O1237  O     0.87292   0.77322   0.74999   0.00000  Uiso   1.00
O1238  O     0.81306   0.83334   0.67451   0.00000  Uiso   1.00
O1239  O     0.89225   0.83335   0.67451   0.00000  Uiso   1.00
H1240  H     0.94785   0.80378   0.58726   0.00000  Uiso   1.00
H1241  H     0.75760   0.70401   0.74920   0.00000  Uiso   1.00
H1242  H     0.72469   0.78273   0.69770   0.00000  Uiso   1.00
H1243  H     0.97070   0.78257   0.69816   0.00000  Uiso   1.00
O1244  O     0.95294   0.77571   0.90844   0.00000  Uiso   1.00
C1245  C     0.95328   0.73318   0.89747   0.00000  Uiso   1.00
H1246  H     0.92880   0.72574   0.87310   0.00000  Uiso   1.00
H1247  H     0.94167   0.71516   0.93435   0.00000  Uiso   1.00
C1248  C     0.67192   0.72031   0.86711   0.00000  Uiso   1.00
H1249  H     0.69736   0.72676   0.89058   0.00000  Uiso   1.00
H1250  H     0.67292   0.68686   0.85813   0.00000  Uiso   1.00
H1251  H     0.68430   0.73762   0.82986   0.00000  Uiso   1.00
H1252  H     0.96693   0.78358   0.99563   0.00000  Uiso   1.00
O1253  O     0.74050   0.81371   0.56963   0.00000  Uiso   1.00
C1254  C     0.72202   0.77299   0.57641   0.00000  Uiso   1.00
H1255  H     0.70695   0.76215   0.54465   0.00000  Uiso   1.00
H1256  H     0.69090   0.77232   0.61277   0.00000  Uiso   1.00
C1257  C     0.76104   0.74293   0.58261   0.00000  Uiso   1.00
H1258  H     0.77734   0.75423   0.61296   0.00000  Uiso   1.00
H1259  H     0.74414   0.71237   0.59450   0.00000  Uiso   1.00
H1260  H     0.79047   0.73929   0.54504   0.00000  Uiso   1.00
loop_
_geom_bond_atom_site_label_1
_geom_bond_atom_site_label_2
_geom_bond_distance
_geom_bond_site_symmetry_2
_ccdc_geom_bond_type
C1     O42     1.290   .     A
C1     C17     1.450   .     S
C1     O43     1.290   .     A
C2     C3      1.416   .     A
C2     C634    1.422   .     S
C2     C658    1.424   .     S
C3     C10     1.425   .     A
C3     C7      1.414   .     A
C4     C8      1.401   .     A
C4     C632    1.422   1_554 S
C4     C635    1.420   1_554 S
C5     C6      1.401   .     A
C5     C634    1.420   .     S
C5     C654    1.407   .     S
C6     C7      1.396   .     A
C6     O54     1.385   .     S
C7     H38     1.077   .     S
C8     C25     1.395   .     A
C8     H35     1.079   .     S
C9     C25     1.399   .     A
C9     C24     1.393   .     A
C9     H50     1.083   .     S
C10    C26     1.403   .     A
C10    C12     1.476   .     S
C11    H39     1.083   .     S
C11    C17     1.401   .     A
C11    C223    1.383   .     S
C12    O45     1.292   .     A
C12    O44     1.300   .     A
C13    C14     1.401   .     A
C13    H31     1.083   .     S
C13    C431    1.383   1_545 S
C14    C22     1.449   .     S
C14    C15     1.401   .     A
C15    H51     1.083   .     S
C15    C436    1.383   1_545 S
C16    H32     1.083   .     S
C16    C17     1.401   .     A
C16    C225    1.383   .     S
C18    H33     1.082   .     S
C18    N41     1.367   .     A
C18    C89     1.416   .     S
C19    N40     1.367   .     A
C19    H34     1.082   .     S
C19    C158    1.416   1_455 S
C20    N40     1.367   .     A
C20    H52     1.081   .     S
C20    C161    1.416   1_455 S
C21    H53     1.081   .     S
C21    N41     1.365   .     A
C21    C90     1.416   .     S
C22    O47     1.290   .     A
C22    O46     1.290   .     A
C23    C25     1.465   .     S
C23    O49     1.294   .     A
C23    O48     1.293   .     A
C24    C635    1.407   1_554 S
C24    H692    1.083   1_554 S
C26    C27     1.386   .     A
C26    H36     1.083   .     S
C27    C658    1.396   .     S
C27    H667    1.082   .     S
C28    O63     1.383   .     S
C28    C657    1.396   1_554 S
C28    C632    1.424   1_554 S
Cu29   O42     1.965   .     S
Cu29   O46     1.964   .     S
Cu29   Cu30    2.674   .     S
Cu29   N40     2.010   .     S
Cu29   O44     1.949   .     S
Cu29   O48     1.939   .     S
Cu30   N41     2.009   .     S
Cu30   O45     1.939   .     S
Cu30   O49     1.949   .     S
Cu30   O43     1.964   .     S
Cu30   O47     1.965   .     S
H37    C657    1.082   1_554 S
O54    C55     1.411   .     S
C55    H56     1.114   .     S
C55    H57     1.114   .     S
C55    C128    1.522   .     S
C58    H61     1.111   .     S
C58    H60     1.111   .     S
C58    H59     1.111   .     S
C58    C195    1.522   1_455 S
H62    C654    1.083   .     S
O63    C64     1.417   .     S
C64    H65     1.117   .     S
C64    C67     1.526   .     S
C64    H66     1.107   .     S
C67    H70     1.110   .     S
C67    H68     1.110   .     S
C67    H69     1.110   .     S
C71    O112    1.290   .     A
C71    C87     1.450   .     S
C71    O113    1.290   .     A
C72    C73     1.416   .     A
C72    C704    1.422   .     S
C72    C728    1.424   .     S
C73    C80     1.425   .     A
C73    C77     1.414   .     A
C74    C78     1.401   .     A
C74    C702    1.422   1_554 S
C74    C705    1.420   1_554 S
C75    C76     1.401   .     A
C75    C704    1.420   .     S
C75    C724    1.407   .     S
C76    C77     1.396   .     A
C76    O124    1.385   .     S
C77    H108    1.077   .     S
C78    C95     1.395   .     A
C78    H105    1.079   .     S
C79    C95     1.399   .     A
C79    C94     1.393   .     A
C79    H120    1.083   .     S
C80    C96     1.403   .     A
C80    C82     1.476   .     S
C81    H109    1.083   .     S
C81    C87     1.401   .     A
C81    C293    1.383   .     S
C82    O115    1.292   .     A
C82    O114    1.300   .     A
C83    C84     1.401   .     A
C83    H101    1.083   .     S
C83    C501    1.383   1_545 S
C84    C92     1.449   .     S
C84    C85     1.401   .     A
C85    H121    1.083   .     S
C85    C506    1.383   1_545 S
C86    H102    1.083   .     S
C86    C87     1.401   .     A
C86    C295    1.383   .     S
C88    H103    1.082   .     S
C88    N111    1.367   .     A
C88    C159    1.416   .     S
C89    N110    1.367   .     A
C89    H104    1.082   .     S
C90    N110    1.367   .     A
C90    H122    1.081   .     S
C91    H123    1.081   .     S
C91    N111    1.365   .     A
C91    C160    1.416   .     S
C92    O117    1.290   .     A
C92    O116    1.290   .     A
C93    C95     1.465   .     S
C93    O119    1.294   .     A
C93    O118    1.293   .     A
C94    C705    1.407   1_554 S
C94    H762    1.083   1_554 S
C96    C97     1.386   .     A
C96    H106    1.083   .     S
C97    C728    1.396   .     S
C97    H737    1.082   .     S
C98    O133    1.383   .     S
C98    C727    1.396   1_554 S
C98    C702    1.424   1_554 S
Cu99   O112    1.965   .     S
Cu99   O116    1.964   .     S
Cu99   Cu100   2.674   .     S
Cu99   N110    2.010   .     S
Cu99   O114    1.949   .     S
Cu99   O118    1.939   .     S
Cu100  N111    2.009   .     S
Cu100  O115    1.939   .     S
Cu100  O119    1.949   .     S
Cu100  O113    1.964   .     S
Cu100  O117    1.965   .     S
H107   C727    1.082   1_554 S
O124   C125    1.411   .     S
C125   H126    1.114   .     S
C125   H127    1.114   .     S
C125   C198    1.522   .     S
C128   H131    1.111   .     S
C128   H130    1.111   .     S
C128   H129    1.111   .     S
H132   C724    1.083   .     S
O133   C134    1.417   .     S
C134   H135    1.117   .     S
C134   C137    1.526   .     S
C134   H136    1.107   .     S
C137   H140    1.110   .     S
C137   H138    1.110   .     S
C137   H139    1.110   .     S
C141   O182    1.290   .     A
C141   C157    1.450   .     S
C141   O183    1.290   .     A
C142   C143    1.416   .     A
C142   C774    1.422   .     S
C142   C798    1.424   .     S
C143   C150    1.425   .     A
C143   C147    1.414   .     A
C144   C148    1.401   .     A
C144   C772    1.422   1_554 S
C144   C775    1.420   1_554 S
C145   C146    1.401   .     A
C145   C774    1.420   .     S
C145   C794    1.407   .     S
C146   C147    1.396   .     A
C146   O194    1.385   .     S
C147   H178    1.077   .     S
C148   C165    1.395   .     A
C148   H175    1.079   .     S
C149   C165    1.399   .     A
C149   C164    1.393   .     A
C149   H190    1.083   .     S
C150   C166    1.403   .     A
C150   C152    1.476   .     S
C151   H179    1.083   .     S
C151   C157    1.401   .     A
C151   C363    1.383   .     S
C152   O185    1.292   .     A
C152   O184    1.300   .     A
C153   C154    1.401   .     A
C153   H171    1.083   .     S
C153   C571    1.383   1_545 S
C154   C162    1.449   .     S
C154   C155    1.401   .     A
C155   H191    1.083   .     S
C155   C576    1.383   1_545 S
C156   H172    1.083   .     S
C156   C157    1.401   .     A
C156   C365    1.383   .     S
C158   H173    1.082   .     S
C158   N181    1.367   .     A
C158   C19     1.416   1_655 S
C159   N180    1.367   .     A
C159   H174    1.082   .     S
C160   N180    1.367   .     A
C160   H192    1.081   .     S
C161   H193    1.081   .     S
C161   N181    1.365   .     A
C161   C20     1.416   1_655 S
C162   O187    1.290   .     A
C162   O186    1.290   .     A
C163   C165    1.465   .     S
C163   O189    1.294   .     A
C163   O188    1.293   .     A
C164   C775    1.407   1_554 S
C164   H832    1.083   1_554 S
C166   C167    1.386   .     A
C166   H176    1.083   .     S
C167   C798    1.396   .     S
C167   H807    1.082   .     S
C168   O203    1.383   .     S
C168   C797    1.396   1_554 S
C168   C772    1.424   1_554 S
Cu169  O182    1.965   .     S
Cu169  O186    1.964   .     S
Cu169  Cu170   2.674   .     S
Cu169  N180    2.010   .     S
Cu169  O184    1.949   .     S
Cu169  O188    1.939   .     S
Cu170  N181    2.009   .     S
Cu170  O185    1.939   .     S
Cu170  O189    1.949   .     S
Cu170  O183    1.964   .     S
Cu170  O187    1.965   .     S
H177   C797    1.082   1_554 S
O194   C195    1.411   .     S
C195   H196    1.114   .     S
C195   H197    1.114   .     S
C195   C58     1.522   1_655 S
C198   H201    1.111   .     S
C198   H200    1.111   .     S
C198   H199    1.111   .     S
H202   C794    1.083   .     S
O203   C204    1.417   .     S
C204   H205    1.117   .     S
C204   C207    1.526   .     S
C204   H206    1.107   .     S
C207   H210    1.110   .     S
C207   H208    1.110   .     S
C207   H209    1.110   .     S
C211   O252    1.290   .     A
C211   C227    1.450   .     S
C211   O253    1.290   .     A
C212   C213    1.416   .     A
C212   C844    1.422   .     S
C212   C868    1.424   .     S
C213   C220    1.425   .     A
C213   C217    1.414   .     A
C214   C218    1.401   .     A
C214   C842    1.422   1_554 S
C214   C845    1.420   1_554 S
C215   C216    1.401   .     A
C215   C844    1.420   .     S
C215   C864    1.407   .     S
C216   C217    1.396   .     A
C216   O264    1.385   .     S
C217   H248    1.077   .     S
C218   C235    1.395   .     A
C218   H245    1.079   .     S
C219   C235    1.399   .     A
C219   C234    1.393   .     A
C219   H260    1.083   .     S
C220   C236    1.403   .     A
C220   C222    1.476   .     S
C221   H249    1.083   .     S
C221   C227    1.401   .     A
C221   C433    1.383   .     S
C222   O255    1.292   .     A
C222   O254    1.300   .     A
C223   C224    1.401   .     A
C223   H241    1.083   .     S
C224   C232    1.449   .     S
C224   C225    1.401   .     A
C225   H261    1.083   .     S
C226   H242    1.083   .     S
C226   C227    1.401   .     A
C226   C435    1.383   .     S
C228   H243    1.082   .     S
C228   N251    1.367   .     A
C228   C299    1.416   .     S
C229   N250    1.367   .     A
C229   H244    1.082   .     S
C229   C368    1.416   1_455 S
C230   N250    1.367   .     A
C230   H262    1.081   .     S
C230   C371    1.416   1_455 S
C231   H263    1.081   .     S
C231   N251    1.365   .     A
C231   C300    1.416   .     S
C232   O257    1.290   .     A
C232   O256    1.290   .     A
C233   C235    1.465   .     S
C233   O259    1.294   .     A
C233   O258    1.293   .     A
C234   C845    1.407   1_554 S
C234   H902    1.083   1_554 S
C236   C237    1.386   .     A
C236   H246    1.083   .     S
C237   C868    1.396   .     S
C237   H877    1.082   .     S
C238   O273    1.383   .     S
C238   C867    1.396   1_554 S
C238   C842    1.424   1_554 S
Cu239  O252    1.965   .     S
Cu239  O256    1.964   .     S
Cu239  Cu240   2.674   .     S
Cu239  N250    2.010   .     S
Cu239  O254    1.949   .     S
Cu239  O258    1.939   .     S
Cu240  N251    2.009   .     S
Cu240  O255    1.939   .     S
Cu240  O259    1.949   .     S
Cu240  O253    1.964   .     S
Cu240  O257    1.965   .     S
H247   C867    1.082   1_554 S
O264   C265    1.411   .     S
C265   H266    1.114   .     S
C265   H267    1.114   .     S
C265   C338    1.522   .     S
C268   H271    1.111   .     S
C268   H270    1.111   .     S
C268   H269    1.111   .     S
C268   C405    1.522   1_455 S
H272   C864    1.083   .     S
O273   C274    1.417   .     S
C274   H275    1.117   .     S
C274   C277    1.526   .     S
C274   H276    1.107   .     S
C277   H280    1.110   .     S
C277   H278    1.110   .     S
C277   H279    1.110   .     S
C281   O322    1.290   .     A
C281   C297    1.450   .     S
C281   O323    1.290   .     A
C282   C283    1.416   .     A
C282   C914    1.422   .     S
C282   C938    1.424   .     S
C283   C290    1.425   .     A
C283   C287    1.414   .     A
C284   C288    1.401   .     A
C284   C912    1.422   1_554 S
C284   C915    1.420   1_554 S
C285   C286    1.401   .     A
C285   C914    1.420   .     S
C285   C934    1.407   .     S
C286   C287    1.396   .     A
C286   O334    1.385   .     S
C287   H318    1.077   .     S
C288   C305    1.395   .     A
C288   H315    1.079   .     S
C289   C305    1.399   .     A
C289   C304    1.393   .     A
C289   H330    1.083   .     S
C290   C306    1.403   .     A
C290   C292    1.476   .     S
C291   H319    1.083   .     S
C291   C297    1.401   .     A
C291   C503    1.383   .     S
C292   O325    1.292   .     A
C292   O324    1.300   .     A
C293   C294    1.401   .     A
C293   H311    1.083   .     S
C294   C302    1.449   .     S
C294   C295    1.401   .     A
C295   H331    1.083   .     S
C296   H312    1.083   .     S
C296   C297    1.401   .     A
C296   C505    1.383   .     S
C298   H313    1.082   .     S
C298   N321    1.367   .     A
C298   C369    1.416   .     S
C299   N320    1.367   .     A
C299   H314    1.082   .     S
C300   N320    1.367   .     A
C300   H332    1.081   .     S
C301   H333    1.081   .     S
C301   N321    1.365   .     A
C301   C370    1.416   .     S
C302   O327    1.290   .     A
C302   O326    1.290   .     A
C303   C305    1.465   .     S
C303   O329    1.294   .     A
C303   O328    1.293   .     A
C304   C915    1.407   1_554 S
C304   H972    1.083   1_554 S
C306   C307    1.386   .     A
C306   H316    1.083   .     S
C307   C938    1.396   .     S
C307   H947    1.082   .     S
C308   O343    1.383   .     S
C308   C937    1.396   1_554 S
C308   C912    1.424   1_554 S
Cu309  O322    1.965   .     S
Cu309  O326    1.964   .     S
Cu309  Cu310   2.674   .     S
Cu309  N320    2.010   .     S
Cu309  O324    1.949   .     S
Cu309  O328    1.939   .     S
Cu310  N321    2.009   .     S
Cu310  O325    1.939   .     S
Cu310  O329    1.949   .     S
Cu310  O323    1.964   .     S
Cu310  O327    1.965   .     S
H317   C937    1.082   1_554 S
O334   C335    1.411   .     S
C335   H336    1.114   .     S
C335   H337    1.114   .     S
C335   C408    1.522   .     S
C338   H341    1.111   .     S
C338   H340    1.111   .     S
C338   H339    1.111   .     S
H342   C934    1.083   .     S
O343   C344    1.417   .     S
C344   H345    1.117   .     S
C344   C347    1.526   .     S
C344   H346    1.107   .     S
C347   H350    1.110   .     S
C347   H348    1.110   .     S
C347   H349    1.110   .     S
C351   O392    1.290   .     A
C351   C367    1.450   .     S
C351   O393    1.290   .     A
C352   C353    1.416   .     A
C352   C984    1.422   .     S
C352   C1008   1.424   .     S
C353   C360    1.425   .     A
C353   C357    1.414   .     A
C354   C358    1.401   .     A
C354   C982    1.422   1_554 S
C354   C985    1.420   1_554 S
C355   C356    1.401   .     A
C355   C984    1.420   .     S
C355   C1004   1.407   .     S
C356   C357    1.396   .     A
C356   O404    1.385   .     S
C357   H388    1.077   .     S
C358   C375    1.395   .     A
C358   H385    1.079   .     S
C359   C375    1.399   .     A
C359   C374    1.393   .     A
C359   H400    1.083   .     S
C360   C376    1.403   .     A
C360   C362    1.476   .     S
C361   H389    1.083   .     S
C361   C367    1.401   .     A
C361   C573    1.383   .     S
C362   O395    1.292   .     A
C362   O394    1.300   .     A
C363   C364    1.401   .     A
C363   H381    1.083   .     S
C364   C372    1.449   .     S
C364   C365    1.401   .     A
C365   H401    1.083   .     S
C366   H382    1.083   .     S
C366   C367    1.401   .     A
C366   C575    1.383   .     S
C368   H383    1.082   .     S
C368   N391    1.367   .     A
C368   C229    1.416   1_655 S
C369   N390    1.367   .     A
C369   H384    1.082   .     S
C370   N390    1.367   .     A
C370   H402    1.081   .     S
C371   H403    1.081   .     S
C371   N391    1.365   .     A
C371   C230    1.416   1_655 S
C372   O397    1.290   .     A
C372   O396    1.290   .     A
C373   C375    1.465   .     S
C373   O399    1.294   .     A
C373   O398    1.293   .     A
C374   C985    1.407   1_554 S
C374   H1042   1.083   1_554 S
C376   C377    1.386   .     A
C376   H386    1.083   .     S
C377   C1008   1.396   .     S
C377   H1017   1.082   .     S
C378   O413    1.383   .     S
C378   C1007   1.396   1_554 S
C378   C982    1.424   1_554 S
Cu379  O392    1.965   .     S
Cu379  O396    1.964   .     S
Cu379  Cu380   2.674   .     S
Cu379  N390    2.010   .     S
Cu379  O394    1.949   .     S
Cu379  O398    1.939   .     S
Cu380  N391    2.009   .     S
Cu380  O395    1.939   .     S
Cu380  O399    1.949   .     S
Cu380  O393    1.964   .     S
Cu380  O397    1.965   .     S
H387   C1007   1.082   1_554 S
O404   C405    1.411   .     S
C405   H406    1.114   .     S
C405   H407    1.114   .     S
C405   C268    1.522   1_655 S
C408   H411    1.111   .     S
C408   H410    1.111   .     S
C408   H409    1.111   .     S
H412   C1004   1.083   .     S
O413   C414    1.417   .     S
C414   H415    1.117   .     S
C414   C417    1.526   .     S
C414   H416    1.107   .     S
C417   H420    1.110   .     S
C417   H418    1.110   .     S
C417   H419    1.110   .     S
C421   O462    1.290   .     A
C421   C437    1.450   .     S
C421   O463    1.290   .     A
C422   C423    1.416   .     A
C422   C1054   1.422   .     S
C422   C1078   1.424   .     S
C423   C430    1.425   .     A
C423   C427    1.414   .     A
C424   C428    1.401   .     A
C424   C1052   1.422   1_554 S
C424   C1055   1.420   1_554 S
C425   C426    1.401   .     A
C425   C1054   1.420   .     S
C425   C1074   1.407   .     S
C426   C427    1.396   .     A
C426   O474    1.385   .     S
C427   H458    1.077   .     S
C428   C445    1.395   .     A
C428   H455    1.079   .     S
C429   C445    1.399   .     A
C429   C444    1.393   .     A
C429   H470    1.083   .     S
C430   C446    1.403   .     A
C430   C432    1.476   .     S
C431   H459    1.083   .     S
C431   C437    1.401   .     A
C431   C13     1.383   1_565 S
C432   O465    1.292   .     A
C432   O464    1.300   .     A
C433   C434    1.401   .     A
C433   H451    1.083   .     S
C434   C442    1.449   .     S
C434   C435    1.401   .     A
C435   H471    1.083   .     S
C436   H452    1.083   .     S
C436   C437    1.401   .     A
C436   C15     1.383   1_565 S
C438   H453    1.082   .     S
C438   N461    1.367   .     A
C438   C509    1.416   .     S
C439   N460    1.367   .     A
C439   H454    1.082   .     S
C439   C578    1.416   1_455 S
C440   N460    1.367   .     A
C440   H472    1.081   .     S
C440   C581    1.416   1_455 S
C441   H473    1.081   .     S
C441   N461    1.365   .     A
C441   C510    1.416   .     S
C442   O467    1.290   .     A
C442   O466    1.290   .     A
C443   C445    1.465   .     S
C443   O469    1.294   .     A
C443   O468    1.293   .     A
C444   C1055   1.407   1_554 S
C444   H1112   1.083   1_554 S
C446   C447    1.386   .     A
C446   H456    1.083   .     S
C447   C1078   1.396   .     S
C447   H1087   1.082   .     S
C448   O483    1.383   .     S
C448   C1077   1.396   1_554 S
C448   C1052   1.424   1_554 S
Cu449  O462    1.965   .     S
Cu449  O466    1.964   .     S
Cu449  Cu450   2.674   .     S
Cu449  N460    2.010   .     S
Cu449  O464    1.949   .     S
Cu449  O468    1.939   .     S
Cu450  N461    2.009   .     S
Cu450  O465    1.939   .     S
Cu450  O469    1.949   .     S
Cu450  O463    1.964   .     S
Cu450  O467    1.965   .     S
H457   C1077   1.082   1_554 S
O474   C475    1.411   .     S
C475   H476    1.114   .     S
C475   H477    1.114   .     S
C475   C548    1.522   .     S
C478   H481    1.111   .     S
C478   H480    1.111   .     S
C478   H479    1.111   .     S
C478   C615    1.522   1_455 S
H482   C1074   1.083   .     S
O483   C484    1.417   .     S
C484   H485    1.117   .     S
C484   C487    1.526   .     S
C484   H486    1.107   .     S
C487   H490    1.110   .     S
C487   H488    1.110   .     S
C487   H489    1.110   .     S
C491   O532    1.290   .     A
C491   C507    1.450   .     S
C491   O533    1.290   .     A
C492   C493    1.416   .     A
C492   C1124   1.422   .     S
C492   C1148   1.424   .     S
C493   C500    1.425   .     A
C493   C497    1.414   .     A
C494   C498    1.401   .     A
C494   C1122   1.422   1_554 S
C494   C1125   1.420   1_554 S
C495   C496    1.401   .     A
C495   C1124   1.420   .     S
C495   C1144   1.407   .     S
C496   C497    1.396   .     A
C496   O544    1.385   .     S
C497   H528    1.077   .     S
C498   C515    1.395   .     A
C498   H525    1.079   .     S
C499   C515    1.399   .     A
C499   C514    1.393   .     A
C499   H540    1.083   .     S
C500   C516    1.403   .     A
C500   C502    1.476   .     S
C501   H529    1.083   .     S
C501   C507    1.401   .     A
C501   C83     1.383   1_565 S
C502   O535    1.292   .     A
C502   O534    1.300   .     A
C503   C504    1.401   .     A
C503   H521    1.083   .     S
C504   C512    1.449   .     S
C504   C505    1.401   .     A
C505   H541    1.083   .     S
C506   H522    1.083   .     S
C506   C507    1.401   .     A
C506   C85     1.383   1_565 S
C508   H523    1.082   .     S
C508   N531    1.367   .     A
C508   C579    1.416   .     S
C509   N530    1.367   .     A
C509   H524    1.082   .     S
C510   N530    1.367   .     A
C510   H542    1.081   .     S
C511   H543    1.081   .     S
C511   N531    1.365   .     A
C511   C580    1.416   .     S
C512   O537    1.290   .     A
C512   O536    1.290   .     A
C513   C515    1.465   .     S
C513   O539    1.294   .     A
C513   O538    1.293   .     A
C514   C1125   1.407   1_554 S
C514   H1182   1.083   1_554 S
C516   C517    1.386   .     A
C516   H526    1.083   .     S
C517   C1148   1.396   .     S
C517   H1157   1.082   .     S
C518   O553    1.383   .     S
C518   C1147   1.396   1_554 S
C518   C1122   1.424   1_554 S
Cu519  O532    1.965   .     S
Cu519  O536    1.964   .     S
Cu519  Cu520   2.674   .     S
Cu519  N530    2.010   .     S
Cu519  O534    1.949   .     S
Cu519  O538    1.939   .     S
Cu520  N531    2.009   .     S
Cu520  O535    1.939   .     S
Cu520  O539    1.949   .     S
Cu520  O533    1.964   .     S
Cu520  O537    1.965   .     S
H527   C1147   1.082   1_554 S
O544   C545    1.411   .     S
C545   H546    1.114   .     S
C545   H547    1.114   .     S
C545   C618    1.522   .     S
C548   H551    1.111   .     S
C548   H550    1.111   .     S
C548   H549    1.111   .     S
H552   C1144   1.083   .     S
O553   C554    1.417   .     S
C554   H555    1.117   .     S
C554   C557    1.526   .     S
C554   H556    1.107   .     S
C557   H560    1.110   .     S
C557   H558    1.110   .     S
C557   H559    1.110   .     S
C561   O602    1.290   .     A
C561   C577    1.450   .     S
C561   O603    1.290   .     A
C562   C563    1.416   .     A
C562   C1194   1.422   .     S
C562   C1218   1.424   .     S
C563   C570    1.425   .     A
C563   C567    1.414   .     A
C564   C568    1.401   .     A
C564   C1192   1.422   1_554 S
C564   C1195   1.420   1_554 S
C565   C566    1.401   .     A
C565   C1194   1.420   .     S
C565   C1214   1.407   .     S
C566   C567    1.396   .     A
C566   O614    1.385   .     S
C567   H598    1.077   .     S
C568   C585    1.395   .     A
C568   H595    1.079   .     S
C569   C585    1.399   .     A
C569   C584    1.393   .     A
C569   H610    1.083   .     S
C570   C586    1.403   .     A
C570   C572    1.476   .     S
C571   H599    1.083   .     S
C571   C577    1.401   .     A
C571   C153    1.383   1_565 S
C572   O605    1.292   .     A
C572   O604    1.300   .     A
C573   C574    1.401   .     A
C573   H591    1.083   .     S
C574   C582    1.449   .     S
C574   C575    1.401   .     A
C575   H611    1.083   .     S
C576   H592    1.083   .     S
C576   C577    1.401   .     A
C576   C155    1.383   1_565 S
C578   H593    1.082   .     S
C578   N601    1.367   .     A
C578   C439    1.416   1_655 S
C579   N600    1.367   .     A
C579   H594    1.082   .     S
C580   N600    1.367   .     A
C580   H612    1.081   .     S
C581   H613    1.081   .     S
C581   N601    1.365   .     A
C581   C440    1.416   1_655 S
C582   O607    1.290   .     A
C582   O606    1.290   .     A
C583   C585    1.465   .     S
C583   O609    1.294   .     A
C583   O608    1.293   .     A
C584   C1195   1.407   1_554 S
C584   H1252   1.083   1_554 S
C586   C587    1.386   .     A
C586   H596    1.083   .     S
C587   C1218   1.396   .     S
C587   H1227   1.082   .     S
C588   O623    1.383   .     S
C588   C1217   1.396   1_554 S
C588   C1192   1.424   1_554 S
Cu589  O602    1.965   .     S
Cu589  O606    1.964   .     S
Cu589  Cu590   2.674   .     S
Cu589  N600    2.010   .     S
Cu589  O604    1.949   .     S
Cu589  O608    1.939   .     S
Cu590  N601    2.009   .     S
Cu590  O605    1.939   .     S
Cu590  O609    1.949   .     S
Cu590  O603    1.964   .     S
Cu590  O607    1.965   .     S
H597   C1217   1.082   1_554 S
O614   C615    1.411   .     S
C615   H616    1.114   .     S
C615   H617    1.114   .     S
C615   C478    1.522   1_655 S
C618   H621    1.111   .     S
C618   H620    1.111   .     S
C618   H619    1.111   .     S
H622   C1214   1.083   .     S
O623   C624    1.417   .     S
C624   H625    1.117   .     S
C624   C627    1.526   .     S
C624   H626    1.107   .     S
C627   H630    1.110   .     S
C627   H628    1.110   .     S
C627   H629    1.110   .     S
C631   O672    1.290   .     A
C631   C647    1.450   .     S
C631   O673    1.290   .     A
C632   C633    1.416   .     A
C632   C4      1.422   1_556 S
C632   C28     1.424   1_556 S
C633   C640    1.425   .     A
C633   C637    1.414   .     A
C634   C638    1.401   .     A
C635   C636    1.401   .     A
C635   C4      1.420   1_556 S
C635   C24     1.407   1_556 S
C636   C637    1.396   .     A
C636   O684    1.385   .     S
C637   H668    1.077   .     S
C638   C655    1.395   .     A
C638   H665    1.079   .     S
C639   C655    1.399   .     A
C639   C654    1.393   .     A
C639   H680    1.083   .     S
C640   C656    1.403   .     A
C640   C642    1.476   .     S
C641   H669    1.083   .     S
C641   C647    1.401   .     A
C641   C853    1.383   .     S
C642   O675    1.292   .     A
C642   O674    1.300   .     A
C643   C644    1.401   .     A
C643   H661    1.083   .     S
C643   C1061   1.383   1_545 S
C644   C652    1.449   .     S
C644   C645    1.401   .     A
C645   H681    1.083   .     S
C645   C1066   1.383   1_545 S
C646   H662    1.083   .     S
C646   C647    1.401   .     A
C646   C855    1.383   .     S
C648   H663    1.082   .     S
C648   N671    1.367   .     A
C648   C719    1.416   .     S
C649   N670    1.367   .     A
C649   H664    1.082   .     S
C649   C788    1.416   1_455 S
C650   N670    1.367   .     A
C650   H682    1.081   .     S
C650   C791    1.416   1_455 S
C651   H683    1.081   .     S
C651   N671    1.365   .     A
C651   C720    1.416   .     S
C652   O677    1.290   .     A
C652   O676    1.290   .     A
C653   C655    1.465   .     S
C653   O679    1.294   .     A
C653   O678    1.293   .     A
C656   C657    1.386   .     A
C656   H666    1.083   .     S
C657   C28     1.396   1_556 S
C657   H37     1.082   1_556 S
C658   O693    1.383   .     S
Cu659  O672    1.965   .     S
Cu659  O676    1.964   .     S
Cu659  Cu660   2.674   .     S
Cu659  N670    2.010   .     S
Cu659  O674    1.949   .     S
Cu659  O678    1.939   .     S
Cu660  N671    2.009   .     S
Cu660  O675    1.939   .     S
Cu660  O679    1.949   .     S
Cu660  O673    1.964   .     S
Cu660  O677    1.965   .     S
O684   C685    1.411   .     S
C685   H686    1.114   .     S
C685   H687    1.114   .     S
C685   C758    1.522   .     S
C688   H691    1.111   .     S
C688   H690    1.111   .     S
C688   H689    1.111   .     S
C688   C825    1.522   1_455 S
H692   C24     1.083   1_556 S
O693   C694    1.417   .     S
C694   H695    1.117   .     S
C694   C697    1.526   .     S
C694   H696    1.107   .     S
C697   H700    1.110   .     S
C697   H698    1.110   .     S
C697   H699    1.110   .     S
C701   O742    1.290   .     A
C701   C717    1.450   .     S
C701   O743    1.290   .     A
C702   C703    1.416   .     A
C702   C74     1.422   1_556 S
C702   C98     1.424   1_556 S
C703   C710    1.425   .     A
C703   C707    1.414   .     A
C704   C708    1.401   .     A
C705   C706    1.401   .     A
C705   C74     1.420   1_556 S
C705   C94     1.407   1_556 S
C706   C707    1.396   .     A
C706   O754    1.385   .     S
C707   H738    1.077   .     S
C708   C725    1.395   .     A
C708   H735    1.079   .     S
C709   C725    1.399   .     A
C709   C724    1.393   .     A
C709   H750    1.083   .     S
C710   C726    1.403   .     A
C710   C712    1.476   .     S
C711   H739    1.083   .     S
C711   C717    1.401   .     A
C711   C923    1.383   .     S
C712   O745    1.292   .     A
C712   O744    1.300   .     A
C713   C714    1.401   .     A
C713   H731    1.083   .     S
C713   C1131   1.383   1_545 S
C714   C722    1.449   .     S
C714   C715    1.401   .     A
C715   H751    1.083   .     S
C715   C1136   1.383   1_545 S
C716   H732    1.083   .     S
C716   C717    1.401   .     A
C716   C925    1.383   .     S
C718   H733    1.082   .     S
C718   N741    1.367   .     A
C718   C789    1.416   .     S
C719   N740    1.367   .     A
C719   H734    1.082   .     S
C720   N740    1.367   .     A
C720   H752    1.081   .     S
C721   H753    1.081   .     S
C721   N741    1.365   .     A
C721   C790    1.416   .     S
C722   O747    1.290   .     A
C722   O746    1.290   .     A
C723   C725    1.465   .     S
C723   O749    1.294   .     A
C723   O748    1.293   .     A
C726   C727    1.386   .     A
C726   H736    1.083   .     S
C727   C98     1.396   1_556 S
C727   H107    1.082   1_556 S
C728   O763    1.383   .     S
Cu729  O742    1.965   .     S
Cu729  O746    1.964   .     S
Cu729  Cu730   2.674   .     S
Cu729  N740    2.010   .     S
Cu729  O744    1.949   .     S
Cu729  O748    1.939   .     S
Cu730  N741    2.009   .     S
Cu730  O745    1.939   .     S
Cu730  O749    1.949   .     S
Cu730  O743    1.964   .     S
Cu730  O747    1.965   .     S
O754   C755    1.411   .     S
C755   H756    1.114   .     S
C755   H757    1.114   .     S
C755   C828    1.522   .     S
C758   H761    1.111   .     S
C758   H760    1.111   .     S
C758   H759    1.111   .     S
H762   C94     1.083   1_556 S
O763   C764    1.417   .     S
C764   H765    1.117   .     S
C764   C767    1.526   .     S
C764   H766    1.107   .     S
C767   H770    1.110   .     S
C767   H768    1.110   .     S
C767   H769    1.110   .     S
C771   O812    1.290   .     A
C771   C787    1.450   .     S
C771   O813    1.290   .     A
C772   C773    1.416   .     A
C772   C144    1.422   1_556 S
C772   C168    1.424   1_556 S
C773   C780    1.425   .     A
C773   C777    1.414   .     A
C774   C778    1.401   .     A
C775   C776    1.401   .     A
C775   C144    1.420   1_556 S
C775   C164    1.407   1_556 S
C776   C777    1.396   .     A
C776   O824    1.385   .     S
C777   H808    1.077   .     S
C778   C795    1.395   .     A
C778   H805    1.079   .     S
C779   C795    1.399   .     A
C779   C794    1.393   .     A
C779   H820    1.083   .     S
C780   C796    1.403   .     A
C780   C782    1.476   .     S
C781   H809    1.083   .     S
C781   C787    1.401   .     A
C781   C993    1.383   .     S
C782   O815    1.292   .     A
C782   O814    1.300   .     A
C783   C784    1.401   .     A
C783   H801    1.083   .     S
C783   C1201   1.383   1_545 S
C784   C792    1.449   .     S
C784   C785    1.401   .     A
C785   H821    1.083   .     S
C785   C1206   1.383   1_545 S
C786   H802    1.083   .     S
C786   C787    1.401   .     A
C786   C995    1.383   .     S
C788   H803    1.082   .     S
C788   N811    1.367   .     A
C788   C649    1.416   1_655 S
C789   N810    1.367   .     A
C789   H804    1.082   .     S
C790   N810    1.367   .     A
C790   H822    1.081   .     S
C791   H823    1.081   .     S
C791   N811    1.365   .     A
C791   C650    1.416   1_655 S
C792   O817    1.290   .     A
C792   O816    1.290   .     A
C793   C795    1.465   .     S
C793   O819    1.294   .     A
C793   O818    1.293   .     A
C796   C797    1.386   .     A
C796   H806    1.083   .     S
C797   C168    1.396   1_556 S
C797   H177    1.082   1_556 S
C798   O833    1.383   .     S
Cu799  O812    1.965   .     S
Cu799  O816    1.964   .     S
Cu799  Cu800   2.674   .     S
Cu799  N810    2.010   .     S
Cu799  O814    1.949   .     S
Cu799  O818    1.939   .     S
Cu800  N811    2.009   .     S
Cu800  O815    1.939   .     S
Cu800  O819    1.949   .     S
Cu800  O813    1.964   .     S
Cu800  O817    1.965   .     S
O824   C825    1.411   .     S
C825   H826    1.114   .     S
C825   H827    1.114   .     S
C825   C688    1.522   1_655 S
C828   H831    1.111   .     S
C828   H830    1.111   .     S
C828   H829    1.111   .     S
H832   C164    1.083   1_556 S
O833   C834    1.417   .     S
C834   H835    1.117   .     S
C834   C837    1.526   .     S
C834   H836    1.107   .     S
C837   H840    1.110   .     S
C837   H838    1.110   .     S
C837   H839    1.110   .     S
C841   O882    1.290   .     A
C841   C857    1.450   .     S
C841   O883    1.290   .     A
C842   C843    1.416   .     A
C842   C214    1.422   1_556 S
C842   C238    1.424   1_556 S
C843   C850    1.425   .     A
C843   C847    1.414   .     A
C844   C848    1.401   .     A
C845   C846    1.401   .     A
C845   C214    1.420   1_556 S
C845   C234    1.407   1_556 S
C846   C847    1.396   .     A
C846   O894    1.385   .     S
C847   H878    1.077   .     S
C848   C865    1.395   .     A
C848   H875    1.079   .     S
C849   C865    1.399   .     A
C849   C864    1.393   .     A
C849   H890    1.083   .     S
C850   C866    1.403   .     A
C850   C852    1.476   .     S
C851   H879    1.083   .     S
C851   C857    1.401   .     A
C851   C1063   1.383   .     S
C852   O885    1.292   .     A
C852   O884    1.300   .     A
C853   C854    1.401   .     A
C853   H871    1.083   .     S
C854   C862    1.449   .     S
C854   C855    1.401   .     A
C855   H891    1.083   .     S
C856   H872    1.083   .     S
C856   C857    1.401   .     A
C856   C1065   1.383   .     S
C858   H873    1.082   .     S
C858   N881    1.367   .     A
C858   C929    1.416   .     S
C859   N880    1.367   .     A
C859   H874    1.082   .     S
C859   C998    1.416   1_455 S
C860   N880    1.367   .     A
C860   H892    1.081   .     S
C860   C1001   1.416   1_455 S
C861   H893    1.081   .     S
C861   N881    1.365   .     A
C861   C930    1.416   .     S
C862   O887    1.290   .     A
C862   O886    1.290   .     A
C863   C865    1.465   .     S
C863   O889    1.294   .     A
C863   O888    1.293   .     A
C866   C867    1.386   .     A
C866   H876    1.083   .     S
C867   C238    1.396   1_556 S
C867   H247    1.082   1_556 S
C868   O903    1.383   .     S
Cu869  O882    1.965   .     S
Cu869  O886    1.964   .     S
Cu869  Cu870   2.674   .     S
Cu869  N880    2.010   .     S
Cu869  O884    1.949   .     S
Cu869  O888    1.939   .     S
Cu870  N881    2.009   .     S
Cu870  O885    1.939   .     S
Cu870  O889    1.949   .     S
Cu870  O883    1.964   .     S
Cu870  O887    1.965   .     S
O894   C895    1.411   .     S
C895   H896    1.114   .     S
C895   H897    1.114   .     S
C895   C968    1.522   .     S
C898   H901    1.111   .     S
C898   H900    1.111   .     S
C898   H899    1.111   .     S
C898   C1035   1.522   1_455 S
H902   C234    1.083   1_556 S
O903   C904    1.417   .     S
C904   H905    1.117   .     S
C904   C907    1.526   .     S
C904   H906    1.107   .     S
C907   H910    1.110   .     S
C907   H908    1.110   .     S
C907   H909    1.110   .     S
C911   O952    1.290   .     A
C911   C927    1.450   .     S
C911   O953    1.290   .     A
C912   C913    1.416   .     A
C912   C284    1.422   1_556 S
C912   C308    1.424   1_556 S
C913   C920    1.425   .     A
C913   C917    1.414   .     A
C914   C918    1.401   .     A
C915   C916    1.401   .     A
C915   C284    1.420   1_556 S
C915   C304    1.407   1_556 S
C916   C917    1.396   .     A
C916   O964    1.385   .     S
C917   H948    1.077   .     S
C918   C935    1.395   .     A
C918   H945    1.079   .     S
C919   C935    1.399   .     A
C919   C934    1.393   .     A
C919   H960    1.083   .     S
C920   C936    1.403   .     A
C920   C922    1.476   .     S
C921   H949    1.083   .     S
C921   C927    1.401   .     A
C921   C1133   1.383   .     S
C922   O955    1.292   .     A
C922   O954    1.300   .     A
C923   C924    1.401   .     A
C923   H941    1.083   .     S
C924   C932    1.449   .     S
C924   C925    1.401   .     A
C925   H961    1.083   .     S
C926   H942    1.083   .     S
C926   C927    1.401   .     A
C926   C1135   1.383   .     S
C928   H943    1.082   .     S
C928   N951    1.367   .     A
C928   C999    1.416   .     S
C929   N950    1.367   .     A
C929   H944    1.082   .     S
C930   N950    1.367   .     A
C930   H962    1.081   .     S
C931   H963    1.081   .     S
C931   N951    1.365   .     A
C931   C1000   1.416   .     S
C932   O957    1.290   .     A
C932   O956    1.290   .     A
C933   C935    1.465   .     S
C933   O959    1.294   .     A
C933   O958    1.293   .     A
C936   C937    1.386   .     A
C936   H946    1.083   .     S
C937   C308    1.396   1_556 S
C937   H317    1.082   1_556 S
C938   O973    1.383   .     S
Cu939  O952    1.965   .     S
Cu939  O956    1.964   .     S
Cu939  Cu940   2.674   .     S
Cu939  N950    2.010   .     S
Cu939  O954    1.949   .     S
Cu939  O958    1.939   .     S
Cu940  N951    2.009   .     S
Cu940  O955    1.939   .     S
Cu940  O959    1.949   .     S
Cu940  O953    1.964   .     S
Cu940  O957    1.965   .     S
O964   C965    1.411   .     S
C965   H966    1.114   .     S
C965   H967    1.114   .     S
C965   C1038   1.522   .     S
C968   H971    1.111   .     S
C968   H970    1.111   .     S
C968   H969    1.111   .     S
H972   C304    1.083   1_556 S
O973   C974    1.417   .     S
C974   H975    1.117   .     S
C974   C977    1.526   .     S
C974   H976    1.107   .     S
C977   H980    1.110   .     S
C977   H978    1.110   .     S
C977   H979    1.110   .     S
C981   O1022   1.290   .     A
C981   C997    1.450   .     S
C981   O1023   1.290   .     A
C982   C983    1.416   .     A
C982   C354    1.422   1_556 S
C982   C378    1.424   1_556 S
C983   C990    1.425   .     A
C983   C987    1.414   .     A
C984   C988    1.401   .     A
C985   C986    1.401   .     A
C985   C354    1.420   1_556 S
C985   C374    1.407   1_556 S
C986   C987    1.396   .     A
C986   O1034   1.385   .     S
C987   H1018   1.077   .     S
C988   C1005   1.395   .     A
C988   H1015   1.079   .     S
C989   C1005   1.399   .     A
C989   C1004   1.393   .     A
C989   H1030   1.083   .     S
C990   C1006   1.403   .     A
C990   C992    1.476   .     S
C991   H1019   1.083   .     S
C991   C997    1.401   .     A
C991   C1203   1.383   .     S
C992   O1025   1.292   .     A
C992   O1024   1.300   .     A
C993   C994    1.401   .     A
C993   H1011   1.083   .     S
C994   C1002   1.449   .     S
C994   C995    1.401   .     A
C995   H1031   1.083   .     S
C996   H1012   1.083   .     S
C996   C997    1.401   .     A
C996   C1205   1.383   .     S
C998   H1013   1.082   .     S
C998   N1021   1.367   .     A
C998   C859    1.416   1_655 S
C999   N1020   1.367   .     A
C999   H1014   1.082   .     S
C1000  N1020   1.367   .     A
C1000  H1032   1.081   .     S
C1001  H1033   1.081   .     S
C1001  N1021   1.365   .     A
C1001  C860    1.416   1_655 S
C1002  O1027   1.290   .     A
C1002  O1026   1.290   .     A
C1003  C1005   1.465   .     S
C1003  O1029   1.294   .     A
C1003  O1028   1.293   .     A
C1006  C1007   1.386   .     A
C1006  H1016   1.083   .     S
C1007  C378    1.396   1_556 S
C1007  H387    1.082   1_556 S
C1008  O1043   1.383   .     S
Cu1009 O1022   1.965   .     S
Cu1009 O1026   1.964   .     S
Cu1009 Cu1010  2.674   .     S
Cu1009 N1020   2.010   .     S
Cu1009 O1024   1.949   .     S
Cu1009 O1028   1.939   .     S
Cu1010 N1021   2.009   .     S
Cu1010 O1025   1.939   .     S
Cu1010 O1029   1.949   .     S
Cu1010 O1023   1.964   .     S
Cu1010 O1027   1.965   .     S
O1034  C1035   1.411   .     S
C1035  H1036   1.114   .     S
C1035  H1037   1.114   .     S
C1035  C898    1.522   1_655 S
C1038  H1041   1.111   .     S
C1038  H1040   1.111   .     S
C1038  H1039   1.111   .     S
H1042  C374    1.083   1_556 S
O1043  C1044   1.417   .     S
C1044  H1045   1.117   .     S
C1044  C1047   1.526   .     S
C1044  H1046   1.107   .     S
C1047  H1050   1.110   .     S
C1047  H1048   1.110   .     S
C1047  H1049   1.110   .     S
C1051  O1092   1.290   .     A
C1051  C1067   1.450   .     S
C1051  O1093   1.290   .     A
C1052  C1053   1.416   .     A
C1052  C424    1.422   1_556 S
C1052  C448    1.424   1_556 S
C1053  C1060   1.425   .     A
C1053  C1057   1.414   .     A
C1054  C1058   1.401   .     A
C1055  C1056   1.401   .     A
C1055  C424    1.420   1_556 S
C1055  C444    1.407   1_556 S
C1056  C1057   1.396   .     A
C1056  O1104   1.385   .     S
C1057  H1088   1.077   .     S
C1058  C1075   1.395   .     A
C1058  H1085   1.079   .     S
C1059  C1075   1.399   .     A
C1059  C1074   1.393   .     A
C1059  H1100   1.083   .     S
C1060  C1076   1.403   .     A
C1060  C1062   1.476   .     S
C1061  H1089   1.083   .     S
C1061  C1067   1.401   .     A
C1061  C643    1.383   1_565 S
C1062  O1095   1.292   .     A
C1062  O1094   1.300   .     A
C1063  C1064   1.401   .     A
C1063  H1081   1.083   .     S
C1064  C1072   1.449   .     S
C1064  C1065   1.401   .     A
C1065  H1101   1.083   .     S
C1066  H1082   1.083   .     S
C1066  C1067   1.401   .     A
C1066  C645    1.383   1_565 S
C1068  H1083   1.082   .     S
C1068  N1091   1.367   .     A
C1068  C1139   1.416   .     S
C1069  N1090   1.367   .     A
C1069  H1084   1.082   .     S
C1069  C1208   1.416   1_455 S
C1070  N1090   1.367   .     A
C1070  H1102   1.081   .     S
C1070  C1211   1.416   1_455 S
C1071  H1103   1.081   .     S
C1071  N1091   1.365   .     A
C1071  C1140   1.416   .     S
C1072  O1097   1.290   .     A
C1072  O1096   1.290   .     A
C1073  C1075   1.465   .     S
C1073  O1099   1.294   .     A
C1073  O1098   1.293   .     A
C1076  C1077   1.386   .     A
C1076  H1086   1.083   .     S
C1077  C448    1.396   1_556 S
C1077  H457    1.082   1_556 S
C1078  O1113   1.383   .     S
Cu1079 O1092   1.965   .     S
Cu1079 O1096   1.964   .     S
Cu1079 Cu1080  2.674   .     S
Cu1079 N1090   2.010   .     S
Cu1079 O1094   1.949   .     S
Cu1079 O1098   1.939   .     S
Cu1080 N1091   2.009   .     S
Cu1080 O1095   1.939   .     S
Cu1080 O1099   1.949   .     S
Cu1080 O1093   1.964   .     S
Cu1080 O1097   1.965   .     S
O1104  C1105   1.411   .     S
C1105  H1106   1.114   .     S
C1105  H1107   1.114   .     S
C1105  C1178   1.522   .     S
C1108  H1111   1.111   .     S
C1108  H1110   1.111   .     S
C1108  H1109   1.111   .     S
C1108  C1245   1.522   1_455 S
H1112  C444    1.083   1_556 S
O1113  C1114   1.417   .     S
C1114  H1115   1.117   .     S
C1114  C1117   1.526   .     S
C1114  H1116   1.107   .     S
C1117  H1120   1.110   .     S
C1117  H1118   1.110   .     S
C1117  H1119   1.110   .     S
C1121  O1162   1.290   .     A
C1121  C1137   1.450   .     S
C1121  O1163   1.290   .     A
C1122  C1123   1.416   .     A
C1122  C494    1.422   1_556 S
C1122  C518    1.424   1_556 S
C1123  C1130   1.425   .     A
C1123  C1127   1.414   .     A
C1124  C1128   1.401   .     A
C1125  C1126   1.401   .     A
C1125  C494    1.420   1_556 S
C1125  C514    1.407   1_556 S
C1126  C1127   1.396   .     A
C1126  O1174   1.385   .     S
C1127  H1158   1.077   .     S
C1128  C1145   1.395   .     A
C1128  H1155   1.079   .     S
C1129  C1145   1.399   .     A
C1129  C1144   1.393   .     A
C1129  H1170   1.083   .     S
C1130  C1146   1.403   .     A
C1130  C1132   1.476   .     S
C1131  H1159   1.083   .     S
C1131  C1137   1.401   .     A
C1131  C713    1.383   1_565 S
C1132  O1165   1.292   .     A
C1132  O1164   1.300   .     A
C1133  C1134   1.401   .     A
C1133  H1151   1.083   .     S
C1134  C1142   1.449   .     S
C1134  C1135   1.401   .     A
C1135  H1171   1.083   .     S
C1136  H1152   1.083   .     S
C1136  C1137   1.401   .     A
C1136  C715    1.383   1_565 S
C1138  H1153   1.082   .     S
C1138  N1161   1.367   .     A
C1138  C1209   1.416   .     S
C1139  N1160   1.367   .     A
C1139  H1154   1.082   .     S
C1140  N1160   1.367   .     A
C1140  H1172   1.081   .     S
C1141  H1173   1.081   .     S
C1141  N1161   1.365   .     A
C1141  C1210   1.416   .     S
C1142  O1167   1.290   .     A
C1142  O1166   1.290   .     A
C1143  C1145   1.465   .     S
C1143  O1169   1.294   .     A
C1143  O1168   1.293   .     A
C1146  C1147   1.386   .     A
C1146  H1156   1.083   .     S
C1147  C518    1.396   1_556 S
C1147  H527    1.082   1_556 S
C1148  O1183   1.383   .     S
Cu1149 O1162   1.965   .     S
Cu1149 O1166   1.964   .     S
Cu1149 Cu1150  2.674   .     S
Cu1149 N1160   2.010   .     S
Cu1149 O1164   1.949   .     S
Cu1149 O1168   1.939   .     S
Cu1150 N1161   2.009   .     S
Cu1150 O1165   1.939   .     S
Cu1150 O1169   1.949   .     S
Cu1150 O1163   1.964   .     S
Cu1150 O1167   1.965   .     S
O1174  C1175   1.411   .     S
C1175  H1176   1.114   .     S
C1175  H1177   1.114   .     S
C1175  C1248   1.522   .     S
C1178  H1181   1.111   .     S
C1178  H1180   1.111   .     S
C1178  H1179   1.111   .     S
H1182  C514    1.083   1_556 S
O1183  C1184   1.417   .     S
C1184  H1185   1.117   .     S
C1184  C1187   1.526   .     S
C1184  H1186   1.107   .     S
C1187  H1190   1.110   .     S
C1187  H1188   1.110   .     S
C1187  H1189   1.110   .     S
C1191  O1232   1.290   .     A
C1191  C1207   1.450   .     S
C1191  O1233   1.290   .     A
C1192  C1193   1.416   .     A
C1192  C564    1.422   1_556 S
C1192  C588    1.424   1_556 S
C1193  C1200   1.425   .     A
C1193  C1197   1.414   .     A
C1194  C1198   1.401   .     A
C1195  C1196   1.401   .     A
C1195  C564    1.420   1_556 S
C1195  C584    1.407   1_556 S
C1196  C1197   1.396   .     A
C1196  O1244   1.385   .     S
C1197  H1228   1.077   .     S
C1198  C1215   1.395   .     A
C1198  H1225   1.079   .     S
C1199  C1215   1.399   .     A
C1199  C1214   1.393   .     A
C1199  H1240   1.083   .     S
C1200  C1216   1.403   .     A
C1200  C1202   1.476   .     S
C1201  H1229   1.083   .     S
C1201  C1207   1.401   .     A
C1201  C783    1.383   1_565 S
C1202  O1235   1.292   .     A
C1202  O1234   1.300   .     A
C1203  C1204   1.401   .     A
C1203  H1221   1.083   .     S
C1204  C1212   1.449   .     S
C1204  C1205   1.401   .     A
C1205  H1241   1.083   .     S
C1206  H1222   1.083   .     S
C1206  C1207   1.401   .     A
C1206  C785    1.383   1_565 S
C1208  H1223   1.082   .     S
C1208  N1231   1.367   .     A
C1208  C1069   1.416   1_655 S
C1209  N1230   1.367   .     A
C1209  H1224   1.082   .     S
C1210  N1230   1.367   .     A
C1210  H1242   1.081   .     S
C1211  H1243   1.081   .     S
C1211  N1231   1.365   .     A
C1211  C1070   1.416   1_655 S
C1212  O1237   1.290   .     A
C1212  O1236   1.290   .     A
C1213  C1215   1.465   .     S
C1213  O1239   1.294   .     A
C1213  O1238   1.293   .     A
C1216  C1217   1.386   .     A
C1216  H1226   1.083   .     S
C1217  C588    1.396   1_556 S
C1217  H597    1.082   1_556 S
C1218  O1253   1.383   .     S
Cu1219 O1232   1.965   .     S
Cu1219 O1236   1.964   .     S
Cu1219 Cu1220  2.674   .     S
Cu1219 N1230   2.010   .     S
Cu1219 O1234   1.949   .     S
Cu1219 O1238   1.939   .     S
Cu1220 N1231   2.009   .     S
Cu1220 O1235   1.939   .     S
Cu1220 O1239   1.949   .     S
Cu1220 O1233   1.964   .     S
Cu1220 O1237   1.965   .     S
O1244  C1245   1.411   .     S
C1245  H1246   1.114   .     S
C1245  H1247   1.114   .     S
C1245  C1108   1.522   1_655 S
C1248  H1251   1.111   .     S
C1248  H1250   1.111   .     S
C1248  H1249   1.111   .     S
H1252  C584    1.083   1_556 S
O1253  C1254   1.417   .     S
C1254  H1255   1.117   .     S
C1254  C1257   1.526   .     S
C1254  H1256   1.107   .     S
C1257  H1260   1.110   .     S
C1257  H1258   1.110   .     S
C1257  H1259   1.110   .     S
