data_str_m2_o1_o18_pcu_sym.176
_audit_creation_date              2020-01-03
_audit_creation_method            'Materials Studio'
_symmetry_space_group_name_H-M    'P1'
_symmetry_Int_Tables_number       1
_symmetry_cell_setting            triclinic
loop_
_symmetry_equiv_pos_as_xyz
  x,y,z
_cell_length_a                    28.5251
_cell_length_b                    32.5262
_cell_length_c                    30.9968
_cell_angle_alpha                 89.8531
_cell_angle_beta                  74.3488
_cell_angle_gamma                 90.1670
loop_
_atom_site_label
_atom_site_type_symbol
_atom_site_fract_x
_atom_site_fract_y
_atom_site_fract_z
_atom_site_U_iso_or_equiv
_atom_site_adp_type
_atom_site_occupancy
C1     C     0.00016   0.08742   0.24887   0.00000  Uiso   1.00
C2     C     0.33326   0.24594   0.25096   0.00000  Uiso   1.00
C3     C     0.18877   0.19805   0.04217   0.00000  Uiso   1.00
C4     C     0.13603   0.16698   0.45074   0.00000  Uiso   1.00
C5     C     0.23661   0.20647   0.01879   0.00000  Uiso   1.00
C6     C     0.08684   0.16471   0.47355   0.00000  Uiso   1.00
C7     C     0.29940   0.02036   0.23155   0.00000  Uiso   1.00
C8     C     0.03470   0.31312   0.26717   0.00000  Uiso   1.00
C9     C     0.29970   0.31108   0.23385   0.00000  Uiso   1.00
C10    C     0.03412   0.02235   0.26524   0.00000  Uiso   1.00
C11    C     0.00030   0.29059   0.25133   0.00000  Uiso   1.00
C12    C     0.00013   0.04281   0.24790   0.00000  Uiso   1.00
C13    C     0.18210   0.14499   0.28156   0.00000  Uiso   1.00
C14    C     0.15127   0.18815   0.21828   0.00000  Uiso   1.00
C15    C     0.13248   0.14506   0.28159   0.00000  Uiso   1.00
C16    C     0.20090   0.18809   0.21825   0.00000  Uiso   1.00
C17    C     0.30599   0.16636   0.33605   0.00000  Uiso   1.00
C18    C     0.02744   0.16594   0.16379   0.00000  Uiso   1.00
C19    C     0.29053   0.17027   0.38493   0.00000  Uiso   1.00
C20    C     0.04283   0.16548   0.11438   0.00000  Uiso   1.00
C21    C     0.30289   0.20196   0.45146   0.00000  Uiso   1.00
C22    C     0.02266   0.16366   0.04323   0.00000  Uiso   1.00
C23    C     0.32068   0.19061   0.40687   0.00000  Uiso   1.00
C24    C     0.00805   0.16543   0.08986   0.00000  Uiso   1.00
C25    C     0.24261   0.15920   0.40875   0.00000  Uiso   1.00
C26    C     0.09275   0.16423   0.09142   0.00000  Uiso   1.00
C27    C     0.22233   0.17574   0.45179   0.00000  Uiso   1.00
C28    C     0.10746   0.17012   0.04445   0.00000  Uiso   1.00
C29    C     0.25404   0.19477   0.47410   0.00000  Uiso   1.00
C30    C     0.07216   0.16603   0.02028   0.00000  Uiso   1.00
C31    C     0.17184   0.17282   0.47405   0.00000  Uiso   1.00
C32    C     0.15630   0.17932   0.02087   0.00000  Uiso   1.00
Cu33   Cu    0.04689   0.16667   0.25000   0.00000  Uiso   1.00
Cu34   Cu    0.28645   0.16666   0.25000   0.00000  Uiso   1.00
H35    H     0.26031   0.22147   0.03603   0.00000  Uiso   1.00
H36    H     0.06032   0.16140   0.45452   0.00000  Uiso   1.00
H37    H     0.30283   0.16544   0.10675   0.00000  Uiso   1.00
H38    H     0.02441   0.19839   0.38922   0.00000  Uiso   1.00
H39    H     0.32699   0.21750   0.46787   0.00000  Uiso   1.00
H40    H     0.32853   0.16119   0.02515   0.00000  Uiso   1.00
H41    H     0.17687   0.20828   0.07656   0.00000  Uiso   1.00
H42    H     0.14495   0.16720   0.41459   0.00000  Uiso   1.00
H43    H     0.27421   0.29383   0.22051   0.00000  Uiso   1.00
H44    H     0.05970   0.03959   0.27849   0.00000  Uiso   1.00
H45    H     0.19331   0.12736   0.30665   0.00000  Uiso   1.00
H46    H     0.14009   0.20567   0.19308   0.00000  Uiso   1.00
H47    H     0.10630   0.12761   0.30678   0.00000  Uiso   1.00
H48    H     0.22710   0.20544   0.19299   0.00000  Uiso   1.00
N49    N     0.11736   0.16668   0.24999   0.00000  Uiso   1.00
N50    N     0.21597   0.16666   0.25001   0.00000  Uiso   1.00
O51    O     0.03958   0.10655   0.25000   0.00000  Uiso   1.00
O52    O     0.29375   0.22678   0.25000   0.00000  Uiso   1.00
O53    O     0.29372   0.10654   0.25001   0.00000  Uiso   1.00
O54    O     0.03961   0.22679   0.24999   0.00000  Uiso   1.00
O55    O     0.01852   0.16668   0.31491   0.00000  Uiso   1.00
O56    O     0.31481   0.16666   0.18509   0.00000  Uiso   1.00
O57    O     0.27267   0.16667   0.31492   0.00000  Uiso   1.00
O58    O     0.06067   0.16667   0.18508   0.00000  Uiso   1.00
O59    O     0.12582   0.15340   0.11483   0.00000  Uiso   1.00
H60    H     0.15218   0.13715   0.09476   0.00000  Uiso   1.00
O61    O     0.21674   0.12999   0.39220   0.00000  Uiso   1.00
H62    H     0.23985   0.11222   0.37061   0.00000  Uiso   1.00
C63    C     0.26392   0.04013   0.21098   0.00000  Uiso   1.00
C64    C     0.21392   0.03822   0.23265   0.00000  Uiso   1.00
C65    C     0.18043   0.05774   0.21391   0.00000  Uiso   1.00
C66    C     0.19658   0.07920   0.17348   0.00000  Uiso   1.00
C67    C     0.24628   0.08104   0.15158   0.00000  Uiso   1.00
C68    C     0.27995   0.06157   0.17020   0.00000  Uiso   1.00
H69    H     0.20106   0.02225   0.26435   0.00000  Uiso   1.00
H70    H     0.14198   0.05651   0.23089   0.00000  Uiso   1.00
H71    H     0.17058   0.09443   0.15920   0.00000  Uiso   1.00
H72    H     0.25869   0.09757   0.12021   0.00000  Uiso   1.00
H73    H     0.31841   0.06342   0.15311   0.00000  Uiso   1.00
C74    C     0.07118   0.29378   0.28673   0.00000  Uiso   1.00
C75    C     0.05768   0.27890   0.33094   0.00000  Uiso   1.00
C76    C     0.09282   0.26195   0.34964   0.00000  Uiso   1.00
C77    C     0.14126   0.25921   0.32418   0.00000  Uiso   1.00
C78    C     0.15482   0.27398   0.28019   0.00000  Uiso   1.00
C79    C     0.12001   0.29141   0.26151   0.00000  Uiso   1.00
H80    H     0.02022   0.28082   0.35092   0.00000  Uiso   1.00
H81    H     0.08265   0.25115   0.38397   0.00000  Uiso   1.00
H82    H     0.16832   0.24582   0.33860   0.00000  Uiso   1.00
H83    H     0.19234   0.27195   0.26058   0.00000  Uiso   1.00
H84    H     0.13099   0.30288   0.22741   0.00000  Uiso   1.00
C85    C     0.33349   0.08742   0.24887   0.00000  Uiso   1.00
C86    C     0.66660   0.24594   0.25096   0.00000  Uiso   1.00
C87    C     0.52211   0.19805   0.04217   0.00000  Uiso   1.00
C88    C     0.46936   0.16698   0.45074   0.00000  Uiso   1.00
C89    C     0.56994   0.20647   0.01879   0.00000  Uiso   1.00
C90    C     0.42017   0.16471   0.47355   0.00000  Uiso   1.00
C91    C     0.63274   0.02036   0.23155   0.00000  Uiso   1.00
C92    C     0.36804   0.31312   0.26717   0.00000  Uiso   1.00
C93    C     0.63303   0.31108   0.23385   0.00000  Uiso   1.00
C94    C     0.36745   0.02235   0.26524   0.00000  Uiso   1.00
C95    C     0.33364   0.29059   0.25133   0.00000  Uiso   1.00
C96    C     0.33346   0.04281   0.24790   0.00000  Uiso   1.00
C97    C     0.51544   0.14499   0.28156   0.00000  Uiso   1.00
C98    C     0.48461   0.18815   0.21828   0.00000  Uiso   1.00
C99    C     0.46581   0.14506   0.28159   0.00000  Uiso   1.00
C100   C     0.53423   0.18809   0.21825   0.00000  Uiso   1.00
C101   C     0.63932   0.16636   0.33605   0.00000  Uiso   1.00
C102   C     0.36077   0.16594   0.16379   0.00000  Uiso   1.00
C103   C     0.62387   0.17027   0.38493   0.00000  Uiso   1.00
C104   C     0.37617   0.16548   0.11438   0.00000  Uiso   1.00
C105   C     0.63622   0.20196   0.45146   0.00000  Uiso   1.00
C106   C     0.35599   0.16366   0.04323   0.00000  Uiso   1.00
C107   C     0.65401   0.19061   0.40687   0.00000  Uiso   1.00
C108   C     0.34138   0.16543   0.08986   0.00000  Uiso   1.00
C109   C     0.57594   0.15920   0.40875   0.00000  Uiso   1.00
C110   C     0.42609   0.16423   0.09142   0.00000  Uiso   1.00
C111   C     0.55566   0.17574   0.45179   0.00000  Uiso   1.00
C112   C     0.44079   0.17012   0.04445   0.00000  Uiso   1.00
C113   C     0.58737   0.19477   0.47410   0.00000  Uiso   1.00
C114   C     0.40549   0.16603   0.02028   0.00000  Uiso   1.00
C115   C     0.50517   0.17282   0.47405   0.00000  Uiso   1.00
C116   C     0.48964   0.17932   0.02087   0.00000  Uiso   1.00
Cu117  Cu    0.38022   0.16667   0.25000   0.00000  Uiso   1.00
Cu118  Cu    0.61978   0.16666   0.25000   0.00000  Uiso   1.00
H119   H     0.59365   0.22147   0.03603   0.00000  Uiso   1.00
H120   H     0.39366   0.16140   0.45452   0.00000  Uiso   1.00
H121   H     0.63616   0.16544   0.10675   0.00000  Uiso   1.00
H122   H     0.35775   0.19839   0.38922   0.00000  Uiso   1.00
H123   H     0.66032   0.21750   0.46787   0.00000  Uiso   1.00
H124   H     0.66187   0.16119   0.02515   0.00000  Uiso   1.00
H125   H     0.51021   0.20828   0.07656   0.00000  Uiso   1.00
H126   H     0.47828   0.16720   0.41459   0.00000  Uiso   1.00
H127   H     0.60754   0.29383   0.22051   0.00000  Uiso   1.00
H128   H     0.39304   0.03959   0.27849   0.00000  Uiso   1.00
H129   H     0.52664   0.12736   0.30665   0.00000  Uiso   1.00
H130   H     0.47343   0.20567   0.19308   0.00000  Uiso   1.00
H131   H     0.43964   0.12761   0.30678   0.00000  Uiso   1.00
H132   H     0.56043   0.20544   0.19299   0.00000  Uiso   1.00
N133   N     0.45069   0.16668   0.24999   0.00000  Uiso   1.00
N134   N     0.54931   0.16666   0.25001   0.00000  Uiso   1.00
O135   O     0.37291   0.10655   0.25000   0.00000  Uiso   1.00
O136   O     0.62709   0.22678   0.25000   0.00000  Uiso   1.00
O137   O     0.62706   0.10654   0.25001   0.00000  Uiso   1.00
O138   O     0.37294   0.22679   0.24999   0.00000  Uiso   1.00
O139   O     0.35186   0.16668   0.31491   0.00000  Uiso   1.00
O140   O     0.64814   0.16666   0.18509   0.00000  Uiso   1.00
O141   O     0.60600   0.16667   0.31492   0.00000  Uiso   1.00
O142   O     0.39400   0.16667   0.18508   0.00000  Uiso   1.00
O143   O     0.45916   0.15340   0.11483   0.00000  Uiso   1.00
H144   H     0.48551   0.13715   0.09476   0.00000  Uiso   1.00
O145   O     0.55008   0.12999   0.39220   0.00000  Uiso   1.00
H146   H     0.57318   0.11222   0.37061   0.00000  Uiso   1.00
C147   C     0.59726   0.04013   0.21098   0.00000  Uiso   1.00
C148   C     0.54726   0.03822   0.23265   0.00000  Uiso   1.00
C149   C     0.51376   0.05774   0.21391   0.00000  Uiso   1.00
C150   C     0.52992   0.07920   0.17348   0.00000  Uiso   1.00
C151   C     0.57962   0.08104   0.15158   0.00000  Uiso   1.00
C152   C     0.61328   0.06157   0.17020   0.00000  Uiso   1.00
H153   H     0.53439   0.02225   0.26435   0.00000  Uiso   1.00
H154   H     0.47531   0.05651   0.23089   0.00000  Uiso   1.00
H155   H     0.50391   0.09443   0.15920   0.00000  Uiso   1.00
H156   H     0.59203   0.09757   0.12021   0.00000  Uiso   1.00
H157   H     0.65174   0.06342   0.15311   0.00000  Uiso   1.00
C158   C     0.40451   0.29378   0.28673   0.00000  Uiso   1.00
C159   C     0.39102   0.27890   0.33094   0.00000  Uiso   1.00
C160   C     0.42615   0.26195   0.34964   0.00000  Uiso   1.00
C161   C     0.47459   0.25921   0.32418   0.00000  Uiso   1.00
C162   C     0.48816   0.27398   0.28019   0.00000  Uiso   1.00
C163   C     0.45334   0.29141   0.26151   0.00000  Uiso   1.00
H164   H     0.35355   0.28082   0.35092   0.00000  Uiso   1.00
H165   H     0.41598   0.25115   0.38397   0.00000  Uiso   1.00
H166   H     0.50165   0.24582   0.33860   0.00000  Uiso   1.00
H167   H     0.52567   0.27195   0.26058   0.00000  Uiso   1.00
H168   H     0.46433   0.30288   0.22741   0.00000  Uiso   1.00
C169   C     0.66682   0.08742   0.24887   0.00000  Uiso   1.00
C170   C     0.99993   0.24594   0.25096   0.00000  Uiso   1.00
C171   C     0.85544   0.19805   0.04217   0.00000  Uiso   1.00
C172   C     0.80269   0.16698   0.45074   0.00000  Uiso   1.00
C173   C     0.90328   0.20647   0.01879   0.00000  Uiso   1.00
C174   C     0.75351   0.16471   0.47355   0.00000  Uiso   1.00
C175   C     0.96607   0.02036   0.23155   0.00000  Uiso   1.00
C176   C     0.70137   0.31312   0.26717   0.00000  Uiso   1.00
C177   C     0.96636   0.31108   0.23385   0.00000  Uiso   1.00
C178   C     0.70078   0.02235   0.26524   0.00000  Uiso   1.00
C179   C     0.66697   0.29059   0.25133   0.00000  Uiso   1.00
C180   C     0.66680   0.04281   0.24790   0.00000  Uiso   1.00
C181   C     0.84877   0.14499   0.28156   0.00000  Uiso   1.00
C182   C     0.81794   0.18815   0.21828   0.00000  Uiso   1.00
C183   C     0.79915   0.14506   0.28159   0.00000  Uiso   1.00
C184   C     0.86757   0.18809   0.21825   0.00000  Uiso   1.00
C185   C     0.97266   0.16636   0.33605   0.00000  Uiso   1.00
C186   C     0.69411   0.16594   0.16379   0.00000  Uiso   1.00
C187   C     0.95720   0.17027   0.38493   0.00000  Uiso   1.00
C188   C     0.70950   0.16548   0.11438   0.00000  Uiso   1.00
C189   C     0.96956   0.20196   0.45146   0.00000  Uiso   1.00
C190   C     0.68933   0.16366   0.04323   0.00000  Uiso   1.00
C191   C     0.98735   0.19061   0.40687   0.00000  Uiso   1.00
C192   C     0.67471   0.16543   0.08986   0.00000  Uiso   1.00
C193   C     0.90927   0.15920   0.40875   0.00000  Uiso   1.00
C194   C     0.75942   0.16423   0.09142   0.00000  Uiso   1.00
C195   C     0.88899   0.17574   0.45179   0.00000  Uiso   1.00
C196   C     0.77413   0.17012   0.04445   0.00000  Uiso   1.00
C197   C     0.92070   0.19477   0.47410   0.00000  Uiso   1.00
C198   C     0.73882   0.16603   0.02028   0.00000  Uiso   1.00
C199   C     0.83851   0.17282   0.47405   0.00000  Uiso   1.00
C200   C     0.82297   0.17932   0.02087   0.00000  Uiso   1.00
Cu201  Cu    0.71355   0.16667   0.25000   0.00000  Uiso   1.00
Cu202  Cu    0.95311   0.16666   0.25000   0.00000  Uiso   1.00
H203   H     0.92698   0.22147   0.03603   0.00000  Uiso   1.00
H204   H     0.72699   0.16140   0.45452   0.00000  Uiso   1.00
H205   H     0.96950   0.16544   0.10675   0.00000  Uiso   1.00
H206   H     0.69108   0.19839   0.38922   0.00000  Uiso   1.00
H207   H     0.99365   0.21750   0.46787   0.00000  Uiso   1.00
H208   H     0.99520   0.16119   0.02515   0.00000  Uiso   1.00
H209   H     0.84354   0.20828   0.07656   0.00000  Uiso   1.00
H210   H     0.81161   0.16720   0.41459   0.00000  Uiso   1.00
H211   H     0.94088   0.29383   0.22051   0.00000  Uiso   1.00
H212   H     0.72637   0.03959   0.27849   0.00000  Uiso   1.00
H213   H     0.85997   0.12736   0.30665   0.00000  Uiso   1.00
H214   H     0.80676   0.20567   0.19308   0.00000  Uiso   1.00
H215   H     0.77297   0.12761   0.30678   0.00000  Uiso   1.00
H216   H     0.89376   0.20544   0.19299   0.00000  Uiso   1.00
N217   N     0.78403   0.16668   0.24999   0.00000  Uiso   1.00
N218   N     0.88264   0.16666   0.25001   0.00000  Uiso   1.00
O219   O     0.70625   0.10655   0.25000   0.00000  Uiso   1.00
O220   O     0.96042   0.22678   0.25000   0.00000  Uiso   1.00
O221   O     0.96039   0.10654   0.25001   0.00000  Uiso   1.00
O222   O     0.70628   0.22679   0.24999   0.00000  Uiso   1.00
O223   O     0.68519   0.16668   0.31491   0.00000  Uiso   1.00
O224   O     0.98148   0.16666   0.18509   0.00000  Uiso   1.00
O225   O     0.93933   0.16667   0.31492   0.00000  Uiso   1.00
O226   O     0.72733   0.16667   0.18508   0.00000  Uiso   1.00
O227   O     0.79249   0.15340   0.11483   0.00000  Uiso   1.00
H228   H     0.81884   0.13715   0.09476   0.00000  Uiso   1.00
O229   O     0.88341   0.12999   0.39220   0.00000  Uiso   1.00
H230   H     0.90652   0.11222   0.37061   0.00000  Uiso   1.00
C231   C     0.93059   0.04013   0.21098   0.00000  Uiso   1.00
C232   C     0.88059   0.03822   0.23265   0.00000  Uiso   1.00
C233   C     0.84709   0.05774   0.21391   0.00000  Uiso   1.00
C234   C     0.86325   0.07920   0.17348   0.00000  Uiso   1.00
C235   C     0.91295   0.08104   0.15158   0.00000  Uiso   1.00
C236   C     0.94662   0.06157   0.17020   0.00000  Uiso   1.00
H237   H     0.86772   0.02225   0.26435   0.00000  Uiso   1.00
H238   H     0.80864   0.05651   0.23089   0.00000  Uiso   1.00
H239   H     0.83724   0.09443   0.15920   0.00000  Uiso   1.00
H240   H     0.92536   0.09757   0.12021   0.00000  Uiso   1.00
H241   H     0.98508   0.06342   0.15311   0.00000  Uiso   1.00
C242   C     0.73785   0.29378   0.28673   0.00000  Uiso   1.00
C243   C     0.72435   0.27890   0.33094   0.00000  Uiso   1.00
C244   C     0.75948   0.26195   0.34964   0.00000  Uiso   1.00
C245   C     0.80793   0.25921   0.32418   0.00000  Uiso   1.00
C246   C     0.82149   0.27398   0.28019   0.00000  Uiso   1.00
C247   C     0.78668   0.29141   0.26151   0.00000  Uiso   1.00
H248   H     0.68688   0.28082   0.35092   0.00000  Uiso   1.00
H249   H     0.74932   0.25115   0.38397   0.00000  Uiso   1.00
H250   H     0.83498   0.24582   0.33860   0.00000  Uiso   1.00
H251   H     0.85900   0.27195   0.26058   0.00000  Uiso   1.00
H252   H     0.79766   0.30288   0.22741   0.00000  Uiso   1.00
C253   C     0.00016   0.42075   0.24887   0.00000  Uiso   1.00
C254   C     0.33326   0.57928   0.25096   0.00000  Uiso   1.00
C255   C     0.18877   0.53138   0.04217   0.00000  Uiso   1.00
C256   C     0.13603   0.50031   0.45074   0.00000  Uiso   1.00
C257   C     0.23661   0.53980   0.01879   0.00000  Uiso   1.00
C258   C     0.08684   0.49804   0.47355   0.00000  Uiso   1.00
C259   C     0.29940   0.35369   0.23155   0.00000  Uiso   1.00
C260   C     0.03470   0.64646   0.26717   0.00000  Uiso   1.00
C261   C     0.29970   0.64442   0.23385   0.00000  Uiso   1.00
C262   C     0.03412   0.35568   0.26524   0.00000  Uiso   1.00
C263   C     0.00030   0.62392   0.25133   0.00000  Uiso   1.00
C264   C     0.00013   0.37615   0.24790   0.00000  Uiso   1.00
C265   C     0.18210   0.47832   0.28156   0.00000  Uiso   1.00
C266   C     0.15127   0.52149   0.21828   0.00000  Uiso   1.00
C267   C     0.13248   0.47839   0.28159   0.00000  Uiso   1.00
C268   C     0.20090   0.52142   0.21825   0.00000  Uiso   1.00
C269   C     0.30599   0.49969   0.33605   0.00000  Uiso   1.00
C270   C     0.02744   0.49927   0.16379   0.00000  Uiso   1.00
C271   C     0.29053   0.50360   0.38493   0.00000  Uiso   1.00
C272   C     0.04283   0.49882   0.11438   0.00000  Uiso   1.00
C273   C     0.30289   0.53530   0.45146   0.00000  Uiso   1.00
C274   C     0.02266   0.49699   0.04323   0.00000  Uiso   1.00
C275   C     0.32068   0.52394   0.40687   0.00000  Uiso   1.00
C276   C     0.00805   0.49877   0.08986   0.00000  Uiso   1.00
C277   C     0.24261   0.49254   0.40875   0.00000  Uiso   1.00
C278   C     0.09275   0.49756   0.09142   0.00000  Uiso   1.00
C279   C     0.22233   0.50907   0.45179   0.00000  Uiso   1.00
C280   C     0.10746   0.50345   0.04445   0.00000  Uiso   1.00
C281   C     0.25404   0.52810   0.47410   0.00000  Uiso   1.00
C282   C     0.07216   0.49936   0.02028   0.00000  Uiso   1.00
C283   C     0.17184   0.50615   0.47405   0.00000  Uiso   1.00
C284   C     0.15630   0.51266   0.02087   0.00000  Uiso   1.00
Cu285  Cu    0.04689   0.50001   0.25000   0.00000  Uiso   1.00
Cu286  Cu    0.28645   0.49999   0.25000   0.00000  Uiso   1.00
H287   H     0.26031   0.55480   0.03603   0.00000  Uiso   1.00
H288   H     0.06032   0.49473   0.45452   0.00000  Uiso   1.00
H289   H     0.30283   0.49877   0.10675   0.00000  Uiso   1.00
H290   H     0.02441   0.53172   0.38922   0.00000  Uiso   1.00
H291   H     0.32699   0.55083   0.46787   0.00000  Uiso   1.00
H292   H     0.32853   0.49452   0.02515   0.00000  Uiso   1.00
H293   H     0.17687   0.54161   0.07656   0.00000  Uiso   1.00
H294   H     0.14495   0.50053   0.41459   0.00000  Uiso   1.00
H295   H     0.27421   0.62716   0.22051   0.00000  Uiso   1.00
H296   H     0.05970   0.37292   0.27849   0.00000  Uiso   1.00
H297   H     0.19331   0.46070   0.30665   0.00000  Uiso   1.00
H298   H     0.14009   0.53900   0.19308   0.00000  Uiso   1.00
H299   H     0.10630   0.46094   0.30678   0.00000  Uiso   1.00
H300   H     0.22710   0.53878   0.19299   0.00000  Uiso   1.00
N301   N     0.11736   0.50001   0.24999   0.00000  Uiso   1.00
N302   N     0.21597   0.49999   0.25001   0.00000  Uiso   1.00
O303   O     0.03958   0.43989   0.25000   0.00000  Uiso   1.00
O304   O     0.29375   0.56011   0.25000   0.00000  Uiso   1.00
O305   O     0.29372   0.43988   0.25001   0.00000  Uiso   1.00
O306   O     0.03961   0.56012   0.24999   0.00000  Uiso   1.00
O307   O     0.01852   0.50001   0.31491   0.00000  Uiso   1.00
O308   O     0.31481   0.49999   0.18509   0.00000  Uiso   1.00
O309   O     0.27267   0.50000   0.31492   0.00000  Uiso   1.00
O310   O     0.06067   0.50000   0.18508   0.00000  Uiso   1.00
O311   O     0.12582   0.48674   0.11483   0.00000  Uiso   1.00
H312   H     0.15218   0.47048   0.09476   0.00000  Uiso   1.00
O313   O     0.21674   0.46332   0.39220   0.00000  Uiso   1.00
H314   H     0.23985   0.44555   0.37061   0.00000  Uiso   1.00
C315   C     0.26392   0.37346   0.21098   0.00000  Uiso   1.00
C316   C     0.21392   0.37156   0.23265   0.00000  Uiso   1.00
C317   C     0.18043   0.39108   0.21391   0.00000  Uiso   1.00
C318   C     0.19658   0.41253   0.17348   0.00000  Uiso   1.00
C319   C     0.24628   0.41437   0.15158   0.00000  Uiso   1.00
C320   C     0.27995   0.39490   0.17020   0.00000  Uiso   1.00
H321   H     0.20106   0.35558   0.26435   0.00000  Uiso   1.00
H322   H     0.14198   0.38985   0.23089   0.00000  Uiso   1.00
H323   H     0.17058   0.42777   0.15920   0.00000  Uiso   1.00
H324   H     0.25869   0.43090   0.12021   0.00000  Uiso   1.00
H325   H     0.31841   0.39675   0.15311   0.00000  Uiso   1.00
C326   C     0.07118   0.62711   0.28673   0.00000  Uiso   1.00
C327   C     0.05768   0.61223   0.33094   0.00000  Uiso   1.00
C328   C     0.09282   0.59528   0.34964   0.00000  Uiso   1.00
C329   C     0.14126   0.59254   0.32418   0.00000  Uiso   1.00
C330   C     0.15482   0.60731   0.28019   0.00000  Uiso   1.00
C331   C     0.12001   0.62474   0.26151   0.00000  Uiso   1.00
H332   H     0.02022   0.61415   0.35092   0.00000  Uiso   1.00
H333   H     0.08265   0.58449   0.38397   0.00000  Uiso   1.00
H334   H     0.16832   0.57915   0.33860   0.00000  Uiso   1.00
H335   H     0.19234   0.60529   0.26058   0.00000  Uiso   1.00
H336   H     0.13099   0.63622   0.22741   0.00000  Uiso   1.00
C337   C     0.33349   0.42075   0.24887   0.00000  Uiso   1.00
C338   C     0.66660   0.57928   0.25096   0.00000  Uiso   1.00
C339   C     0.52211   0.53138   0.04217   0.00000  Uiso   1.00
C340   C     0.46936   0.50031   0.45074   0.00000  Uiso   1.00
C341   C     0.56994   0.53980   0.01879   0.00000  Uiso   1.00
C342   C     0.42017   0.49804   0.47355   0.00000  Uiso   1.00
C343   C     0.63274   0.35369   0.23155   0.00000  Uiso   1.00
C344   C     0.36804   0.64646   0.26717   0.00000  Uiso   1.00
C345   C     0.63303   0.64442   0.23385   0.00000  Uiso   1.00
C346   C     0.36745   0.35568   0.26524   0.00000  Uiso   1.00
C347   C     0.33364   0.62392   0.25133   0.00000  Uiso   1.00
C348   C     0.33346   0.37615   0.24790   0.00000  Uiso   1.00
C349   C     0.51544   0.47832   0.28156   0.00000  Uiso   1.00
C350   C     0.48461   0.52149   0.21828   0.00000  Uiso   1.00
C351   C     0.46581   0.47839   0.28159   0.00000  Uiso   1.00
C352   C     0.53423   0.52142   0.21825   0.00000  Uiso   1.00
C353   C     0.63932   0.49969   0.33605   0.00000  Uiso   1.00
C354   C     0.36077   0.49927   0.16379   0.00000  Uiso   1.00
C355   C     0.62387   0.50360   0.38493   0.00000  Uiso   1.00
C356   C     0.37617   0.49882   0.11438   0.00000  Uiso   1.00
C357   C     0.63622   0.53530   0.45146   0.00000  Uiso   1.00
C358   C     0.35599   0.49699   0.04323   0.00000  Uiso   1.00
C359   C     0.65401   0.52394   0.40687   0.00000  Uiso   1.00
C360   C     0.34138   0.49877   0.08986   0.00000  Uiso   1.00
C361   C     0.57594   0.49254   0.40875   0.00000  Uiso   1.00
C362   C     0.42609   0.49756   0.09142   0.00000  Uiso   1.00
C363   C     0.55566   0.50907   0.45179   0.00000  Uiso   1.00
C364   C     0.44079   0.50345   0.04445   0.00000  Uiso   1.00
C365   C     0.58737   0.52810   0.47410   0.00000  Uiso   1.00
C366   C     0.40549   0.49936   0.02028   0.00000  Uiso   1.00
C367   C     0.50517   0.50615   0.47405   0.00000  Uiso   1.00
C368   C     0.48964   0.51266   0.02087   0.00000  Uiso   1.00
Cu369  Cu    0.38022   0.50001   0.25000   0.00000  Uiso   1.00
Cu370  Cu    0.61978   0.49999   0.25000   0.00000  Uiso   1.00
H371   H     0.59365   0.55480   0.03603   0.00000  Uiso   1.00
H372   H     0.39366   0.49473   0.45452   0.00000  Uiso   1.00
H373   H     0.63616   0.49877   0.10675   0.00000  Uiso   1.00
H374   H     0.35775   0.53172   0.38922   0.00000  Uiso   1.00
H375   H     0.66032   0.55083   0.46787   0.00000  Uiso   1.00
H376   H     0.66187   0.49452   0.02515   0.00000  Uiso   1.00
H377   H     0.51021   0.54161   0.07656   0.00000  Uiso   1.00
H378   H     0.47828   0.50053   0.41459   0.00000  Uiso   1.00
H379   H     0.60754   0.62716   0.22051   0.00000  Uiso   1.00
H380   H     0.39304   0.37292   0.27849   0.00000  Uiso   1.00
H381   H     0.52664   0.46070   0.30665   0.00000  Uiso   1.00
H382   H     0.47343   0.53900   0.19308   0.00000  Uiso   1.00
H383   H     0.43964   0.46094   0.30678   0.00000  Uiso   1.00
H384   H     0.56043   0.53878   0.19299   0.00000  Uiso   1.00
N385   N     0.45069   0.50001   0.24999   0.00000  Uiso   1.00
N386   N     0.54931   0.49999   0.25001   0.00000  Uiso   1.00
O387   O     0.37291   0.43989   0.25000   0.00000  Uiso   1.00
O388   O     0.62709   0.56011   0.25000   0.00000  Uiso   1.00
O389   O     0.62706   0.43988   0.25001   0.00000  Uiso   1.00
O390   O     0.37294   0.56012   0.24999   0.00000  Uiso   1.00
O391   O     0.35186   0.50001   0.31491   0.00000  Uiso   1.00
O392   O     0.64814   0.49999   0.18509   0.00000  Uiso   1.00
O393   O     0.60600   0.50000   0.31492   0.00000  Uiso   1.00
O394   O     0.39400   0.50000   0.18508   0.00000  Uiso   1.00
O395   O     0.45916   0.48674   0.11483   0.00000  Uiso   1.00
H396   H     0.48551   0.47048   0.09476   0.00000  Uiso   1.00
O397   O     0.55008   0.46332   0.39220   0.00000  Uiso   1.00
H398   H     0.57318   0.44555   0.37061   0.00000  Uiso   1.00
C399   C     0.59726   0.37346   0.21098   0.00000  Uiso   1.00
C400   C     0.54726   0.37156   0.23265   0.00000  Uiso   1.00
C401   C     0.51376   0.39108   0.21391   0.00000  Uiso   1.00
C402   C     0.52992   0.41253   0.17348   0.00000  Uiso   1.00
C403   C     0.57962   0.41437   0.15158   0.00000  Uiso   1.00
C404   C     0.61328   0.39490   0.17020   0.00000  Uiso   1.00
H405   H     0.53439   0.35558   0.26435   0.00000  Uiso   1.00
H406   H     0.47531   0.38985   0.23089   0.00000  Uiso   1.00
H407   H     0.50391   0.42777   0.15920   0.00000  Uiso   1.00
H408   H     0.59203   0.43090   0.12021   0.00000  Uiso   1.00
H409   H     0.65174   0.39675   0.15311   0.00000  Uiso   1.00
C410   C     0.40451   0.62711   0.28673   0.00000  Uiso   1.00
C411   C     0.39102   0.61223   0.33094   0.00000  Uiso   1.00
C412   C     0.42615   0.59528   0.34964   0.00000  Uiso   1.00
C413   C     0.47459   0.59254   0.32418   0.00000  Uiso   1.00
C414   C     0.48816   0.60731   0.28019   0.00000  Uiso   1.00
C415   C     0.45334   0.62474   0.26151   0.00000  Uiso   1.00
H416   H     0.35355   0.61415   0.35092   0.00000  Uiso   1.00
H417   H     0.41598   0.58449   0.38397   0.00000  Uiso   1.00
H418   H     0.50165   0.57915   0.33860   0.00000  Uiso   1.00
H419   H     0.52567   0.60529   0.26058   0.00000  Uiso   1.00
H420   H     0.46433   0.63622   0.22741   0.00000  Uiso   1.00
C421   C     0.66682   0.42075   0.24887   0.00000  Uiso   1.00
C422   C     0.99993   0.57928   0.25096   0.00000  Uiso   1.00
C423   C     0.85544   0.53138   0.04217   0.00000  Uiso   1.00
C424   C     0.80269   0.50031   0.45074   0.00000  Uiso   1.00
C425   C     0.90328   0.53980   0.01879   0.00000  Uiso   1.00
C426   C     0.75351   0.49804   0.47355   0.00000  Uiso   1.00
C427   C     0.96607   0.35369   0.23155   0.00000  Uiso   1.00
C428   C     0.70137   0.64646   0.26717   0.00000  Uiso   1.00
C429   C     0.96636   0.64442   0.23385   0.00000  Uiso   1.00
C430   C     0.70078   0.35568   0.26524   0.00000  Uiso   1.00
C431   C     0.66697   0.62392   0.25133   0.00000  Uiso   1.00
C432   C     0.66680   0.37615   0.24790   0.00000  Uiso   1.00
C433   C     0.84877   0.47832   0.28156   0.00000  Uiso   1.00
C434   C     0.81794   0.52149   0.21828   0.00000  Uiso   1.00
C435   C     0.79915   0.47839   0.28159   0.00000  Uiso   1.00
C436   C     0.86757   0.52142   0.21825   0.00000  Uiso   1.00
C437   C     0.97266   0.49969   0.33605   0.00000  Uiso   1.00
C438   C     0.69411   0.49927   0.16379   0.00000  Uiso   1.00
C439   C     0.95720   0.50360   0.38493   0.00000  Uiso   1.00
C440   C     0.70950   0.49882   0.11438   0.00000  Uiso   1.00
C441   C     0.96956   0.53530   0.45146   0.00000  Uiso   1.00
C442   C     0.68933   0.49699   0.04323   0.00000  Uiso   1.00
C443   C     0.98735   0.52394   0.40687   0.00000  Uiso   1.00
C444   C     0.67471   0.49877   0.08986   0.00000  Uiso   1.00
C445   C     0.90927   0.49254   0.40875   0.00000  Uiso   1.00
C446   C     0.75942   0.49756   0.09142   0.00000  Uiso   1.00
C447   C     0.88899   0.50907   0.45179   0.00000  Uiso   1.00
C448   C     0.77413   0.50345   0.04445   0.00000  Uiso   1.00
C449   C     0.92070   0.52810   0.47410   0.00000  Uiso   1.00
C450   C     0.73882   0.49936   0.02028   0.00000  Uiso   1.00
C451   C     0.83851   0.50615   0.47405   0.00000  Uiso   1.00
C452   C     0.82297   0.51266   0.02087   0.00000  Uiso   1.00
Cu453  Cu    0.71355   0.50001   0.25000   0.00000  Uiso   1.00
Cu454  Cu    0.95311   0.49999   0.25000   0.00000  Uiso   1.00
H455   H     0.92698   0.55480   0.03603   0.00000  Uiso   1.00
H456   H     0.72699   0.49473   0.45452   0.00000  Uiso   1.00
H457   H     0.96950   0.49877   0.10675   0.00000  Uiso   1.00
H458   H     0.69108   0.53172   0.38922   0.00000  Uiso   1.00
H459   H     0.99365   0.55083   0.46787   0.00000  Uiso   1.00
H460   H     0.99520   0.49452   0.02515   0.00000  Uiso   1.00
H461   H     0.84354   0.54161   0.07656   0.00000  Uiso   1.00
H462   H     0.81161   0.50053   0.41459   0.00000  Uiso   1.00
H463   H     0.94088   0.62716   0.22051   0.00000  Uiso   1.00
H464   H     0.72637   0.37292   0.27849   0.00000  Uiso   1.00
H465   H     0.85997   0.46070   0.30665   0.00000  Uiso   1.00
H466   H     0.80676   0.53900   0.19308   0.00000  Uiso   1.00
H467   H     0.77297   0.46094   0.30678   0.00000  Uiso   1.00
H468   H     0.89376   0.53878   0.19299   0.00000  Uiso   1.00
N469   N     0.78403   0.50001   0.24999   0.00000  Uiso   1.00
N470   N     0.88264   0.49999   0.25001   0.00000  Uiso   1.00
O471   O     0.70625   0.43989   0.25000   0.00000  Uiso   1.00
O472   O     0.96042   0.56011   0.25000   0.00000  Uiso   1.00
O473   O     0.96039   0.43988   0.25001   0.00000  Uiso   1.00
O474   O     0.70628   0.56012   0.24999   0.00000  Uiso   1.00
O475   O     0.68519   0.50001   0.31491   0.00000  Uiso   1.00
O476   O     0.98148   0.49999   0.18509   0.00000  Uiso   1.00
O477   O     0.93933   0.50000   0.31492   0.00000  Uiso   1.00
O478   O     0.72733   0.50000   0.18508   0.00000  Uiso   1.00
O479   O     0.79249   0.48674   0.11483   0.00000  Uiso   1.00
H480   H     0.81884   0.47048   0.09476   0.00000  Uiso   1.00
O481   O     0.88341   0.46332   0.39220   0.00000  Uiso   1.00
H482   H     0.90652   0.44555   0.37061   0.00000  Uiso   1.00
C483   C     0.93059   0.37346   0.21098   0.00000  Uiso   1.00
C484   C     0.88059   0.37156   0.23265   0.00000  Uiso   1.00
C485   C     0.84709   0.39108   0.21391   0.00000  Uiso   1.00
C486   C     0.86325   0.41253   0.17348   0.00000  Uiso   1.00
C487   C     0.91295   0.41437   0.15158   0.00000  Uiso   1.00
C488   C     0.94662   0.39490   0.17020   0.00000  Uiso   1.00
H489   H     0.86772   0.35558   0.26435   0.00000  Uiso   1.00
H490   H     0.80864   0.38985   0.23089   0.00000  Uiso   1.00
H491   H     0.83724   0.42777   0.15920   0.00000  Uiso   1.00
H492   H     0.92536   0.43090   0.12021   0.00000  Uiso   1.00
H493   H     0.98508   0.39675   0.15311   0.00000  Uiso   1.00
C494   C     0.73785   0.62711   0.28673   0.00000  Uiso   1.00
C495   C     0.72435   0.61223   0.33094   0.00000  Uiso   1.00
C496   C     0.75948   0.59528   0.34964   0.00000  Uiso   1.00
C497   C     0.80793   0.59254   0.32418   0.00000  Uiso   1.00
C498   C     0.82149   0.60731   0.28019   0.00000  Uiso   1.00
C499   C     0.78668   0.62474   0.26151   0.00000  Uiso   1.00
H500   H     0.68688   0.61415   0.35092   0.00000  Uiso   1.00
H501   H     0.74932   0.58449   0.38397   0.00000  Uiso   1.00
H502   H     0.83498   0.57915   0.33860   0.00000  Uiso   1.00
H503   H     0.85900   0.60529   0.26058   0.00000  Uiso   1.00
H504   H     0.79766   0.63622   0.22741   0.00000  Uiso   1.00
C505   C     0.00016   0.75409   0.24887   0.00000  Uiso   1.00
C506   C     0.33326   0.91261   0.25096   0.00000  Uiso   1.00
C507   C     0.18877   0.86471   0.04217   0.00000  Uiso   1.00
C508   C     0.13603   0.83365   0.45074   0.00000  Uiso   1.00
C509   C     0.23661   0.87313   0.01879   0.00000  Uiso   1.00
C510   C     0.08684   0.83138   0.47355   0.00000  Uiso   1.00
C511   C     0.29940   0.68702   0.23155   0.00000  Uiso   1.00
C512   C     0.03470   0.97979   0.26717   0.00000  Uiso   1.00
C513   C     0.29970   0.97775   0.23385   0.00000  Uiso   1.00
C514   C     0.03412   0.68901   0.26524   0.00000  Uiso   1.00
C515   C     0.00030   0.95726   0.25133   0.00000  Uiso   1.00
C516   C     0.00013   0.70948   0.24790   0.00000  Uiso   1.00
C517   C     0.18210   0.81166   0.28156   0.00000  Uiso   1.00
C518   C     0.15127   0.85482   0.21828   0.00000  Uiso   1.00
C519   C     0.13248   0.81172   0.28159   0.00000  Uiso   1.00
C520   C     0.20090   0.85475   0.21825   0.00000  Uiso   1.00
C521   C     0.30599   0.83302   0.33605   0.00000  Uiso   1.00
C522   C     0.02744   0.83261   0.16379   0.00000  Uiso   1.00
C523   C     0.29053   0.83693   0.38493   0.00000  Uiso   1.00
C524   C     0.04283   0.83215   0.11438   0.00000  Uiso   1.00
C525   C     0.30289   0.86863   0.45146   0.00000  Uiso   1.00
C526   C     0.02266   0.83033   0.04323   0.00000  Uiso   1.00
C527   C     0.32068   0.85727   0.40687   0.00000  Uiso   1.00
C528   C     0.00805   0.83210   0.08986   0.00000  Uiso   1.00
C529   C     0.24261   0.82587   0.40875   0.00000  Uiso   1.00
C530   C     0.09275   0.83090   0.09142   0.00000  Uiso   1.00
C531   C     0.22233   0.84240   0.45179   0.00000  Uiso   1.00
C532   C     0.10746   0.83679   0.04445   0.00000  Uiso   1.00
C533   C     0.25404   0.86144   0.47410   0.00000  Uiso   1.00
C534   C     0.07216   0.83270   0.02028   0.00000  Uiso   1.00
C535   C     0.17184   0.83948   0.47405   0.00000  Uiso   1.00
C536   C     0.15630   0.84599   0.02087   0.00000  Uiso   1.00
Cu537  Cu    0.04689   0.83334   0.25000   0.00000  Uiso   1.00
Cu538  Cu    0.28645   0.83333   0.25000   0.00000  Uiso   1.00
H539   H     0.26031   0.88814   0.03603   0.00000  Uiso   1.00
H540   H     0.06032   0.82806   0.45452   0.00000  Uiso   1.00
H541   H     0.30283   0.83211   0.10675   0.00000  Uiso   1.00
H542   H     0.02441   0.86505   0.38922   0.00000  Uiso   1.00
H543   H     0.32699   0.88417   0.46787   0.00000  Uiso   1.00
H544   H     0.32853   0.82785   0.02515   0.00000  Uiso   1.00
H545   H     0.17687   0.87494   0.07656   0.00000  Uiso   1.00
H546   H     0.14495   0.83387   0.41459   0.00000  Uiso   1.00
H547   H     0.27421   0.96050   0.22051   0.00000  Uiso   1.00
H548   H     0.05970   0.70625   0.27849   0.00000  Uiso   1.00
H549   H     0.19331   0.79403   0.30665   0.00000  Uiso   1.00
H550   H     0.14009   0.87233   0.19308   0.00000  Uiso   1.00
H551   H     0.10630   0.79428   0.30678   0.00000  Uiso   1.00
H552   H     0.22710   0.87211   0.19299   0.00000  Uiso   1.00
N553   N     0.11736   0.83334   0.24999   0.00000  Uiso   1.00
N554   N     0.21597   0.83332   0.25001   0.00000  Uiso   1.00
O555   O     0.03958   0.77322   0.25000   0.00000  Uiso   1.00
O556   O     0.29375   0.89345   0.25000   0.00000  Uiso   1.00
O557   O     0.29372   0.77321   0.25001   0.00000  Uiso   1.00
O558   O     0.03961   0.89346   0.24999   0.00000  Uiso   1.00
O559   O     0.01852   0.83334   0.31491   0.00000  Uiso   1.00
O560   O     0.31481   0.83332   0.18509   0.00000  Uiso   1.00
O561   O     0.27267   0.83333   0.31492   0.00000  Uiso   1.00
O562   O     0.06067   0.83333   0.18508   0.00000  Uiso   1.00
O563   O     0.12582   0.82007   0.11483   0.00000  Uiso   1.00
H564   H     0.15218   0.80381   0.09476   0.00000  Uiso   1.00
O565   O     0.21674   0.79665   0.39220   0.00000  Uiso   1.00
H566   H     0.23985   0.77888   0.37061   0.00000  Uiso   1.00
C567   C     0.26392   0.70679   0.21098   0.00000  Uiso   1.00
C568   C     0.21392   0.70489   0.23265   0.00000  Uiso   1.00
C569   C     0.18043   0.72441   0.21391   0.00000  Uiso   1.00
C570   C     0.19658   0.74587   0.17348   0.00000  Uiso   1.00
C571   C     0.24628   0.74771   0.15158   0.00000  Uiso   1.00
C572   C     0.27995   0.72823   0.17020   0.00000  Uiso   1.00
H573   H     0.20106   0.68891   0.26435   0.00000  Uiso   1.00
H574   H     0.14198   0.72318   0.23089   0.00000  Uiso   1.00
H575   H     0.17058   0.76110   0.15920   0.00000  Uiso   1.00
H576   H     0.25869   0.76423   0.12021   0.00000  Uiso   1.00
H577   H     0.31841   0.73009   0.15311   0.00000  Uiso   1.00
C578   C     0.07118   0.96044   0.28673   0.00000  Uiso   1.00
C579   C     0.05768   0.94556   0.33094   0.00000  Uiso   1.00
C580   C     0.09282   0.92862   0.34964   0.00000  Uiso   1.00
C581   C     0.14126   0.92588   0.32418   0.00000  Uiso   1.00
C582   C     0.15482   0.94065   0.28019   0.00000  Uiso   1.00
C583   C     0.12001   0.95808   0.26151   0.00000  Uiso   1.00
H584   H     0.02022   0.94749   0.35092   0.00000  Uiso   1.00
H585   H     0.08265   0.91782   0.38397   0.00000  Uiso   1.00
H586   H     0.16832   0.91249   0.33860   0.00000  Uiso   1.00
H587   H     0.19234   0.93862   0.26058   0.00000  Uiso   1.00
H588   H     0.13099   0.96955   0.22741   0.00000  Uiso   1.00
C589   C     0.33349   0.75409   0.24887   0.00000  Uiso   1.00
C590   C     0.66660   0.91261   0.25096   0.00000  Uiso   1.00
C591   C     0.52211   0.86471   0.04217   0.00000  Uiso   1.00
C592   C     0.46936   0.83365   0.45074   0.00000  Uiso   1.00
C593   C     0.56994   0.87313   0.01879   0.00000  Uiso   1.00
C594   C     0.42017   0.83138   0.47355   0.00000  Uiso   1.00
C595   C     0.63274   0.68702   0.23155   0.00000  Uiso   1.00
C596   C     0.36804   0.97979   0.26717   0.00000  Uiso   1.00
C597   C     0.63303   0.97775   0.23385   0.00000  Uiso   1.00
C598   C     0.36745   0.68901   0.26524   0.00000  Uiso   1.00
C599   C     0.33364   0.95726   0.25133   0.00000  Uiso   1.00
C600   C     0.33346   0.70948   0.24790   0.00000  Uiso   1.00
C601   C     0.51544   0.81166   0.28156   0.00000  Uiso   1.00
C602   C     0.48461   0.85482   0.21828   0.00000  Uiso   1.00
C603   C     0.46581   0.81172   0.28159   0.00000  Uiso   1.00
C604   C     0.53423   0.85475   0.21825   0.00000  Uiso   1.00
C605   C     0.63932   0.83302   0.33605   0.00000  Uiso   1.00
C606   C     0.36077   0.83261   0.16379   0.00000  Uiso   1.00
C607   C     0.62387   0.83693   0.38493   0.00000  Uiso   1.00
C608   C     0.37617   0.83215   0.11438   0.00000  Uiso   1.00
C609   C     0.63622   0.86863   0.45146   0.00000  Uiso   1.00
C610   C     0.35599   0.83033   0.04323   0.00000  Uiso   1.00
C611   C     0.65401   0.85727   0.40687   0.00000  Uiso   1.00
C612   C     0.34138   0.83210   0.08986   0.00000  Uiso   1.00
C613   C     0.57594   0.82587   0.40875   0.00000  Uiso   1.00
C614   C     0.42609   0.83090   0.09142   0.00000  Uiso   1.00
C615   C     0.55566   0.84240   0.45179   0.00000  Uiso   1.00
C616   C     0.44079   0.83679   0.04445   0.00000  Uiso   1.00
C617   C     0.58737   0.86144   0.47410   0.00000  Uiso   1.00
C618   C     0.40549   0.83270   0.02028   0.00000  Uiso   1.00
C619   C     0.50517   0.83948   0.47405   0.00000  Uiso   1.00
C620   C     0.48964   0.84599   0.02087   0.00000  Uiso   1.00
Cu621  Cu    0.38022   0.83334   0.25000   0.00000  Uiso   1.00
Cu622  Cu    0.61978   0.83333   0.25000   0.00000  Uiso   1.00
H623   H     0.59365   0.88814   0.03603   0.00000  Uiso   1.00
H624   H     0.39366   0.82806   0.45452   0.00000  Uiso   1.00
H625   H     0.63616   0.83211   0.10675   0.00000  Uiso   1.00
H626   H     0.35775   0.86505   0.38922   0.00000  Uiso   1.00
H627   H     0.66032   0.88417   0.46787   0.00000  Uiso   1.00
H628   H     0.66187   0.82785   0.02515   0.00000  Uiso   1.00
H629   H     0.51021   0.87494   0.07656   0.00000  Uiso   1.00
H630   H     0.47828   0.83387   0.41459   0.00000  Uiso   1.00
H631   H     0.60754   0.96050   0.22051   0.00000  Uiso   1.00
H632   H     0.39304   0.70625   0.27849   0.00000  Uiso   1.00
H633   H     0.52664   0.79403   0.30665   0.00000  Uiso   1.00
H634   H     0.47343   0.87233   0.19308   0.00000  Uiso   1.00
H635   H     0.43964   0.79428   0.30678   0.00000  Uiso   1.00
H636   H     0.56043   0.87211   0.19299   0.00000  Uiso   1.00
N637   N     0.45069   0.83334   0.24999   0.00000  Uiso   1.00
N638   N     0.54931   0.83332   0.25001   0.00000  Uiso   1.00
O639   O     0.37291   0.77322   0.25000   0.00000  Uiso   1.00
O640   O     0.62709   0.89345   0.25000   0.00000  Uiso   1.00
O641   O     0.62706   0.77321   0.25001   0.00000  Uiso   1.00
O642   O     0.37294   0.89346   0.24999   0.00000  Uiso   1.00
O643   O     0.35186   0.83334   0.31491   0.00000  Uiso   1.00
O644   O     0.64814   0.83332   0.18509   0.00000  Uiso   1.00
O645   O     0.60600   0.83333   0.31492   0.00000  Uiso   1.00
O646   O     0.39400   0.83333   0.18508   0.00000  Uiso   1.00
O647   O     0.45916   0.82007   0.11483   0.00000  Uiso   1.00
H648   H     0.48551   0.80381   0.09476   0.00000  Uiso   1.00
O649   O     0.55008   0.79665   0.39220   0.00000  Uiso   1.00
H650   H     0.57318   0.77888   0.37061   0.00000  Uiso   1.00
C651   C     0.59726   0.70679   0.21098   0.00000  Uiso   1.00
C652   C     0.54726   0.70489   0.23265   0.00000  Uiso   1.00
C653   C     0.51376   0.72441   0.21391   0.00000  Uiso   1.00
C654   C     0.52992   0.74587   0.17348   0.00000  Uiso   1.00
C655   C     0.57962   0.74771   0.15158   0.00000  Uiso   1.00
C656   C     0.61328   0.72823   0.17020   0.00000  Uiso   1.00
H657   H     0.53439   0.68891   0.26435   0.00000  Uiso   1.00
H658   H     0.47531   0.72318   0.23089   0.00000  Uiso   1.00
H659   H     0.50391   0.76110   0.15920   0.00000  Uiso   1.00
H660   H     0.59203   0.76423   0.12021   0.00000  Uiso   1.00
H661   H     0.65174   0.73009   0.15311   0.00000  Uiso   1.00
C662   C     0.40451   0.96044   0.28673   0.00000  Uiso   1.00
C663   C     0.39102   0.94556   0.33094   0.00000  Uiso   1.00
C664   C     0.42615   0.92862   0.34964   0.00000  Uiso   1.00
C665   C     0.47459   0.92588   0.32418   0.00000  Uiso   1.00
C666   C     0.48816   0.94065   0.28019   0.00000  Uiso   1.00
C667   C     0.45334   0.95808   0.26151   0.00000  Uiso   1.00
H668   H     0.35355   0.94749   0.35092   0.00000  Uiso   1.00
H669   H     0.41598   0.91782   0.38397   0.00000  Uiso   1.00
H670   H     0.50165   0.91249   0.33860   0.00000  Uiso   1.00
H671   H     0.52567   0.93862   0.26058   0.00000  Uiso   1.00
H672   H     0.46433   0.96955   0.22741   0.00000  Uiso   1.00
C673   C     0.66682   0.75409   0.24887   0.00000  Uiso   1.00
C674   C     0.99993   0.91261   0.25096   0.00000  Uiso   1.00
C675   C     0.85544   0.86471   0.04217   0.00000  Uiso   1.00
C676   C     0.80269   0.83365   0.45074   0.00000  Uiso   1.00
C677   C     0.90328   0.87313   0.01879   0.00000  Uiso   1.00
C678   C     0.75351   0.83138   0.47355   0.00000  Uiso   1.00
C679   C     0.96607   0.68702   0.23155   0.00000  Uiso   1.00
C680   C     0.70137   0.97979   0.26717   0.00000  Uiso   1.00
C681   C     0.96636   0.97775   0.23385   0.00000  Uiso   1.00
C682   C     0.70078   0.68901   0.26524   0.00000  Uiso   1.00
C683   C     0.66697   0.95726   0.25133   0.00000  Uiso   1.00
C684   C     0.66680   0.70948   0.24790   0.00000  Uiso   1.00
C685   C     0.84877   0.81166   0.28156   0.00000  Uiso   1.00
C686   C     0.81794   0.85482   0.21828   0.00000  Uiso   1.00
C687   C     0.79915   0.81172   0.28159   0.00000  Uiso   1.00
C688   C     0.86757   0.85475   0.21825   0.00000  Uiso   1.00
C689   C     0.97266   0.83302   0.33605   0.00000  Uiso   1.00
C690   C     0.69411   0.83261   0.16379   0.00000  Uiso   1.00
C691   C     0.95720   0.83693   0.38493   0.00000  Uiso   1.00
C692   C     0.70950   0.83215   0.11438   0.00000  Uiso   1.00
C693   C     0.96956   0.86863   0.45146   0.00000  Uiso   1.00
C694   C     0.68933   0.83033   0.04323   0.00000  Uiso   1.00
C695   C     0.98735   0.85727   0.40687   0.00000  Uiso   1.00
C696   C     0.67471   0.83210   0.08986   0.00000  Uiso   1.00
C697   C     0.90927   0.82587   0.40875   0.00000  Uiso   1.00
C698   C     0.75942   0.83090   0.09142   0.00000  Uiso   1.00
C699   C     0.88899   0.84240   0.45179   0.00000  Uiso   1.00
C700   C     0.77413   0.83679   0.04445   0.00000  Uiso   1.00
C701   C     0.92070   0.86144   0.47410   0.00000  Uiso   1.00
C702   C     0.73882   0.83270   0.02028   0.00000  Uiso   1.00
C703   C     0.83851   0.83948   0.47405   0.00000  Uiso   1.00
C704   C     0.82297   0.84599   0.02087   0.00000  Uiso   1.00
Cu705  Cu    0.71355   0.83334   0.25000   0.00000  Uiso   1.00
Cu706  Cu    0.95311   0.83333   0.25000   0.00000  Uiso   1.00
H707   H     0.92698   0.88814   0.03603   0.00000  Uiso   1.00
H708   H     0.72699   0.82806   0.45452   0.00000  Uiso   1.00
H709   H     0.96950   0.83211   0.10675   0.00000  Uiso   1.00
H710   H     0.69108   0.86505   0.38922   0.00000  Uiso   1.00
H711   H     0.99365   0.88417   0.46787   0.00000  Uiso   1.00
H712   H     0.99520   0.82785   0.02515   0.00000  Uiso   1.00
H713   H     0.84354   0.87494   0.07656   0.00000  Uiso   1.00
H714   H     0.81161   0.83387   0.41459   0.00000  Uiso   1.00
H715   H     0.94088   0.96050   0.22051   0.00000  Uiso   1.00
H716   H     0.72637   0.70625   0.27849   0.00000  Uiso   1.00
H717   H     0.85997   0.79403   0.30665   0.00000  Uiso   1.00
H718   H     0.80676   0.87233   0.19308   0.00000  Uiso   1.00
H719   H     0.77297   0.79428   0.30678   0.00000  Uiso   1.00
H720   H     0.89376   0.87211   0.19299   0.00000  Uiso   1.00
N721   N     0.78403   0.83334   0.24999   0.00000  Uiso   1.00
N722   N     0.88264   0.83332   0.25001   0.00000  Uiso   1.00
O723   O     0.70625   0.77322   0.25000   0.00000  Uiso   1.00
O724   O     0.96042   0.89345   0.25000   0.00000  Uiso   1.00
O725   O     0.96039   0.77321   0.25001   0.00000  Uiso   1.00
O726   O     0.70628   0.89346   0.24999   0.00000  Uiso   1.00
O727   O     0.68519   0.83334   0.31491   0.00000  Uiso   1.00
O728   O     0.98148   0.83332   0.18509   0.00000  Uiso   1.00
O729   O     0.93933   0.83333   0.31492   0.00000  Uiso   1.00
O730   O     0.72733   0.83333   0.18508   0.00000  Uiso   1.00
O731   O     0.79249   0.82007   0.11483   0.00000  Uiso   1.00
H732   H     0.81884   0.80381   0.09476   0.00000  Uiso   1.00
O733   O     0.88341   0.79665   0.39220   0.00000  Uiso   1.00
H734   H     0.90652   0.77888   0.37061   0.00000  Uiso   1.00
C735   C     0.93059   0.70679   0.21098   0.00000  Uiso   1.00
C736   C     0.88059   0.70489   0.23265   0.00000  Uiso   1.00
C737   C     0.84709   0.72441   0.21391   0.00000  Uiso   1.00
C738   C     0.86325   0.74587   0.17348   0.00000  Uiso   1.00
C739   C     0.91295   0.74771   0.15158   0.00000  Uiso   1.00
C740   C     0.94662   0.72823   0.17020   0.00000  Uiso   1.00
H741   H     0.86772   0.68891   0.26435   0.00000  Uiso   1.00
H742   H     0.80864   0.72318   0.23089   0.00000  Uiso   1.00
H743   H     0.83724   0.76110   0.15920   0.00000  Uiso   1.00
H744   H     0.92536   0.76423   0.12021   0.00000  Uiso   1.00
H745   H     0.98508   0.73009   0.15311   0.00000  Uiso   1.00
C746   C     0.73785   0.96044   0.28673   0.00000  Uiso   1.00
C747   C     0.72435   0.94556   0.33094   0.00000  Uiso   1.00
C748   C     0.75948   0.92862   0.34964   0.00000  Uiso   1.00
C749   C     0.80793   0.92588   0.32418   0.00000  Uiso   1.00
C750   C     0.82149   0.94065   0.28019   0.00000  Uiso   1.00
C751   C     0.78668   0.95808   0.26151   0.00000  Uiso   1.00
H752   H     0.68688   0.94749   0.35092   0.00000  Uiso   1.00
H753   H     0.74932   0.91782   0.38397   0.00000  Uiso   1.00
H754   H     0.83498   0.91249   0.33860   0.00000  Uiso   1.00
H755   H     0.85900   0.93862   0.26058   0.00000  Uiso   1.00
H756   H     0.79766   0.96955   0.22741   0.00000  Uiso   1.00
C757   C     0.00016   0.08742   0.74887   0.00000  Uiso   1.00
C758   C     0.33326   0.24594   0.75096   0.00000  Uiso   1.00
C759   C     0.18877   0.19805   0.54217   0.00000  Uiso   1.00
C760   C     0.13603   0.16698   0.95074   0.00000  Uiso   1.00
C761   C     0.23661   0.20647   0.51879   0.00000  Uiso   1.00
C762   C     0.08684   0.16471   0.97355   0.00000  Uiso   1.00
C763   C     0.29940   0.02036   0.73155   0.00000  Uiso   1.00
C764   C     0.03470   0.31312   0.76717   0.00000  Uiso   1.00
C765   C     0.29970   0.31108   0.73385   0.00000  Uiso   1.00
C766   C     0.03412   0.02235   0.76524   0.00000  Uiso   1.00
C767   C     0.00030   0.29059   0.75133   0.00000  Uiso   1.00
C768   C     0.00013   0.04281   0.74790   0.00000  Uiso   1.00
C769   C     0.18210   0.14499   0.78156   0.00000  Uiso   1.00
C770   C     0.15127   0.18815   0.71828   0.00000  Uiso   1.00
C771   C     0.13248   0.14506   0.78159   0.00000  Uiso   1.00
C772   C     0.20090   0.18809   0.71825   0.00000  Uiso   1.00
C773   C     0.30599   0.16636   0.83605   0.00000  Uiso   1.00
C774   C     0.02744   0.16594   0.66379   0.00000  Uiso   1.00
C775   C     0.29053   0.17027   0.88493   0.00000  Uiso   1.00
C776   C     0.04283   0.16548   0.61438   0.00000  Uiso   1.00
C777   C     0.30289   0.20196   0.95146   0.00000  Uiso   1.00
C778   C     0.02266   0.16366   0.54323   0.00000  Uiso   1.00
C779   C     0.32068   0.19061   0.90687   0.00000  Uiso   1.00
C780   C     0.00805   0.16543   0.58986   0.00000  Uiso   1.00
C781   C     0.24261   0.15920   0.90875   0.00000  Uiso   1.00
C782   C     0.09275   0.16423   0.59142   0.00000  Uiso   1.00
C783   C     0.22233   0.17574   0.95179   0.00000  Uiso   1.00
C784   C     0.10746   0.17012   0.54445   0.00000  Uiso   1.00
C785   C     0.25404   0.19477   0.97410   0.00000  Uiso   1.00
C786   C     0.07216   0.16603   0.52028   0.00000  Uiso   1.00
C787   C     0.17184   0.17282   0.97405   0.00000  Uiso   1.00
C788   C     0.15630   0.17932   0.52087   0.00000  Uiso   1.00
Cu789  Cu    0.04689   0.16667   0.75000   0.00000  Uiso   1.00
Cu790  Cu    0.28645   0.16666   0.75000   0.00000  Uiso   1.00
H791   H     0.26031   0.22147   0.53603   0.00000  Uiso   1.00
H792   H     0.06032   0.16140   0.95452   0.00000  Uiso   1.00
H793   H     0.30283   0.16544   0.60675   0.00000  Uiso   1.00
H794   H     0.02441   0.19839   0.88922   0.00000  Uiso   1.00
H795   H     0.32699   0.21750   0.96787   0.00000  Uiso   1.00
H796   H     0.32853   0.16119   0.52515   0.00000  Uiso   1.00
H797   H     0.17687   0.20828   0.57656   0.00000  Uiso   1.00
H798   H     0.14495   0.16720   0.91459   0.00000  Uiso   1.00
H799   H     0.27421   0.29383   0.72051   0.00000  Uiso   1.00
H800   H     0.05970   0.03959   0.77849   0.00000  Uiso   1.00
H801   H     0.19331   0.12736   0.80665   0.00000  Uiso   1.00
H802   H     0.14009   0.20567   0.69308   0.00000  Uiso   1.00
H803   H     0.10630   0.12761   0.80678   0.00000  Uiso   1.00
H804   H     0.22710   0.20544   0.69299   0.00000  Uiso   1.00
N805   N     0.11736   0.16668   0.74999   0.00000  Uiso   1.00
N806   N     0.21597   0.16666   0.75001   0.00000  Uiso   1.00
O807   O     0.03958   0.10655   0.75000   0.00000  Uiso   1.00
O808   O     0.29375   0.22678   0.75000   0.00000  Uiso   1.00
O809   O     0.29372   0.10654   0.75001   0.00000  Uiso   1.00
O810   O     0.03961   0.22679   0.74999   0.00000  Uiso   1.00
O811   O     0.01852   0.16668   0.81491   0.00000  Uiso   1.00
O812   O     0.31481   0.16666   0.68509   0.00000  Uiso   1.00
O813   O     0.27267   0.16667   0.81492   0.00000  Uiso   1.00
O814   O     0.06067   0.16667   0.68508   0.00000  Uiso   1.00
O815   O     0.12582   0.15340   0.61483   0.00000  Uiso   1.00
H816   H     0.15218   0.13715   0.59476   0.00000  Uiso   1.00
O817   O     0.21674   0.12999   0.89220   0.00000  Uiso   1.00
H818   H     0.23985   0.11222   0.87061   0.00000  Uiso   1.00
C819   C     0.26392   0.04013   0.71098   0.00000  Uiso   1.00
C820   C     0.21392   0.03822   0.73265   0.00000  Uiso   1.00
C821   C     0.18043   0.05774   0.71391   0.00000  Uiso   1.00
C822   C     0.19658   0.07920   0.67348   0.00000  Uiso   1.00
C823   C     0.24628   0.08104   0.65158   0.00000  Uiso   1.00
C824   C     0.27995   0.06157   0.67020   0.00000  Uiso   1.00
H825   H     0.20106   0.02225   0.76435   0.00000  Uiso   1.00
H826   H     0.14198   0.05651   0.73089   0.00000  Uiso   1.00
H827   H     0.17058   0.09443   0.65920   0.00000  Uiso   1.00
H828   H     0.25869   0.09757   0.62021   0.00000  Uiso   1.00
H829   H     0.31841   0.06342   0.65311   0.00000  Uiso   1.00
C830   C     0.07118   0.29378   0.78673   0.00000  Uiso   1.00
C831   C     0.05768   0.27890   0.83094   0.00000  Uiso   1.00
C832   C     0.09282   0.26195   0.84964   0.00000  Uiso   1.00
C833   C     0.14126   0.25921   0.82418   0.00000  Uiso   1.00
C834   C     0.15482   0.27398   0.78019   0.00000  Uiso   1.00
C835   C     0.12001   0.29141   0.76151   0.00000  Uiso   1.00
H836   H     0.02022   0.28082   0.85092   0.00000  Uiso   1.00
H837   H     0.08265   0.25115   0.88397   0.00000  Uiso   1.00
H838   H     0.16832   0.24582   0.83860   0.00000  Uiso   1.00
H839   H     0.19234   0.27195   0.76058   0.00000  Uiso   1.00
H840   H     0.13099   0.30288   0.72741   0.00000  Uiso   1.00
C841   C     0.33349   0.08742   0.74887   0.00000  Uiso   1.00
C842   C     0.66660   0.24594   0.75096   0.00000  Uiso   1.00
C843   C     0.52211   0.19805   0.54217   0.00000  Uiso   1.00
C844   C     0.46936   0.16698   0.95074   0.00000  Uiso   1.00
C845   C     0.56994   0.20647   0.51879   0.00000  Uiso   1.00
C846   C     0.42017   0.16471   0.97355   0.00000  Uiso   1.00
C847   C     0.63274   0.02036   0.73155   0.00000  Uiso   1.00
C848   C     0.36804   0.31312   0.76717   0.00000  Uiso   1.00
C849   C     0.63303   0.31108   0.73385   0.00000  Uiso   1.00
C850   C     0.36745   0.02235   0.76524   0.00000  Uiso   1.00
C851   C     0.33364   0.29059   0.75133   0.00000  Uiso   1.00
C852   C     0.33346   0.04281   0.74790   0.00000  Uiso   1.00
C853   C     0.51544   0.14499   0.78156   0.00000  Uiso   1.00
C854   C     0.48461   0.18815   0.71828   0.00000  Uiso   1.00
C855   C     0.46581   0.14506   0.78159   0.00000  Uiso   1.00
C856   C     0.53423   0.18809   0.71825   0.00000  Uiso   1.00
C857   C     0.63932   0.16636   0.83605   0.00000  Uiso   1.00
C858   C     0.36077   0.16594   0.66379   0.00000  Uiso   1.00
C859   C     0.62387   0.17027   0.88493   0.00000  Uiso   1.00
C860   C     0.37617   0.16548   0.61438   0.00000  Uiso   1.00
C861   C     0.63622   0.20196   0.95146   0.00000  Uiso   1.00
C862   C     0.35599   0.16366   0.54323   0.00000  Uiso   1.00
C863   C     0.65401   0.19061   0.90687   0.00000  Uiso   1.00
C864   C     0.34138   0.16543   0.58986   0.00000  Uiso   1.00
C865   C     0.57594   0.15920   0.90875   0.00000  Uiso   1.00
C866   C     0.42609   0.16423   0.59142   0.00000  Uiso   1.00
C867   C     0.55566   0.17574   0.95179   0.00000  Uiso   1.00
C868   C     0.44079   0.17012   0.54445   0.00000  Uiso   1.00
C869   C     0.58737   0.19477   0.97410   0.00000  Uiso   1.00
C870   C     0.40549   0.16603   0.52028   0.00000  Uiso   1.00
C871   C     0.50517   0.17282   0.97405   0.00000  Uiso   1.00
C872   C     0.48964   0.17932   0.52087   0.00000  Uiso   1.00
Cu873  Cu    0.38022   0.16667   0.75000   0.00000  Uiso   1.00
Cu874  Cu    0.61978   0.16666   0.75000   0.00000  Uiso   1.00
H875   H     0.59365   0.22147   0.53603   0.00000  Uiso   1.00
H876   H     0.39366   0.16140   0.95452   0.00000  Uiso   1.00
H877   H     0.63616   0.16544   0.60675   0.00000  Uiso   1.00
H878   H     0.35775   0.19839   0.88922   0.00000  Uiso   1.00
H879   H     0.66032   0.21750   0.96787   0.00000  Uiso   1.00
H880   H     0.66187   0.16119   0.52515   0.00000  Uiso   1.00
H881   H     0.51021   0.20828   0.57656   0.00000  Uiso   1.00
H882   H     0.47828   0.16720   0.91459   0.00000  Uiso   1.00
H883   H     0.60754   0.29383   0.72051   0.00000  Uiso   1.00
H884   H     0.39304   0.03959   0.77849   0.00000  Uiso   1.00
H885   H     0.52664   0.12736   0.80665   0.00000  Uiso   1.00
H886   H     0.47343   0.20567   0.69308   0.00000  Uiso   1.00
H887   H     0.43964   0.12761   0.80678   0.00000  Uiso   1.00
H888   H     0.56043   0.20544   0.69299   0.00000  Uiso   1.00
N889   N     0.45069   0.16668   0.74999   0.00000  Uiso   1.00
N890   N     0.54931   0.16666   0.75001   0.00000  Uiso   1.00
O891   O     0.37291   0.10655   0.75000   0.00000  Uiso   1.00
O892   O     0.62709   0.22678   0.75000   0.00000  Uiso   1.00
O893   O     0.62706   0.10654   0.75001   0.00000  Uiso   1.00
O894   O     0.37294   0.22679   0.74999   0.00000  Uiso   1.00
O895   O     0.35186   0.16668   0.81491   0.00000  Uiso   1.00
O896   O     0.64814   0.16666   0.68509   0.00000  Uiso   1.00
O897   O     0.60600   0.16667   0.81492   0.00000  Uiso   1.00
O898   O     0.39400   0.16667   0.68508   0.00000  Uiso   1.00
O899   O     0.45916   0.15340   0.61483   0.00000  Uiso   1.00
H900   H     0.48551   0.13715   0.59476   0.00000  Uiso   1.00
O901   O     0.55008   0.12999   0.89220   0.00000  Uiso   1.00
H902   H     0.57318   0.11222   0.87061   0.00000  Uiso   1.00
C903   C     0.59726   0.04013   0.71098   0.00000  Uiso   1.00
C904   C     0.54726   0.03822   0.73265   0.00000  Uiso   1.00
C905   C     0.51376   0.05774   0.71391   0.00000  Uiso   1.00
C906   C     0.52992   0.07920   0.67348   0.00000  Uiso   1.00
C907   C     0.57962   0.08104   0.65158   0.00000  Uiso   1.00
C908   C     0.61328   0.06157   0.67020   0.00000  Uiso   1.00
H909   H     0.53439   0.02225   0.76435   0.00000  Uiso   1.00
H910   H     0.47531   0.05651   0.73089   0.00000  Uiso   1.00
H911   H     0.50391   0.09443   0.65920   0.00000  Uiso   1.00
H912   H     0.59203   0.09757   0.62021   0.00000  Uiso   1.00
H913   H     0.65174   0.06342   0.65311   0.00000  Uiso   1.00
C914   C     0.40451   0.29378   0.78673   0.00000  Uiso   1.00
C915   C     0.39102   0.27890   0.83094   0.00000  Uiso   1.00
C916   C     0.42615   0.26195   0.84964   0.00000  Uiso   1.00
C917   C     0.47459   0.25921   0.82418   0.00000  Uiso   1.00
C918   C     0.48816   0.27398   0.78019   0.00000  Uiso   1.00
C919   C     0.45334   0.29141   0.76151   0.00000  Uiso   1.00
H920   H     0.35355   0.28082   0.85092   0.00000  Uiso   1.00
H921   H     0.41598   0.25115   0.88397   0.00000  Uiso   1.00
H922   H     0.50165   0.24582   0.83860   0.00000  Uiso   1.00
H923   H     0.52567   0.27195   0.76058   0.00000  Uiso   1.00
H924   H     0.46433   0.30288   0.72741   0.00000  Uiso   1.00
C925   C     0.66682   0.08742   0.74887   0.00000  Uiso   1.00
C926   C     0.99993   0.24594   0.75096   0.00000  Uiso   1.00
C927   C     0.85544   0.19805   0.54217   0.00000  Uiso   1.00
C928   C     0.80269   0.16698   0.95074   0.00000  Uiso   1.00
C929   C     0.90328   0.20647   0.51879   0.00000  Uiso   1.00
C930   C     0.75351   0.16471   0.97355   0.00000  Uiso   1.00
C931   C     0.96607   0.02036   0.73155   0.00000  Uiso   1.00
C932   C     0.70137   0.31312   0.76717   0.00000  Uiso   1.00
C933   C     0.96636   0.31108   0.73385   0.00000  Uiso   1.00
C934   C     0.70078   0.02235   0.76524   0.00000  Uiso   1.00
C935   C     0.66697   0.29059   0.75133   0.00000  Uiso   1.00
C936   C     0.66680   0.04281   0.74790   0.00000  Uiso   1.00
C937   C     0.84877   0.14499   0.78156   0.00000  Uiso   1.00
C938   C     0.81794   0.18815   0.71828   0.00000  Uiso   1.00
C939   C     0.79915   0.14506   0.78159   0.00000  Uiso   1.00
C940   C     0.86757   0.18809   0.71825   0.00000  Uiso   1.00
C941   C     0.97266   0.16636   0.83605   0.00000  Uiso   1.00
C942   C     0.69411   0.16594   0.66379   0.00000  Uiso   1.00
C943   C     0.95720   0.17027   0.88493   0.00000  Uiso   1.00
C944   C     0.70950   0.16548   0.61438   0.00000  Uiso   1.00
C945   C     0.96956   0.20196   0.95146   0.00000  Uiso   1.00
C946   C     0.68933   0.16366   0.54323   0.00000  Uiso   1.00
C947   C     0.98735   0.19061   0.90687   0.00000  Uiso   1.00
C948   C     0.67471   0.16543   0.58986   0.00000  Uiso   1.00
C949   C     0.90927   0.15920   0.90875   0.00000  Uiso   1.00
C950   C     0.75942   0.16423   0.59142   0.00000  Uiso   1.00
C951   C     0.88899   0.17574   0.95179   0.00000  Uiso   1.00
C952   C     0.77413   0.17012   0.54445   0.00000  Uiso   1.00
C953   C     0.92070   0.19477   0.97410   0.00000  Uiso   1.00
C954   C     0.73882   0.16603   0.52028   0.00000  Uiso   1.00
C955   C     0.83851   0.17282   0.97405   0.00000  Uiso   1.00
C956   C     0.82297   0.17932   0.52087   0.00000  Uiso   1.00
Cu957  Cu    0.71355   0.16667   0.75000   0.00000  Uiso   1.00
Cu958  Cu    0.95311   0.16666   0.75000   0.00000  Uiso   1.00
H959   H     0.92698   0.22147   0.53603   0.00000  Uiso   1.00
H960   H     0.72699   0.16140   0.95452   0.00000  Uiso   1.00
H961   H     0.96950   0.16544   0.60675   0.00000  Uiso   1.00
H962   H     0.69108   0.19839   0.88922   0.00000  Uiso   1.00
H963   H     0.99365   0.21750   0.96787   0.00000  Uiso   1.00
H964   H     0.99520   0.16119   0.52515   0.00000  Uiso   1.00
H965   H     0.84354   0.20828   0.57656   0.00000  Uiso   1.00
H966   H     0.81161   0.16720   0.91459   0.00000  Uiso   1.00
H967   H     0.94088   0.29383   0.72051   0.00000  Uiso   1.00
H968   H     0.72637   0.03959   0.77849   0.00000  Uiso   1.00
H969   H     0.85997   0.12736   0.80665   0.00000  Uiso   1.00
H970   H     0.80676   0.20567   0.69308   0.00000  Uiso   1.00
H971   H     0.77297   0.12761   0.80678   0.00000  Uiso   1.00
H972   H     0.89376   0.20544   0.69299   0.00000  Uiso   1.00
N973   N     0.78403   0.16668   0.74999   0.00000  Uiso   1.00
N974   N     0.88264   0.16666   0.75001   0.00000  Uiso   1.00
O975   O     0.70625   0.10655   0.75000   0.00000  Uiso   1.00
O976   O     0.96042   0.22678   0.75000   0.00000  Uiso   1.00
O977   O     0.96039   0.10654   0.75001   0.00000  Uiso   1.00
O978   O     0.70628   0.22679   0.74999   0.00000  Uiso   1.00
O979   O     0.68519   0.16668   0.81491   0.00000  Uiso   1.00
O980   O     0.98148   0.16666   0.68509   0.00000  Uiso   1.00
O981   O     0.93933   0.16667   0.81492   0.00000  Uiso   1.00
O982   O     0.72733   0.16667   0.68508   0.00000  Uiso   1.00
O983   O     0.79249   0.15340   0.61483   0.00000  Uiso   1.00
H984   H     0.81884   0.13715   0.59476   0.00000  Uiso   1.00
O985   O     0.88341   0.12999   0.89220   0.00000  Uiso   1.00
H986   H     0.90652   0.11222   0.87061   0.00000  Uiso   1.00
C987   C     0.93059   0.04013   0.71098   0.00000  Uiso   1.00
C988   C     0.88059   0.03822   0.73265   0.00000  Uiso   1.00
C989   C     0.84709   0.05774   0.71391   0.00000  Uiso   1.00
C990   C     0.86325   0.07920   0.67348   0.00000  Uiso   1.00
C991   C     0.91295   0.08104   0.65158   0.00000  Uiso   1.00
C992   C     0.94662   0.06157   0.67020   0.00000  Uiso   1.00
H993   H     0.86772   0.02225   0.76435   0.00000  Uiso   1.00
H994   H     0.80864   0.05651   0.73089   0.00000  Uiso   1.00
H995   H     0.83724   0.09443   0.65920   0.00000  Uiso   1.00
H996   H     0.92536   0.09757   0.62021   0.00000  Uiso   1.00
H997   H     0.98508   0.06342   0.65311   0.00000  Uiso   1.00
C998   C     0.73785   0.29378   0.78673   0.00000  Uiso   1.00
C999   C     0.72435   0.27890   0.83094   0.00000  Uiso   1.00
C1000  C     0.75948   0.26195   0.84964   0.00000  Uiso   1.00
C1001  C     0.80793   0.25921   0.82418   0.00000  Uiso   1.00
C1002  C     0.82149   0.27398   0.78019   0.00000  Uiso   1.00
C1003  C     0.78668   0.29141   0.76151   0.00000  Uiso   1.00
H1004  H     0.68688   0.28082   0.85092   0.00000  Uiso   1.00
H1005  H     0.74932   0.25115   0.88397   0.00000  Uiso   1.00
H1006  H     0.83498   0.24582   0.83860   0.00000  Uiso   1.00
H1007  H     0.85900   0.27195   0.76058   0.00000  Uiso   1.00
H1008  H     0.79766   0.30288   0.72741   0.00000  Uiso   1.00
C1009  C     0.00016   0.42075   0.74887   0.00000  Uiso   1.00
C1010  C     0.33326   0.57928   0.75096   0.00000  Uiso   1.00
C1011  C     0.18877   0.53138   0.54217   0.00000  Uiso   1.00
C1012  C     0.13603   0.50031   0.95074   0.00000  Uiso   1.00
C1013  C     0.23661   0.53980   0.51879   0.00000  Uiso   1.00
C1014  C     0.08684   0.49804   0.97355   0.00000  Uiso   1.00
C1015  C     0.29940   0.35369   0.73155   0.00000  Uiso   1.00
C1016  C     0.03470   0.64646   0.76717   0.00000  Uiso   1.00
C1017  C     0.29970   0.64442   0.73385   0.00000  Uiso   1.00
C1018  C     0.03412   0.35568   0.76524   0.00000  Uiso   1.00
C1019  C     0.00030   0.62392   0.75133   0.00000  Uiso   1.00
C1020  C     0.00013   0.37615   0.74790   0.00000  Uiso   1.00
C1021  C     0.18210   0.47832   0.78156   0.00000  Uiso   1.00
C1022  C     0.15127   0.52149   0.71828   0.00000  Uiso   1.00
C1023  C     0.13248   0.47839   0.78159   0.00000  Uiso   1.00
C1024  C     0.20090   0.52142   0.71825   0.00000  Uiso   1.00
C1025  C     0.30599   0.49969   0.83605   0.00000  Uiso   1.00
C1026  C     0.02744   0.49927   0.66379   0.00000  Uiso   1.00
C1027  C     0.29053   0.50360   0.88493   0.00000  Uiso   1.00
C1028  C     0.04283   0.49882   0.61438   0.00000  Uiso   1.00
C1029  C     0.30289   0.53530   0.95146   0.00000  Uiso   1.00
C1030  C     0.02266   0.49699   0.54323   0.00000  Uiso   1.00
C1031  C     0.32068   0.52394   0.90687   0.00000  Uiso   1.00
C1032  C     0.00805   0.49877   0.58986   0.00000  Uiso   1.00
C1033  C     0.24261   0.49254   0.90875   0.00000  Uiso   1.00
C1034  C     0.09275   0.49756   0.59142   0.00000  Uiso   1.00
C1035  C     0.22233   0.50907   0.95179   0.00000  Uiso   1.00
C1036  C     0.10746   0.50345   0.54445   0.00000  Uiso   1.00
C1037  C     0.25404   0.52810   0.97410   0.00000  Uiso   1.00
C1038  C     0.07216   0.49936   0.52028   0.00000  Uiso   1.00
C1039  C     0.17184   0.50615   0.97405   0.00000  Uiso   1.00
C1040  C     0.15630   0.51266   0.52087   0.00000  Uiso   1.00
Cu1041 Cu    0.04689   0.50001   0.75000   0.00000  Uiso   1.00
Cu1042 Cu    0.28645   0.49999   0.75000   0.00000  Uiso   1.00
H1043  H     0.26031   0.55480   0.53603   0.00000  Uiso   1.00
H1044  H     0.06032   0.49473   0.95452   0.00000  Uiso   1.00
H1045  H     0.30283   0.49877   0.60675   0.00000  Uiso   1.00
H1046  H     0.02441   0.53172   0.88922   0.00000  Uiso   1.00
H1047  H     0.32699   0.55083   0.96787   0.00000  Uiso   1.00
H1048  H     0.32853   0.49452   0.52515   0.00000  Uiso   1.00
H1049  H     0.17687   0.54161   0.57656   0.00000  Uiso   1.00
H1050  H     0.14495   0.50053   0.91459   0.00000  Uiso   1.00
H1051  H     0.27421   0.62716   0.72051   0.00000  Uiso   1.00
H1052  H     0.05970   0.37292   0.77849   0.00000  Uiso   1.00
H1053  H     0.19331   0.46070   0.80665   0.00000  Uiso   1.00
H1054  H     0.14009   0.53900   0.69308   0.00000  Uiso   1.00
H1055  H     0.10630   0.46094   0.80678   0.00000  Uiso   1.00
H1056  H     0.22710   0.53878   0.69299   0.00000  Uiso   1.00
N1057  N     0.11736   0.50001   0.74999   0.00000  Uiso   1.00
N1058  N     0.21597   0.49999   0.75001   0.00000  Uiso   1.00
O1059  O     0.03958   0.43989   0.75000   0.00000  Uiso   1.00
O1060  O     0.29375   0.56011   0.75000   0.00000  Uiso   1.00
O1061  O     0.29372   0.43988   0.75001   0.00000  Uiso   1.00
O1062  O     0.03961   0.56012   0.74999   0.00000  Uiso   1.00
O1063  O     0.01852   0.50001   0.81491   0.00000  Uiso   1.00
O1064  O     0.31481   0.49999   0.68509   0.00000  Uiso   1.00
O1065  O     0.27267   0.50000   0.81492   0.00000  Uiso   1.00
O1066  O     0.06067   0.50000   0.68508   0.00000  Uiso   1.00
O1067  O     0.12582   0.48674   0.61483   0.00000  Uiso   1.00
H1068  H     0.15218   0.47048   0.59476   0.00000  Uiso   1.00
O1069  O     0.21674   0.46332   0.89220   0.00000  Uiso   1.00
H1070  H     0.23985   0.44555   0.87061   0.00000  Uiso   1.00
C1071  C     0.26392   0.37346   0.71098   0.00000  Uiso   1.00
C1072  C     0.21392   0.37156   0.73265   0.00000  Uiso   1.00
C1073  C     0.18043   0.39108   0.71391   0.00000  Uiso   1.00
C1074  C     0.19658   0.41253   0.67348   0.00000  Uiso   1.00
C1075  C     0.24628   0.41437   0.65158   0.00000  Uiso   1.00
C1076  C     0.27995   0.39490   0.67020   0.00000  Uiso   1.00
H1077  H     0.20106   0.35558   0.76435   0.00000  Uiso   1.00
H1078  H     0.14198   0.38985   0.73089   0.00000  Uiso   1.00
H1079  H     0.17058   0.42777   0.65920   0.00000  Uiso   1.00
H1080  H     0.25869   0.43090   0.62021   0.00000  Uiso   1.00
H1081  H     0.31841   0.39675   0.65311   0.00000  Uiso   1.00
C1082  C     0.07118   0.62711   0.78673   0.00000  Uiso   1.00
C1083  C     0.05768   0.61223   0.83094   0.00000  Uiso   1.00
C1084  C     0.09282   0.59528   0.84964   0.00000  Uiso   1.00
C1085  C     0.14126   0.59254   0.82418   0.00000  Uiso   1.00
C1086  C     0.15482   0.60731   0.78019   0.00000  Uiso   1.00
C1087  C     0.12001   0.62474   0.76151   0.00000  Uiso   1.00
H1088  H     0.02022   0.61415   0.85092   0.00000  Uiso   1.00
H1089  H     0.08265   0.58449   0.88397   0.00000  Uiso   1.00
H1090  H     0.16832   0.57915   0.83860   0.00000  Uiso   1.00
H1091  H     0.19234   0.60529   0.76058   0.00000  Uiso   1.00
H1092  H     0.13099   0.63622   0.72741   0.00000  Uiso   1.00
C1093  C     0.33349   0.42075   0.74887   0.00000  Uiso   1.00
C1094  C     0.66660   0.57928   0.75096   0.00000  Uiso   1.00
C1095  C     0.52211   0.53138   0.54217   0.00000  Uiso   1.00
C1096  C     0.46936   0.50031   0.95074   0.00000  Uiso   1.00
C1097  C     0.56994   0.53980   0.51879   0.00000  Uiso   1.00
C1098  C     0.42017   0.49804   0.97355   0.00000  Uiso   1.00
C1099  C     0.63274   0.35369   0.73155   0.00000  Uiso   1.00
C1100  C     0.36804   0.64646   0.76717   0.00000  Uiso   1.00
C1101  C     0.63303   0.64442   0.73385   0.00000  Uiso   1.00
C1102  C     0.36745   0.35568   0.76524   0.00000  Uiso   1.00
C1103  C     0.33364   0.62392   0.75133   0.00000  Uiso   1.00
C1104  C     0.33346   0.37615   0.74790   0.00000  Uiso   1.00
C1105  C     0.51544   0.47832   0.78156   0.00000  Uiso   1.00
C1106  C     0.48461   0.52149   0.71828   0.00000  Uiso   1.00
C1107  C     0.46581   0.47839   0.78159   0.00000  Uiso   1.00
C1108  C     0.53423   0.52142   0.71825   0.00000  Uiso   1.00
C1109  C     0.63932   0.49969   0.83605   0.00000  Uiso   1.00
C1110  C     0.36077   0.49927   0.66379   0.00000  Uiso   1.00
C1111  C     0.62387   0.50360   0.88493   0.00000  Uiso   1.00
C1112  C     0.37617   0.49882   0.61438   0.00000  Uiso   1.00
C1113  C     0.63622   0.53530   0.95146   0.00000  Uiso   1.00
C1114  C     0.35599   0.49699   0.54323   0.00000  Uiso   1.00
C1115  C     0.65401   0.52394   0.90687   0.00000  Uiso   1.00
C1116  C     0.34138   0.49877   0.58986   0.00000  Uiso   1.00
C1117  C     0.57594   0.49254   0.90875   0.00000  Uiso   1.00
C1118  C     0.42609   0.49756   0.59142   0.00000  Uiso   1.00
C1119  C     0.55566   0.50907   0.95179   0.00000  Uiso   1.00
C1120  C     0.44079   0.50345   0.54445   0.00000  Uiso   1.00
C1121  C     0.58737   0.52810   0.97410   0.00000  Uiso   1.00
C1122  C     0.40549   0.49936   0.52028   0.00000  Uiso   1.00
C1123  C     0.50517   0.50615   0.97405   0.00000  Uiso   1.00
C1124  C     0.48964   0.51266   0.52087   0.00000  Uiso   1.00
Cu1125 Cu    0.38022   0.50001   0.75000   0.00000  Uiso   1.00
Cu1126 Cu    0.61978   0.49999   0.75000   0.00000  Uiso   1.00
H1127  H     0.59365   0.55480   0.53603   0.00000  Uiso   1.00
H1128  H     0.39366   0.49473   0.95452   0.00000  Uiso   1.00
H1129  H     0.63616   0.49877   0.60675   0.00000  Uiso   1.00
H1130  H     0.35775   0.53172   0.88922   0.00000  Uiso   1.00
H1131  H     0.66032   0.55083   0.96787   0.00000  Uiso   1.00
H1132  H     0.66187   0.49452   0.52515   0.00000  Uiso   1.00
H1133  H     0.51021   0.54161   0.57656   0.00000  Uiso   1.00
H1134  H     0.47828   0.50053   0.91459   0.00000  Uiso   1.00
H1135  H     0.60754   0.62716   0.72051   0.00000  Uiso   1.00
H1136  H     0.39304   0.37292   0.77849   0.00000  Uiso   1.00
H1137  H     0.52664   0.46070   0.80665   0.00000  Uiso   1.00
H1138  H     0.47343   0.53900   0.69308   0.00000  Uiso   1.00
H1139  H     0.43964   0.46094   0.80678   0.00000  Uiso   1.00
H1140  H     0.56043   0.53878   0.69299   0.00000  Uiso   1.00
N1141  N     0.45069   0.50001   0.74999   0.00000  Uiso   1.00
N1142  N     0.54931   0.49999   0.75001   0.00000  Uiso   1.00
O1143  O     0.37291   0.43989   0.75000   0.00000  Uiso   1.00
O1144  O     0.62709   0.56011   0.75000   0.00000  Uiso   1.00
O1145  O     0.62706   0.43988   0.75001   0.00000  Uiso   1.00
O1146  O     0.37294   0.56012   0.74999   0.00000  Uiso   1.00
O1147  O     0.35186   0.50001   0.81491   0.00000  Uiso   1.00
O1148  O     0.64814   0.49999   0.68509   0.00000  Uiso   1.00
O1149  O     0.60600   0.50000   0.81492   0.00000  Uiso   1.00
O1150  O     0.39400   0.50000   0.68508   0.00000  Uiso   1.00
O1151  O     0.45916   0.48674   0.61483   0.00000  Uiso   1.00
H1152  H     0.48551   0.47048   0.59476   0.00000  Uiso   1.00
O1153  O     0.55008   0.46332   0.89220   0.00000  Uiso   1.00
H1154  H     0.57318   0.44555   0.87061   0.00000  Uiso   1.00
C1155  C     0.59726   0.37346   0.71098   0.00000  Uiso   1.00
C1156  C     0.54726   0.37156   0.73265   0.00000  Uiso   1.00
C1157  C     0.51376   0.39108   0.71391   0.00000  Uiso   1.00
C1158  C     0.52992   0.41253   0.67348   0.00000  Uiso   1.00
C1159  C     0.57962   0.41437   0.65158   0.00000  Uiso   1.00
C1160  C     0.61328   0.39490   0.67020   0.00000  Uiso   1.00
H1161  H     0.53439   0.35558   0.76435   0.00000  Uiso   1.00
H1162  H     0.47531   0.38985   0.73089   0.00000  Uiso   1.00
H1163  H     0.50391   0.42777   0.65920   0.00000  Uiso   1.00
H1164  H     0.59203   0.43090   0.62021   0.00000  Uiso   1.00
H1165  H     0.65174   0.39675   0.65311   0.00000  Uiso   1.00
C1166  C     0.40451   0.62711   0.78673   0.00000  Uiso   1.00
C1167  C     0.39102   0.61223   0.83094   0.00000  Uiso   1.00
C1168  C     0.42615   0.59528   0.84964   0.00000  Uiso   1.00
C1169  C     0.47459   0.59254   0.82418   0.00000  Uiso   1.00
C1170  C     0.48816   0.60731   0.78019   0.00000  Uiso   1.00
C1171  C     0.45334   0.62474   0.76151   0.00000  Uiso   1.00
H1172  H     0.35355   0.61415   0.85092   0.00000  Uiso   1.00
H1173  H     0.41598   0.58449   0.88397   0.00000  Uiso   1.00
H1174  H     0.50165   0.57915   0.83860   0.00000  Uiso   1.00
H1175  H     0.52567   0.60529   0.76058   0.00000  Uiso   1.00
H1176  H     0.46433   0.63622   0.72741   0.00000  Uiso   1.00
C1177  C     0.66682   0.42075   0.74887   0.00000  Uiso   1.00
C1178  C     0.99993   0.57928   0.75096   0.00000  Uiso   1.00
C1179  C     0.85544   0.53138   0.54217   0.00000  Uiso   1.00
C1180  C     0.80269   0.50031   0.95074   0.00000  Uiso   1.00
C1181  C     0.90328   0.53980   0.51879   0.00000  Uiso   1.00
C1182  C     0.75351   0.49804   0.97355   0.00000  Uiso   1.00
C1183  C     0.96607   0.35369   0.73155   0.00000  Uiso   1.00
C1184  C     0.70137   0.64646   0.76717   0.00000  Uiso   1.00
C1185  C     0.96636   0.64442   0.73385   0.00000  Uiso   1.00
C1186  C     0.70078   0.35568   0.76524   0.00000  Uiso   1.00
C1187  C     0.66697   0.62392   0.75133   0.00000  Uiso   1.00
C1188  C     0.66680   0.37615   0.74790   0.00000  Uiso   1.00
C1189  C     0.84877   0.47832   0.78156   0.00000  Uiso   1.00
C1190  C     0.81794   0.52149   0.71828   0.00000  Uiso   1.00
C1191  C     0.79915   0.47839   0.78159   0.00000  Uiso   1.00
C1192  C     0.86757   0.52142   0.71825   0.00000  Uiso   1.00
C1193  C     0.97266   0.49969   0.83605   0.00000  Uiso   1.00
C1194  C     0.69411   0.49927   0.66379   0.00000  Uiso   1.00
C1195  C     0.95720   0.50360   0.88493   0.00000  Uiso   1.00
C1196  C     0.70950   0.49882   0.61438   0.00000  Uiso   1.00
C1197  C     0.96956   0.53530   0.95146   0.00000  Uiso   1.00
C1198  C     0.68933   0.49699   0.54323   0.00000  Uiso   1.00
C1199  C     0.98735   0.52394   0.90687   0.00000  Uiso   1.00
C1200  C     0.67471   0.49877   0.58986   0.00000  Uiso   1.00
C1201  C     0.90927   0.49254   0.90875   0.00000  Uiso   1.00
C1202  C     0.75942   0.49756   0.59142   0.00000  Uiso   1.00
C1203  C     0.88899   0.50907   0.95179   0.00000  Uiso   1.00
C1204  C     0.77413   0.50345   0.54445   0.00000  Uiso   1.00
C1205  C     0.92070   0.52810   0.97410   0.00000  Uiso   1.00
C1206  C     0.73882   0.49936   0.52028   0.00000  Uiso   1.00
C1207  C     0.83851   0.50615   0.97405   0.00000  Uiso   1.00
C1208  C     0.82297   0.51266   0.52087   0.00000  Uiso   1.00
Cu1209 Cu    0.71355   0.50001   0.75000   0.00000  Uiso   1.00
Cu1210 Cu    0.95311   0.49999   0.75000   0.00000  Uiso   1.00
H1211  H     0.92698   0.55480   0.53603   0.00000  Uiso   1.00
H1212  H     0.72699   0.49473   0.95452   0.00000  Uiso   1.00
H1213  H     0.96950   0.49877   0.60675   0.00000  Uiso   1.00
H1214  H     0.69108   0.53172   0.88922   0.00000  Uiso   1.00
H1215  H     0.99365   0.55083   0.96787   0.00000  Uiso   1.00
H1216  H     0.99520   0.49452   0.52515   0.00000  Uiso   1.00
H1217  H     0.84354   0.54161   0.57656   0.00000  Uiso   1.00
H1218  H     0.81161   0.50053   0.91459   0.00000  Uiso   1.00
H1219  H     0.94088   0.62716   0.72051   0.00000  Uiso   1.00
H1220  H     0.72637   0.37292   0.77849   0.00000  Uiso   1.00
H1221  H     0.85997   0.46070   0.80665   0.00000  Uiso   1.00
H1222  H     0.80676   0.53900   0.69308   0.00000  Uiso   1.00
H1223  H     0.77297   0.46094   0.80678   0.00000  Uiso   1.00
H1224  H     0.89376   0.53878   0.69299   0.00000  Uiso   1.00
N1225  N     0.78403   0.50001   0.74999   0.00000  Uiso   1.00
N1226  N     0.88264   0.49999   0.75001   0.00000  Uiso   1.00
O1227  O     0.70625   0.43989   0.75000   0.00000  Uiso   1.00
O1228  O     0.96042   0.56011   0.75000   0.00000  Uiso   1.00
O1229  O     0.96039   0.43988   0.75001   0.00000  Uiso   1.00
O1230  O     0.70628   0.56012   0.74999   0.00000  Uiso   1.00
O1231  O     0.68519   0.50001   0.81491   0.00000  Uiso   1.00
O1232  O     0.98148   0.49999   0.68509   0.00000  Uiso   1.00
O1233  O     0.93933   0.50000   0.81492   0.00000  Uiso   1.00
O1234  O     0.72733   0.50000   0.68508   0.00000  Uiso   1.00
O1235  O     0.79249   0.48674   0.61483   0.00000  Uiso   1.00
H1236  H     0.81884   0.47048   0.59476   0.00000  Uiso   1.00
O1237  O     0.88341   0.46332   0.89220   0.00000  Uiso   1.00
H1238  H     0.90652   0.44555   0.87061   0.00000  Uiso   1.00
C1239  C     0.93059   0.37346   0.71098   0.00000  Uiso   1.00
C1240  C     0.88059   0.37156   0.73265   0.00000  Uiso   1.00
C1241  C     0.84709   0.39108   0.71391   0.00000  Uiso   1.00
C1242  C     0.86325   0.41253   0.67348   0.00000  Uiso   1.00
C1243  C     0.91295   0.41437   0.65158   0.00000  Uiso   1.00
C1244  C     0.94662   0.39490   0.67020   0.00000  Uiso   1.00
H1245  H     0.86772   0.35558   0.76435   0.00000  Uiso   1.00
H1246  H     0.80864   0.38985   0.73089   0.00000  Uiso   1.00
H1247  H     0.83724   0.42777   0.65920   0.00000  Uiso   1.00
H1248  H     0.92536   0.43090   0.62021   0.00000  Uiso   1.00
H1249  H     0.98508   0.39675   0.65311   0.00000  Uiso   1.00
C1250  C     0.73785   0.62711   0.78673   0.00000  Uiso   1.00
C1251  C     0.72435   0.61223   0.83094   0.00000  Uiso   1.00
C1252  C     0.75948   0.59528   0.84964   0.00000  Uiso   1.00
C1253  C     0.80793   0.59254   0.82418   0.00000  Uiso   1.00
C1254  C     0.82149   0.60731   0.78019   0.00000  Uiso   1.00
C1255  C     0.78668   0.62474   0.76151   0.00000  Uiso   1.00
H1256  H     0.68688   0.61415   0.85092   0.00000  Uiso   1.00
H1257  H     0.74932   0.58449   0.88397   0.00000  Uiso   1.00
H1258  H     0.83498   0.57915   0.83860   0.00000  Uiso   1.00
H1259  H     0.85900   0.60529   0.76058   0.00000  Uiso   1.00
H1260  H     0.79766   0.63622   0.72741   0.00000  Uiso   1.00
C1261  C     0.00016   0.75409   0.74887   0.00000  Uiso   1.00
C1262  C     0.33326   0.91261   0.75096   0.00000  Uiso   1.00
C1263  C     0.18877   0.86471   0.54217   0.00000  Uiso   1.00
C1264  C     0.13603   0.83365   0.95074   0.00000  Uiso   1.00
C1265  C     0.23661   0.87313   0.51879   0.00000  Uiso   1.00
C1266  C     0.08684   0.83138   0.97355   0.00000  Uiso   1.00
C1267  C     0.29940   0.68702   0.73155   0.00000  Uiso   1.00
C1268  C     0.03470   0.97979   0.76717   0.00000  Uiso   1.00
C1269  C     0.29970   0.97775   0.73385   0.00000  Uiso   1.00
C1270  C     0.03412   0.68901   0.76524   0.00000  Uiso   1.00
C1271  C     0.00030   0.95726   0.75133   0.00000  Uiso   1.00
C1272  C     0.00013   0.70948   0.74790   0.00000  Uiso   1.00
C1273  C     0.18210   0.81166   0.78156   0.00000  Uiso   1.00
C1274  C     0.15127   0.85482   0.71828   0.00000  Uiso   1.00
C1275  C     0.13248   0.81172   0.78159   0.00000  Uiso   1.00
C1276  C     0.20090   0.85475   0.71825   0.00000  Uiso   1.00
C1277  C     0.30599   0.83302   0.83605   0.00000  Uiso   1.00
C1278  C     0.02744   0.83261   0.66379   0.00000  Uiso   1.00
C1279  C     0.29053   0.83693   0.88493   0.00000  Uiso   1.00
C1280  C     0.04283   0.83215   0.61438   0.00000  Uiso   1.00
C1281  C     0.30289   0.86863   0.95146   0.00000  Uiso   1.00
C1282  C     0.02266   0.83033   0.54323   0.00000  Uiso   1.00
C1283  C     0.32068   0.85727   0.90687   0.00000  Uiso   1.00
C1284  C     0.00805   0.83210   0.58986   0.00000  Uiso   1.00
C1285  C     0.24261   0.82587   0.90875   0.00000  Uiso   1.00
C1286  C     0.09275   0.83090   0.59142   0.00000  Uiso   1.00
C1287  C     0.22233   0.84240   0.95179   0.00000  Uiso   1.00
C1288  C     0.10746   0.83679   0.54445   0.00000  Uiso   1.00
C1289  C     0.25404   0.86144   0.97410   0.00000  Uiso   1.00
C1290  C     0.07216   0.83270   0.52028   0.00000  Uiso   1.00
C1291  C     0.17184   0.83948   0.97405   0.00000  Uiso   1.00
C1292  C     0.15630   0.84599   0.52087   0.00000  Uiso   1.00
Cu1293 Cu    0.04689   0.83334   0.75000   0.00000  Uiso   1.00
Cu1294 Cu    0.28645   0.83333   0.75000   0.00000  Uiso   1.00
H1295  H     0.26031   0.88814   0.53603   0.00000  Uiso   1.00
H1296  H     0.06032   0.82806   0.95452   0.00000  Uiso   1.00
H1297  H     0.30283   0.83211   0.60675   0.00000  Uiso   1.00
H1298  H     0.02441   0.86505   0.88922   0.00000  Uiso   1.00
H1299  H     0.32699   0.88417   0.96787   0.00000  Uiso   1.00
H1300  H     0.32853   0.82785   0.52515   0.00000  Uiso   1.00
H1301  H     0.17687   0.87494   0.57656   0.00000  Uiso   1.00
H1302  H     0.14495   0.83387   0.91459   0.00000  Uiso   1.00
H1303  H     0.27421   0.96050   0.72051   0.00000  Uiso   1.00
H1304  H     0.05970   0.70625   0.77849   0.00000  Uiso   1.00
H1305  H     0.19331   0.79403   0.80665   0.00000  Uiso   1.00
H1306  H     0.14009   0.87233   0.69308   0.00000  Uiso   1.00
H1307  H     0.10630   0.79428   0.80678   0.00000  Uiso   1.00
H1308  H     0.22710   0.87211   0.69299   0.00000  Uiso   1.00
N1309  N     0.11736   0.83334   0.74999   0.00000  Uiso   1.00
N1310  N     0.21597   0.83332   0.75001   0.00000  Uiso   1.00
O1311  O     0.03958   0.77322   0.75000   0.00000  Uiso   1.00
O1312  O     0.29375   0.89345   0.75000   0.00000  Uiso   1.00
O1313  O     0.29372   0.77321   0.75001   0.00000  Uiso   1.00
O1314  O     0.03961   0.89346   0.74999   0.00000  Uiso   1.00
O1315  O     0.01852   0.83334   0.81491   0.00000  Uiso   1.00
O1316  O     0.31481   0.83332   0.68509   0.00000  Uiso   1.00
O1317  O     0.27267   0.83333   0.81492   0.00000  Uiso   1.00
O1318  O     0.06067   0.83333   0.68508   0.00000  Uiso   1.00
O1319  O     0.12582   0.82007   0.61483   0.00000  Uiso   1.00
H1320  H     0.15218   0.80381   0.59476   0.00000  Uiso   1.00
O1321  O     0.21674   0.79665   0.89220   0.00000  Uiso   1.00
H1322  H     0.23985   0.77888   0.87061   0.00000  Uiso   1.00
C1323  C     0.26392   0.70679   0.71098   0.00000  Uiso   1.00
C1324  C     0.21392   0.70489   0.73265   0.00000  Uiso   1.00
C1325  C     0.18043   0.72441   0.71391   0.00000  Uiso   1.00
C1326  C     0.19658   0.74587   0.67348   0.00000  Uiso   1.00
C1327  C     0.24628   0.74771   0.65158   0.00000  Uiso   1.00
C1328  C     0.27995   0.72823   0.67020   0.00000  Uiso   1.00
H1329  H     0.20106   0.68891   0.76435   0.00000  Uiso   1.00
H1330  H     0.14198   0.72318   0.73089   0.00000  Uiso   1.00
H1331  H     0.17058   0.76110   0.65920   0.00000  Uiso   1.00
H1332  H     0.25869   0.76423   0.62021   0.00000  Uiso   1.00
H1333  H     0.31841   0.73009   0.65311   0.00000  Uiso   1.00
C1334  C     0.07118   0.96044   0.78673   0.00000  Uiso   1.00
C1335  C     0.05768   0.94556   0.83094   0.00000  Uiso   1.00
C1336  C     0.09282   0.92862   0.84964   0.00000  Uiso   1.00
C1337  C     0.14126   0.92588   0.82418   0.00000  Uiso   1.00
C1338  C     0.15482   0.94065   0.78019   0.00000  Uiso   1.00
C1339  C     0.12001   0.95808   0.76151   0.00000  Uiso   1.00
H1340  H     0.02022   0.94749   0.85092   0.00000  Uiso   1.00
H1341  H     0.08265   0.91782   0.88397   0.00000  Uiso   1.00
H1342  H     0.16832   0.91249   0.83860   0.00000  Uiso   1.00
H1343  H     0.19234   0.93862   0.76058   0.00000  Uiso   1.00
H1344  H     0.13099   0.96955   0.72741   0.00000  Uiso   1.00
C1345  C     0.33349   0.75409   0.74887   0.00000  Uiso   1.00
C1346  C     0.66660   0.91261   0.75096   0.00000  Uiso   1.00
C1347  C     0.52211   0.86471   0.54217   0.00000  Uiso   1.00
C1348  C     0.46936   0.83365   0.95074   0.00000  Uiso   1.00
C1349  C     0.56994   0.87313   0.51879   0.00000  Uiso   1.00
C1350  C     0.42017   0.83138   0.97355   0.00000  Uiso   1.00
C1351  C     0.63274   0.68702   0.73155   0.00000  Uiso   1.00
C1352  C     0.36804   0.97979   0.76717   0.00000  Uiso   1.00
C1353  C     0.63303   0.97775   0.73385   0.00000  Uiso   1.00
C1354  C     0.36745   0.68901   0.76524   0.00000  Uiso   1.00
C1355  C     0.33364   0.95726   0.75133   0.00000  Uiso   1.00
C1356  C     0.33346   0.70948   0.74790   0.00000  Uiso   1.00
C1357  C     0.51544   0.81166   0.78156   0.00000  Uiso   1.00
C1358  C     0.48461   0.85482   0.71828   0.00000  Uiso   1.00
C1359  C     0.46581   0.81172   0.78159   0.00000  Uiso   1.00
C1360  C     0.53423   0.85475   0.71825   0.00000  Uiso   1.00
C1361  C     0.63932   0.83302   0.83605   0.00000  Uiso   1.00
C1362  C     0.36077   0.83261   0.66379   0.00000  Uiso   1.00
C1363  C     0.62387   0.83693   0.88493   0.00000  Uiso   1.00
C1364  C     0.37617   0.83215   0.61438   0.00000  Uiso   1.00
C1365  C     0.63622   0.86863   0.95146   0.00000  Uiso   1.00
C1366  C     0.35599   0.83033   0.54323   0.00000  Uiso   1.00
C1367  C     0.65401   0.85727   0.90687   0.00000  Uiso   1.00
C1368  C     0.34138   0.83210   0.58986   0.00000  Uiso   1.00
C1369  C     0.57594   0.82587   0.90875   0.00000  Uiso   1.00
C1370  C     0.42609   0.83090   0.59142   0.00000  Uiso   1.00
C1371  C     0.55566   0.84240   0.95179   0.00000  Uiso   1.00
C1372  C     0.44079   0.83679   0.54445   0.00000  Uiso   1.00
C1373  C     0.58737   0.86144   0.97410   0.00000  Uiso   1.00
C1374  C     0.40549   0.83270   0.52028   0.00000  Uiso   1.00
C1375  C     0.50517   0.83948   0.97405   0.00000  Uiso   1.00
C1376  C     0.48964   0.84599   0.52087   0.00000  Uiso   1.00
Cu1377 Cu    0.38022   0.83334   0.75000   0.00000  Uiso   1.00
Cu1378 Cu    0.61978   0.83333   0.75000   0.00000  Uiso   1.00
H1379  H     0.59365   0.88814   0.53603   0.00000  Uiso   1.00
H1380  H     0.39366   0.82806   0.95452   0.00000  Uiso   1.00
H1381  H     0.63616   0.83211   0.60675   0.00000  Uiso   1.00
H1382  H     0.35775   0.86505   0.88922   0.00000  Uiso   1.00
H1383  H     0.66032   0.88417   0.96787   0.00000  Uiso   1.00
H1384  H     0.66187   0.82785   0.52515   0.00000  Uiso   1.00
H1385  H     0.51021   0.87494   0.57656   0.00000  Uiso   1.00
H1386  H     0.47828   0.83387   0.91459   0.00000  Uiso   1.00
H1387  H     0.60754   0.96050   0.72051   0.00000  Uiso   1.00
H1388  H     0.39304   0.70625   0.77849   0.00000  Uiso   1.00
H1389  H     0.52664   0.79403   0.80665   0.00000  Uiso   1.00
H1390  H     0.47343   0.87233   0.69308   0.00000  Uiso   1.00
H1391  H     0.43964   0.79428   0.80678   0.00000  Uiso   1.00
H1392  H     0.56043   0.87211   0.69299   0.00000  Uiso   1.00
N1393  N     0.45069   0.83334   0.74999   0.00000  Uiso   1.00
N1394  N     0.54931   0.83332   0.75001   0.00000  Uiso   1.00
O1395  O     0.37291   0.77322   0.75000   0.00000  Uiso   1.00
O1396  O     0.62709   0.89345   0.75000   0.00000  Uiso   1.00
O1397  O     0.62706   0.77321   0.75001   0.00000  Uiso   1.00
O1398  O     0.37294   0.89346   0.74999   0.00000  Uiso   1.00
O1399  O     0.35186   0.83334   0.81491   0.00000  Uiso   1.00
O1400  O     0.64814   0.83332   0.68509   0.00000  Uiso   1.00
O1401  O     0.60600   0.83333   0.81492   0.00000  Uiso   1.00
O1402  O     0.39400   0.83333   0.68508   0.00000  Uiso   1.00
O1403  O     0.45916   0.82007   0.61483   0.00000  Uiso   1.00
H1404  H     0.48551   0.80381   0.59476   0.00000  Uiso   1.00
O1405  O     0.55008   0.79665   0.89220   0.00000  Uiso   1.00
H1406  H     0.57318   0.77888   0.87061   0.00000  Uiso   1.00
C1407  C     0.59726   0.70679   0.71098   0.00000  Uiso   1.00
C1408  C     0.54726   0.70489   0.73265   0.00000  Uiso   1.00
C1409  C     0.51376   0.72441   0.71391   0.00000  Uiso   1.00
C1410  C     0.52992   0.74587   0.67348   0.00000  Uiso   1.00
C1411  C     0.57962   0.74771   0.65158   0.00000  Uiso   1.00
C1412  C     0.61328   0.72823   0.67020   0.00000  Uiso   1.00
H1413  H     0.53439   0.68891   0.76435   0.00000  Uiso   1.00
H1414  H     0.47531   0.72318   0.73089   0.00000  Uiso   1.00
H1415  H     0.50391   0.76110   0.65920   0.00000  Uiso   1.00
H1416  H     0.59203   0.76423   0.62021   0.00000  Uiso   1.00
H1417  H     0.65174   0.73009   0.65311   0.00000  Uiso   1.00
C1418  C     0.40451   0.96044   0.78673   0.00000  Uiso   1.00
C1419  C     0.39102   0.94556   0.83094   0.00000  Uiso   1.00
C1420  C     0.42615   0.92862   0.84964   0.00000  Uiso   1.00
C1421  C     0.47459   0.92588   0.82418   0.00000  Uiso   1.00
C1422  C     0.48816   0.94065   0.78019   0.00000  Uiso   1.00
C1423  C     0.45334   0.95808   0.76151   0.00000  Uiso   1.00
H1424  H     0.35355   0.94749   0.85092   0.00000  Uiso   1.00
H1425  H     0.41598   0.91782   0.88397   0.00000  Uiso   1.00
H1426  H     0.50165   0.91249   0.83860   0.00000  Uiso   1.00
H1427  H     0.52567   0.93862   0.76058   0.00000  Uiso   1.00
H1428  H     0.46433   0.96955   0.72741   0.00000  Uiso   1.00
C1429  C     0.66682   0.75409   0.74887   0.00000  Uiso   1.00
C1430  C     0.99993   0.91261   0.75096   0.00000  Uiso   1.00
C1431  C     0.85544   0.86471   0.54217   0.00000  Uiso   1.00
C1432  C     0.80269   0.83365   0.95074   0.00000  Uiso   1.00
C1433  C     0.90328   0.87313   0.51879   0.00000  Uiso   1.00
C1434  C     0.75351   0.83138   0.97355   0.00000  Uiso   1.00
C1435  C     0.96607   0.68702   0.73155   0.00000  Uiso   1.00
C1436  C     0.70137   0.97979   0.76717   0.00000  Uiso   1.00
C1437  C     0.96636   0.97775   0.73385   0.00000  Uiso   1.00
C1438  C     0.70078   0.68901   0.76524   0.00000  Uiso   1.00
C1439  C     0.66697   0.95726   0.75133   0.00000  Uiso   1.00
C1440  C     0.66680   0.70948   0.74790   0.00000  Uiso   1.00
C1441  C     0.84877   0.81166   0.78156   0.00000  Uiso   1.00
C1442  C     0.81794   0.85482   0.71828   0.00000  Uiso   1.00
C1443  C     0.79915   0.81172   0.78159   0.00000  Uiso   1.00
C1444  C     0.86757   0.85475   0.71825   0.00000  Uiso   1.00
C1445  C     0.97266   0.83302   0.83605   0.00000  Uiso   1.00
C1446  C     0.69411   0.83261   0.66379   0.00000  Uiso   1.00
C1447  C     0.95720   0.83693   0.88493   0.00000  Uiso   1.00
C1448  C     0.70950   0.83215   0.61438   0.00000  Uiso   1.00
C1449  C     0.96956   0.86863   0.95146   0.00000  Uiso   1.00
C1450  C     0.68933   0.83033   0.54323   0.00000  Uiso   1.00
C1451  C     0.98735   0.85727   0.90687   0.00000  Uiso   1.00
C1452  C     0.67471   0.83210   0.58986   0.00000  Uiso   1.00
C1453  C     0.90927   0.82587   0.90875   0.00000  Uiso   1.00
C1454  C     0.75942   0.83090   0.59142   0.00000  Uiso   1.00
C1455  C     0.88899   0.84240   0.95179   0.00000  Uiso   1.00
C1456  C     0.77413   0.83679   0.54445   0.00000  Uiso   1.00
C1457  C     0.92070   0.86144   0.97410   0.00000  Uiso   1.00
C1458  C     0.73882   0.83270   0.52028   0.00000  Uiso   1.00
C1459  C     0.83851   0.83948   0.97405   0.00000  Uiso   1.00
C1460  C     0.82297   0.84599   0.52087   0.00000  Uiso   1.00
Cu1461 Cu    0.71355   0.83334   0.75000   0.00000  Uiso   1.00
Cu1462 Cu    0.95311   0.83333   0.75000   0.00000  Uiso   1.00
H1463  H     0.92698   0.88814   0.53603   0.00000  Uiso   1.00
H1464  H     0.72699   0.82806   0.95452   0.00000  Uiso   1.00
H1465  H     0.96950   0.83211   0.60675   0.00000  Uiso   1.00
H1466  H     0.69108   0.86505   0.88922   0.00000  Uiso   1.00
H1467  H     0.99365   0.88417   0.96787   0.00000  Uiso   1.00
H1468  H     0.99520   0.82785   0.52515   0.00000  Uiso   1.00
H1469  H     0.84354   0.87494   0.57656   0.00000  Uiso   1.00
H1470  H     0.81161   0.83387   0.91459   0.00000  Uiso   1.00
H1471  H     0.94088   0.96050   0.72051   0.00000  Uiso   1.00
H1472  H     0.72637   0.70625   0.77849   0.00000  Uiso   1.00
H1473  H     0.85997   0.79403   0.80665   0.00000  Uiso   1.00
H1474  H     0.80676   0.87233   0.69308   0.00000  Uiso   1.00
H1475  H     0.77297   0.79428   0.80678   0.00000  Uiso   1.00
H1476  H     0.89376   0.87211   0.69299   0.00000  Uiso   1.00
N1477  N     0.78403   0.83334   0.74999   0.00000  Uiso   1.00
N1478  N     0.88264   0.83332   0.75001   0.00000  Uiso   1.00
O1479  O     0.70625   0.77322   0.75000   0.00000  Uiso   1.00
O1480  O     0.96042   0.89345   0.75000   0.00000  Uiso   1.00
O1481  O     0.96039   0.77321   0.75001   0.00000  Uiso   1.00
O1482  O     0.70628   0.89346   0.74999   0.00000  Uiso   1.00
O1483  O     0.68519   0.83334   0.81491   0.00000  Uiso   1.00
O1484  O     0.98148   0.83332   0.68509   0.00000  Uiso   1.00
O1485  O     0.93933   0.83333   0.81492   0.00000  Uiso   1.00
O1486  O     0.72733   0.83333   0.68508   0.00000  Uiso   1.00
O1487  O     0.79249   0.82007   0.61483   0.00000  Uiso   1.00
H1488  H     0.81884   0.80381   0.59476   0.00000  Uiso   1.00
O1489  O     0.88341   0.79665   0.89220   0.00000  Uiso   1.00
H1490  H     0.90652   0.77888   0.87061   0.00000  Uiso   1.00
C1491  C     0.93059   0.70679   0.71098   0.00000  Uiso   1.00
C1492  C     0.88059   0.70489   0.73265   0.00000  Uiso   1.00
C1493  C     0.84709   0.72441   0.71391   0.00000  Uiso   1.00
C1494  C     0.86325   0.74587   0.67348   0.00000  Uiso   1.00
C1495  C     0.91295   0.74771   0.65158   0.00000  Uiso   1.00
C1496  C     0.94662   0.72823   0.67020   0.00000  Uiso   1.00
H1497  H     0.86772   0.68891   0.76435   0.00000  Uiso   1.00
H1498  H     0.80864   0.72318   0.73089   0.00000  Uiso   1.00
H1499  H     0.83724   0.76110   0.65920   0.00000  Uiso   1.00
H1500  H     0.92536   0.76423   0.62021   0.00000  Uiso   1.00
H1501  H     0.98508   0.73009   0.65311   0.00000  Uiso   1.00
C1502  C     0.73785   0.96044   0.78673   0.00000  Uiso   1.00
C1503  C     0.72435   0.94556   0.83094   0.00000  Uiso   1.00
C1504  C     0.75948   0.92862   0.84964   0.00000  Uiso   1.00
C1505  C     0.80793   0.92588   0.82418   0.00000  Uiso   1.00
C1506  C     0.82149   0.94065   0.78019   0.00000  Uiso   1.00
C1507  C     0.78668   0.95808   0.76151   0.00000  Uiso   1.00
H1508  H     0.68688   0.94749   0.85092   0.00000  Uiso   1.00
H1509  H     0.74932   0.91782   0.88397   0.00000  Uiso   1.00
H1510  H     0.83498   0.91249   0.83860   0.00000  Uiso   1.00
H1511  H     0.85900   0.93862   0.76058   0.00000  Uiso   1.00
H1512  H     0.79766   0.96955   0.72741   0.00000  Uiso   1.00
loop_
_geom_bond_atom_site_label_1
_geom_bond_atom_site_label_2
_geom_bond_distance
_geom_bond_site_symmetry_2
_ccdc_geom_bond_type
C1     C12     1.451   .     S
C1     O51     1.292   .     A
C1     O221    1.287   1_455 S
C2     O52     1.294   .     A
C2     C95     1.452   .     S
C2     O138    1.287   .     S
C3     C32     1.412   .     A
C3     H41     1.081   .     S
C3     C5      1.388   .     A
C4     C6      1.392   .     A
C4     H42     1.080   .     S
C4     C31     1.414   .     A
C5     H35     1.084   .     S
C5     C785    1.394   1_554 S
C6     H36     1.083   .     S
C6     C786    1.396   .     S
C7     C63     1.481   .     S
C7     C513    1.388   1_545 S
C7     C96     1.413   .     S
C8     C74     1.479   .     S
C8     C11     1.414   .     A
C8     C262    1.386   .     S
C9     H43     1.084   .     S
C9     C259    1.388   .     S
C9     C95     1.400   .     S
C10    H44     1.085   .     S
C10    C12     1.398   .     A
C10    C512    1.386   1_545 S
C11    C177    1.400   1_455 S
C11    C170    1.452   1_455 S
C12    C175    1.413   1_455 S
C13    N50     1.367   .     A
C13    C15     1.415   .     A
C13    H45     1.081   .     S
C14    H46     1.081   .     S
C14    N49     1.367   .     A
C14    C16     1.415   .     A
C15    H47     1.082   .     S
C15    N49     1.366   .     A
C16    H48     1.082   .     S
C16    N50     1.366   .     A
C17    C19     1.465   .     S
C17    O57     1.292   .     A
C17    O139    1.296   .     S
C18    O58     1.293   .     A
C18    C20     1.475   .     S
C18    O224    1.299   1_455 S
C19    C23     1.398   .     A
C19    C25     1.412   .     A
C20    C26     1.410   .     A
C20    C24     1.403   .     A
C21    C23     1.389   .     A
C21    C29     1.400   .     A
C21    H39     1.084   .     S
C22    C24     1.393   .     A
C22    C30     1.401   .     A
C22    H208    1.082   1_455 S
C23    H122    1.080   .     S
C24    H205    1.083   1_455 S
C25    O61     1.383   .     S
C25    C27     1.412   .     A
C26    O59     1.382   .     S
C26    C28     1.415   .     A
C27    C29     1.420   .     A
C27    C31     1.422   .     A
C28    C32     1.418   .     A
C28    C30     1.414   .     A
C29    C761    1.394   .     S
C30    C762    1.396   1_554 S
C31    C788    1.415   .     S
C32    C787    1.415   1_554 S
Cu33   O55     1.956   .     S
Cu33   O58     1.943   .     S
Cu33   N49     2.010   .     S
Cu33   O54     1.967   .     S
Cu33   O51     1.966   .     S
Cu33   Cu202   2.675   1_455 S
Cu34   O56     1.956   .     S
Cu34   O57     1.943   .     S
Cu34   N50     2.010   .     S
Cu34   O52     1.966   .     S
Cu34   O53     1.967   .     S
Cu34   Cu117   2.675   .     S
H37    C108    1.083   .     S
H38    C191    1.080   1_455 S
H40    C106    1.082   .     S
O53    C85     1.287   .     S
O54    C170    1.287   1_455 S
O55    C185    1.296   1_455 S
O56    C102    1.299   .     S
O59    H60     0.992   .     S
O61    H62     0.991   .     S
C63    C68     1.405   .     A
C63    C64     1.404   .     A
C64    H69     1.083   .     S
C64    C65     1.398   .     A
C65    H70     1.081   .     S
C65    C66     1.397   .     A
C66    C67     1.398   .     A
C66    H71     1.082   .     S
C67    H72     1.082   .     S
C67    C68     1.399   .     A
C68    H73     1.083   .     S
C74    C75     1.404   .     A
C74    C79     1.404   .     A
C75    H80     1.083   .     S
C75    C76     1.400   .     A
C76    C77     1.397   .     A
C76    H81     1.082   .     S
C77    C78     1.397   .     A
C77    H82     1.083   .     S
C78    H83     1.081   .     S
C78    C79     1.398   .     A
C79    H84     1.083   .     S
C85    C96     1.451   .     S
C85    O135    1.292   .     A
C86    O136    1.294   .     A
C86    C179    1.452   .     S
C86    O222    1.287   .     S
C87    C116    1.412   .     A
C87    H125    1.081   .     S
C87    C89     1.388   .     A
C88    C90     1.392   .     A
C88    H126    1.080   .     S
C88    C115    1.414   .     A
C89    H119    1.084   .     S
C89    C869    1.394   1_554 S
C90    H120    1.083   .     S
C90    C870    1.396   .     S
C91    C147    1.481   .     S
C91    C597    1.388   1_545 S
C91    C180    1.413   .     S
C92    C158    1.479   .     S
C92    C95     1.414   .     A
C92    C346    1.386   .     S
C93    H127    1.084   .     S
C93    C343    1.388   .     S
C93    C179    1.400   .     S
C94    H128    1.085   .     S
C94    C96     1.398   .     A
C94    C596    1.386   1_545 S
C97    N134    1.367   .     A
C97    C99     1.415   .     A
C97    H129    1.081   .     S
C98    H130    1.081   .     S
C98    N133    1.367   .     A
C98    C100    1.415   .     A
C99    H131    1.082   .     S
C99    N133    1.366   .     A
C100   H132    1.082   .     S
C100   N134    1.366   .     A
C101   C103    1.465   .     S
C101   O141    1.292   .     A
C101   O223    1.296   .     S
C102   O142    1.293   .     A
C102   C104    1.475   .     S
C103   C107    1.398   .     A
C103   C109    1.412   .     A
C104   C110    1.410   .     A
C104   C108    1.403   .     A
C105   C107    1.389   .     A
C105   C113    1.400   .     A
C105   H123    1.084   .     S
C106   C108    1.393   .     A
C106   C114    1.401   .     A
C107   H206    1.080   .     S
C109   O145    1.383   .     S
C109   C111    1.412   .     A
C110   O143    1.382   .     S
C110   C112    1.415   .     A
C111   C113    1.420   .     A
C111   C115    1.422   .     A
C112   C116    1.418   .     A
C112   C114    1.414   .     A
C113   C845    1.394   .     S
C114   C846    1.396   1_554 S
C115   C872    1.415   .     S
C116   C871    1.415   1_554 S
Cu117  O139    1.956   .     S
Cu117  O142    1.943   .     S
Cu117  N133    2.010   .     S
Cu117  O138    1.967   .     S
Cu117  O135    1.966   .     S
Cu118  O140    1.956   .     S
Cu118  O141    1.943   .     S
Cu118  N134    2.010   .     S
Cu118  O136    1.966   .     S
Cu118  O137    1.967   .     S
Cu118  Cu201   2.675   .     S
H121   C192    1.083   .     S
H124   C190    1.082   .     S
O137   C169    1.287   .     S
O140   C186    1.299   .     S
O143   H144    0.992   .     S
O145   H146    0.991   .     S
C147   C152    1.405   .     A
C147   C148    1.404   .     A
C148   H153    1.083   .     S
C148   C149    1.398   .     A
C149   H154    1.081   .     S
C149   C150    1.397   .     A
C150   C151    1.398   .     A
C150   H155    1.082   .     S
C151   H156    1.082   .     S
C151   C152    1.399   .     A
C152   H157    1.083   .     S
C158   C159    1.404   .     A
C158   C163    1.404   .     A
C159   H164    1.083   .     S
C159   C160    1.400   .     A
C160   C161    1.397   .     A
C160   H165    1.082   .     S
C161   C162    1.397   .     A
C161   H166    1.083   .     S
C162   H167    1.081   .     S
C162   C163    1.398   .     A
C163   H168    1.083   .     S
C169   C180    1.451   .     S
C169   O219    1.292   .     A
C170   O220    1.294   .     A
C170   C11     1.452   1_655 S
C170   O54     1.287   1_655 S
C171   C200    1.412   .     A
C171   H209    1.081   .     S
C171   C173    1.388   .     A
C172   C174    1.392   .     A
C172   H210    1.080   .     S
C172   C199    1.414   .     A
C173   H203    1.084   .     S
C173   C953    1.394   1_554 S
C174   H204    1.083   .     S
C174   C954    1.396   .     S
C175   C231    1.481   .     S
C175   C681    1.388   1_545 S
C175   C12     1.413   1_655 S
C176   C242    1.479   .     S
C176   C179    1.414   .     A
C176   C430    1.386   .     S
C177   H211    1.084   .     S
C177   C427    1.388   .     S
C177   C11     1.400   1_655 S
C178   H212    1.085   .     S
C178   C180    1.398   .     A
C178   C680    1.386   1_545 S
C181   N218    1.367   .     A
C181   C183    1.415   .     A
C181   H213    1.081   .     S
C182   H214    1.081   .     S
C182   N217    1.367   .     A
C182   C184    1.415   .     A
C183   H215    1.082   .     S
C183   N217    1.366   .     A
C184   H216    1.082   .     S
C184   N218    1.366   .     A
C185   C187    1.465   .     S
C185   O225    1.292   .     A
C185   O55     1.296   1_655 S
C186   O226    1.293   .     A
C186   C188    1.475   .     S
C187   C191    1.398   .     A
C187   C193    1.412   .     A
C188   C194    1.410   .     A
C188   C192    1.403   .     A
C189   C191    1.389   .     A
C189   C197    1.400   .     A
C189   H207    1.084   .     S
C190   C192    1.393   .     A
C190   C198    1.401   .     A
C191   H38     1.080   1_655 S
C193   O229    1.383   .     S
C193   C195    1.412   .     A
C194   O227    1.382   .     S
C194   C196    1.415   .     A
C195   C197    1.420   .     A
C195   C199    1.422   .     A
C196   C200    1.418   .     A
C196   C198    1.414   .     A
C197   C929    1.394   .     S
C198   C930    1.396   1_554 S
C199   C956    1.415   .     S
C200   C955    1.415   1_554 S
Cu201  O223    1.956   .     S
Cu201  O226    1.943   .     S
Cu201  N217    2.010   .     S
Cu201  O222    1.967   .     S
Cu201  O219    1.966   .     S
Cu202  O224    1.956   .     S
Cu202  O225    1.943   .     S
Cu202  N218    2.010   .     S
Cu202  O220    1.966   .     S
Cu202  O221    1.967   .     S
Cu202  Cu33    2.675   1_655 S
H205   C24     1.083   1_655 S
H208   C22     1.082   1_655 S
O221   C1      1.287   1_655 S
O224   C18     1.299   1_655 S
O227   H228    0.992   .     S
O229   H230    0.991   .     S
C231   C236    1.405   .     A
C231   C232    1.404   .     A
C232   H237    1.083   .     S
C232   C233    1.398   .     A
C233   H238    1.081   .     S
C233   C234    1.397   .     A
C234   C235    1.398   .     A
C234   H239    1.082   .     S
C235   H240    1.082   .     S
C235   C236    1.399   .     A
C236   H241    1.083   .     S
C242   C243    1.404   .     A
C242   C247    1.404   .     A
C243   H248    1.083   .     S
C243   C244    1.400   .     A
C244   C245    1.397   .     A
C244   H249    1.082   .     S
C245   C246    1.397   .     A
C245   H250    1.083   .     S
C246   H251    1.081   .     S
C246   C247    1.398   .     A
C247   H252    1.083   .     S
C253   C264    1.451   .     S
C253   O303    1.292   .     A
C253   O473    1.287   1_455 S
C254   O304    1.294   .     A
C254   C347    1.452   .     S
C254   O390    1.287   .     S
C255   C284    1.412   .     A
C255   H293    1.081   .     S
C255   C257    1.388   .     A
C256   C258    1.392   .     A
C256   H294    1.080   .     S
C256   C283    1.414   .     A
C257   H287    1.084   .     S
C257   C1037   1.394   1_554 S
C258   H288    1.083   .     S
C258   C1038   1.396   .     S
C259   C315    1.481   .     S
C259   C348    1.413   .     S
C260   C326    1.479   .     S
C260   C263    1.414   .     A
C260   C514    1.386   .     S
C261   H295    1.084   .     S
C261   C511    1.388   .     S
C261   C347    1.400   .     S
C262   H296    1.085   .     S
C262   C264    1.398   .     A
C263   C429    1.400   1_455 S
C263   C422    1.452   1_455 S
C264   C427    1.413   1_455 S
C265   N302    1.367   .     A
C265   C267    1.415   .     A
C265   H297    1.081   .     S
C266   H298    1.081   .     S
C266   N301    1.367   .     A
C266   C268    1.415   .     A
C267   H299    1.082   .     S
C267   N301    1.366   .     A
C268   H300    1.082   .     S
C268   N302    1.366   .     A
C269   C271    1.465   .     S
C269   O309    1.292   .     A
C269   O391    1.296   .     S
C270   O310    1.293   .     A
C270   C272    1.475   .     S
C270   O476    1.299   1_455 S
C271   C275    1.398   .     A
C271   C277    1.412   .     A
C272   C278    1.410   .     A
C272   C276    1.403   .     A
C273   C275    1.389   .     A
C273   C281    1.400   .     A
C273   H291    1.084   .     S
C274   C276    1.393   .     A
C274   C282    1.401   .     A
C274   H460    1.082   1_455 S
C275   H374    1.080   .     S
C276   H457    1.083   1_455 S
C277   O313    1.383   .     S
C277   C279    1.412   .     A
C278   O311    1.382   .     S
C278   C280    1.415   .     A
C279   C281    1.420   .     A
C279   C283    1.422   .     A
C280   C284    1.418   .     A
C280   C282    1.414   .     A
C281   C1013   1.394   .     S
C282   C1014   1.396   1_554 S
C283   C1040   1.415   .     S
C284   C1039   1.415   1_554 S
Cu285  O307    1.956   .     S
Cu285  O310    1.943   .     S
Cu285  N301    2.010   .     S
Cu285  O306    1.967   .     S
Cu285  O303    1.966   .     S
Cu285  Cu454   2.675   1_455 S
Cu286  O308    1.956   .     S
Cu286  O309    1.943   .     S
Cu286  N302    2.010   .     S
Cu286  O304    1.966   .     S
Cu286  O305    1.967   .     S
Cu286  Cu369   2.675   .     S
H289   C360    1.083   .     S
H290   C443    1.080   1_455 S
H292   C358    1.082   .     S
O305   C337    1.287   .     S
O306   C422    1.287   1_455 S
O307   C437    1.296   1_455 S
O308   C354    1.299   .     S
O311   H312    0.992   .     S
O313   H314    0.991   .     S
C315   C320    1.405   .     A
C315   C316    1.404   .     A
C316   H321    1.083   .     S
C316   C317    1.398   .     A
C317   H322    1.081   .     S
C317   C318    1.397   .     A
C318   C319    1.398   .     A
C318   H323    1.082   .     S
C319   H324    1.082   .     S
C319   C320    1.399   .     A
C320   H325    1.083   .     S
C326   C327    1.404   .     A
C326   C331    1.404   .     A
C327   H332    1.083   .     S
C327   C328    1.400   .     A
C328   C329    1.397   .     A
C328   H333    1.082   .     S
C329   C330    1.397   .     A
C329   H334    1.083   .     S
C330   H335    1.081   .     S
C330   C331    1.398   .     A
C331   H336    1.083   .     S
C337   C348    1.451   .     S
C337   O387    1.292   .     A
C338   O388    1.294   .     A
C338   C431    1.452   .     S
C338   O474    1.287   .     S
C339   C368    1.412   .     A
C339   H377    1.081   .     S
C339   C341    1.388   .     A
C340   C342    1.392   .     A
C340   H378    1.080   .     S
C340   C367    1.414   .     A
C341   H371    1.084   .     S
C341   C1121   1.394   1_554 S
C342   H372    1.083   .     S
C342   C1122   1.396   .     S
C343   C399    1.481   .     S
C343   C432    1.413   .     S
C344   C410    1.479   .     S
C344   C347    1.414   .     A
C344   C598    1.386   .     S
C345   H379    1.084   .     S
C345   C595    1.388   .     S
C345   C431    1.400   .     S
C346   H380    1.085   .     S
C346   C348    1.398   .     A
C349   N386    1.367   .     A
C349   C351    1.415   .     A
C349   H381    1.081   .     S
C350   H382    1.081   .     S
C350   N385    1.367   .     A
C350   C352    1.415   .     A
C351   H383    1.082   .     S
C351   N385    1.366   .     A
C352   H384    1.082   .     S
C352   N386    1.366   .     A
C353   C355    1.465   .     S
C353   O393    1.292   .     A
C353   O475    1.296   .     S
C354   O394    1.293   .     A
C354   C356    1.475   .     S
C355   C359    1.398   .     A
C355   C361    1.412   .     A
C356   C362    1.410   .     A
C356   C360    1.403   .     A
C357   C359    1.389   .     A
C357   C365    1.400   .     A
C357   H375    1.084   .     S
C358   C360    1.393   .     A
C358   C366    1.401   .     A
C359   H458    1.080   .     S
C361   O397    1.383   .     S
C361   C363    1.412   .     A
C362   O395    1.382   .     S
C362   C364    1.415   .     A
C363   C365    1.420   .     A
C363   C367    1.422   .     A
C364   C368    1.418   .     A
C364   C366    1.414   .     A
C365   C1097   1.394   .     S
C366   C1098   1.396   1_554 S
C367   C1124   1.415   .     S
C368   C1123   1.415   1_554 S
Cu369  O391    1.956   .     S
Cu369  O394    1.943   .     S
Cu369  N385    2.010   .     S
Cu369  O390    1.967   .     S
Cu369  O387    1.966   .     S
Cu370  O392    1.956   .     S
Cu370  O393    1.943   .     S
Cu370  N386    2.010   .     S
Cu370  O388    1.966   .     S
Cu370  O389    1.967   .     S
Cu370  Cu453   2.675   .     S
H373   C444    1.083   .     S
H376   C442    1.082   .     S
O389   C421    1.287   .     S
O392   C438    1.299   .     S
O395   H396    0.992   .     S
O397   H398    0.991   .     S
C399   C404    1.405   .     A
C399   C400    1.404   .     A
C400   H405    1.083   .     S
C400   C401    1.398   .     A
C401   H406    1.081   .     S
C401   C402    1.397   .     A
C402   C403    1.398   .     A
C402   H407    1.082   .     S
C403   H408    1.082   .     S
C403   C404    1.399   .     A
C404   H409    1.083   .     S
C410   C411    1.404   .     A
C410   C415    1.404   .     A
C411   H416    1.083   .     S
C411   C412    1.400   .     A
C412   C413    1.397   .     A
C412   H417    1.082   .     S
C413   C414    1.397   .     A
C413   H418    1.083   .     S
C414   H419    1.081   .     S
C414   C415    1.398   .     A
C415   H420    1.083   .     S
C421   C432    1.451   .     S
C421   O471    1.292   .     A
C422   O472    1.294   .     A
C422   C263    1.452   1_655 S
C422   O306    1.287   1_655 S
C423   C452    1.412   .     A
C423   H461    1.081   .     S
C423   C425    1.388   .     A
C424   C426    1.392   .     A
C424   H462    1.080   .     S
C424   C451    1.414   .     A
C425   H455    1.084   .     S
C425   C1205   1.394   1_554 S
C426   H456    1.083   .     S
C426   C1206   1.396   .     S
C427   C483    1.481   .     S
C427   C264    1.413   1_655 S
C428   C494    1.479   .     S
C428   C431    1.414   .     A
C428   C682    1.386   .     S
C429   H463    1.084   .     S
C429   C679    1.388   .     S
C429   C263    1.400   1_655 S
C430   H464    1.085   .     S
C430   C432    1.398   .     A
C433   N470    1.367   .     A
C433   C435    1.415   .     A
C433   H465    1.081   .     S
C434   H466    1.081   .     S
C434   N469    1.367   .     A
C434   C436    1.415   .     A
C435   H467    1.082   .     S
C435   N469    1.366   .     A
C436   H468    1.082   .     S
C436   N470    1.366   .     A
C437   C439    1.465   .     S
C437   O477    1.292   .     A
C437   O307    1.296   1_655 S
C438   O478    1.293   .     A
C438   C440    1.475   .     S
C439   C443    1.398   .     A
C439   C445    1.412   .     A
C440   C446    1.410   .     A
C440   C444    1.403   .     A
C441   C443    1.389   .     A
C441   C449    1.400   .     A
C441   H459    1.084   .     S
C442   C444    1.393   .     A
C442   C450    1.401   .     A
C443   H290    1.080   1_655 S
C445   O481    1.383   .     S
C445   C447    1.412   .     A
C446   O479    1.382   .     S
C446   C448    1.415   .     A
C447   C449    1.420   .     A
C447   C451    1.422   .     A
C448   C452    1.418   .     A
C448   C450    1.414   .     A
C449   C1181   1.394   .     S
C450   C1182   1.396   1_554 S
C451   C1208   1.415   .     S
C452   C1207   1.415   1_554 S
Cu453  O475    1.956   .     S
Cu453  O478    1.943   .     S
Cu453  N469    2.010   .     S
Cu453  O474    1.967   .     S
Cu453  O471    1.966   .     S
Cu454  O476    1.956   .     S
Cu454  O477    1.943   .     S
Cu454  N470    2.010   .     S
Cu454  O472    1.966   .     S
Cu454  O473    1.967   .     S
Cu454  Cu285   2.675   1_655 S
H457   C276    1.083   1_655 S
H460   C274    1.082   1_655 S
O473   C253    1.287   1_655 S
O476   C270    1.299   1_655 S
O479   H480    0.992   .     S
O481   H482    0.991   .     S
C483   C488    1.405   .     A
C483   C484    1.404   .     A
C484   H489    1.083   .     S
C484   C485    1.398   .     A
C485   H490    1.081   .     S
C485   C486    1.397   .     A
C486   C487    1.398   .     A
C486   H491    1.082   .     S
C487   H492    1.082   .     S
C487   C488    1.399   .     A
C488   H493    1.083   .     S
C494   C495    1.404   .     A
C494   C499    1.404   .     A
C495   H500    1.083   .     S
C495   C496    1.400   .     A
C496   C497    1.397   .     A
C496   H501    1.082   .     S
C497   C498    1.397   .     A
C497   H502    1.083   .     S
C498   H503    1.081   .     S
C498   C499    1.398   .     A
C499   H504    1.083   .     S
C505   C516    1.451   .     S
C505   O555    1.292   .     A
C505   O725    1.287   1_455 S
C506   O556    1.294   .     A
C506   C599    1.452   .     S
C506   O642    1.287   .     S
C507   C536    1.412   .     A
C507   H545    1.081   .     S
C507   C509    1.388   .     A
C508   C510    1.392   .     A
C508   H546    1.080   .     S
C508   C535    1.414   .     A
C509   H539    1.084   .     S
C509   C1289   1.394   1_554 S
C510   H540    1.083   .     S
C510   C1290   1.396   .     S
C511   C567    1.481   .     S
C511   C600    1.413   .     S
C512   C578    1.479   .     S
C512   C515    1.414   .     A
C512   C10     1.386   1_565 S
C513   H547    1.084   .     S
C513   C7      1.388   1_565 S
C513   C599    1.400   .     S
C514   H548    1.085   .     S
C514   C516    1.398   .     A
C515   C681    1.400   1_455 S
C515   C674    1.452   1_455 S
C516   C679    1.413   1_455 S
C517   N554    1.367   .     A
C517   C519    1.415   .     A
C517   H549    1.081   .     S
C518   H550    1.081   .     S
C518   N553    1.367   .     A
C518   C520    1.415   .     A
C519   H551    1.082   .     S
C519   N553    1.366   .     A
C520   H552    1.082   .     S
C520   N554    1.366   .     A
C521   C523    1.465   .     S
C521   O561    1.292   .     A
C521   O643    1.296   .     S
C522   O562    1.293   .     A
C522   C524    1.475   .     S
C522   O728    1.299   1_455 S
C523   C527    1.398   .     A
C523   C529    1.412   .     A
C524   C530    1.410   .     A
C524   C528    1.403   .     A
C525   C527    1.389   .     A
C525   C533    1.400   .     A
C525   H543    1.084   .     S
C526   C528    1.393   .     A
C526   C534    1.401   .     A
C526   H712    1.082   1_455 S
C527   H626    1.080   .     S
C528   H709    1.083   1_455 S
C529   O565    1.383   .     S
C529   C531    1.412   .     A
C530   O563    1.382   .     S
C530   C532    1.415   .     A
C531   C533    1.420   .     A
C531   C535    1.422   .     A
C532   C536    1.418   .     A
C532   C534    1.414   .     A
C533   C1265   1.394   .     S
C534   C1266   1.396   1_554 S
C535   C1292   1.415   .     S
C536   C1291   1.415   1_554 S
Cu537  O559    1.956   .     S
Cu537  O562    1.943   .     S
Cu537  N553    2.010   .     S
Cu537  O558    1.967   .     S
Cu537  O555    1.966   .     S
Cu537  Cu706   2.675   1_455 S
Cu538  O560    1.956   .     S
Cu538  O561    1.943   .     S
Cu538  N554    2.010   .     S
Cu538  O556    1.966   .     S
Cu538  O557    1.967   .     S
Cu538  Cu621   2.675   .     S
H541   C612    1.083   .     S
H542   C695    1.080   1_455 S
H544   C610    1.082   .     S
O557   C589    1.287   .     S
O558   C674    1.287   1_455 S
O559   C689    1.296   1_455 S
O560   C606    1.299   .     S
O563   H564    0.992   .     S
O565   H566    0.991   .     S
C567   C572    1.405   .     A
C567   C568    1.404   .     A
C568   H573    1.083   .     S
C568   C569    1.398   .     A
C569   H574    1.081   .     S
C569   C570    1.397   .     A
C570   C571    1.398   .     A
C570   H575    1.082   .     S
C571   H576    1.082   .     S
C571   C572    1.399   .     A
C572   H577    1.083   .     S
C578   C579    1.404   .     A
C578   C583    1.404   .     A
C579   H584    1.083   .     S
C579   C580    1.400   .     A
C580   C581    1.397   .     A
C580   H585    1.082   .     S
C581   C582    1.397   .     A
C581   H586    1.083   .     S
C582   H587    1.081   .     S
C582   C583    1.398   .     A
C583   H588    1.083   .     S
C589   C600    1.451   .     S
C589   O639    1.292   .     A
C590   O640    1.294   .     A
C590   C683    1.452   .     S
C590   O726    1.287   .     S
C591   C620    1.412   .     A
C591   H629    1.081   .     S
C591   C593    1.388   .     A
C592   C594    1.392   .     A
C592   H630    1.080   .     S
C592   C619    1.414   .     A
C593   H623    1.084   .     S
C593   C1373   1.394   1_554 S
C594   H624    1.083   .     S
C594   C1374   1.396   .     S
C595   C651    1.481   .     S
C595   C684    1.413   .     S
C596   C662    1.479   .     S
C596   C599    1.414   .     A
C596   C94     1.386   1_565 S
C597   H631    1.084   .     S
C597   C91     1.388   1_565 S
C597   C683    1.400   .     S
C598   H632    1.085   .     S
C598   C600    1.398   .     A
C601   N638    1.367   .     A
C601   C603    1.415   .     A
C601   H633    1.081   .     S
C602   H634    1.081   .     S
C602   N637    1.367   .     A
C602   C604    1.415   .     A
C603   H635    1.082   .     S
C603   N637    1.366   .     A
C604   H636    1.082   .     S
C604   N638    1.366   .     A
C605   C607    1.465   .     S
C605   O645    1.292   .     A
C605   O727    1.296   .     S
C606   O646    1.293   .     A
C606   C608    1.475   .     S
C607   C611    1.398   .     A
C607   C613    1.412   .     A
C608   C614    1.410   .     A
C608   C612    1.403   .     A
C609   C611    1.389   .     A
C609   C617    1.400   .     A
C609   H627    1.084   .     S
C610   C612    1.393   .     A
C610   C618    1.401   .     A
C611   H710    1.080   .     S
C613   O649    1.383   .     S
C613   C615    1.412   .     A
C614   O647    1.382   .     S
C614   C616    1.415   .     A
C615   C617    1.420   .     A
C615   C619    1.422   .     A
C616   C620    1.418   .     A
C616   C618    1.414   .     A
C617   C1349   1.394   .     S
C618   C1350   1.396   1_554 S
C619   C1376   1.415   .     S
C620   C1375   1.415   1_554 S
Cu621  O643    1.956   .     S
Cu621  O646    1.943   .     S
Cu621  N637    2.010   .     S
Cu621  O642    1.967   .     S
Cu621  O639    1.966   .     S
Cu622  O644    1.956   .     S
Cu622  O645    1.943   .     S
Cu622  N638    2.010   .     S
Cu622  O640    1.966   .     S
Cu622  O641    1.967   .     S
Cu622  Cu705   2.675   .     S
H625   C696    1.083   .     S
H628   C694    1.082   .     S
O641   C673    1.287   .     S
O644   C690    1.299   .     S
O647   H648    0.992   .     S
O649   H650    0.991   .     S
C651   C656    1.405   .     A
C651   C652    1.404   .     A
C652   H657    1.083   .     S
C652   C653    1.398   .     A
C653   H658    1.081   .     S
C653   C654    1.397   .     A
C654   C655    1.398   .     A
C654   H659    1.082   .     S
C655   H660    1.082   .     S
C655   C656    1.399   .     A
C656   H661    1.083   .     S
C662   C663    1.404   .     A
C662   C667    1.404   .     A
C663   H668    1.083   .     S
C663   C664    1.400   .     A
C664   C665    1.397   .     A
C664   H669    1.082   .     S
C665   C666    1.397   .     A
C665   H670    1.083   .     S
C666   H671    1.081   .     S
C666   C667    1.398   .     A
C667   H672    1.083   .     S
C673   C684    1.451   .     S
C673   O723    1.292   .     A
C674   O724    1.294   .     A
C674   C515    1.452   1_655 S
C674   O558    1.287   1_655 S
C675   C704    1.412   .     A
C675   H713    1.081   .     S
C675   C677    1.388   .     A
C676   C678    1.392   .     A
C676   H714    1.080   .     S
C676   C703    1.414   .     A
C677   H707    1.084   .     S
C677   C1457   1.394   1_554 S
C678   H708    1.083   .     S
C678   C1458   1.396   .     S
C679   C735    1.481   .     S
C679   C516    1.413   1_655 S
C680   C746    1.479   .     S
C680   C683    1.414   .     A
C680   C178    1.386   1_565 S
C681   H715    1.084   .     S
C681   C175    1.388   1_565 S
C681   C515    1.400   1_655 S
C682   H716    1.085   .     S
C682   C684    1.398   .     A
C685   N722    1.367   .     A
C685   C687    1.415   .     A
C685   H717    1.081   .     S
C686   H718    1.081   .     S
C686   N721    1.367   .     A
C686   C688    1.415   .     A
C687   H719    1.082   .     S
C687   N721    1.366   .     A
C688   H720    1.082   .     S
C688   N722    1.366   .     A
C689   C691    1.465   .     S
C689   O729    1.292   .     A
C689   O559    1.296   1_655 S
C690   O730    1.293   .     A
C690   C692    1.475   .     S
C691   C695    1.398   .     A
C691   C697    1.412   .     A
C692   C698    1.410   .     A
C692   C696    1.403   .     A
C693   C695    1.389   .     A
C693   C701    1.400   .     A
C693   H711    1.084   .     S
C694   C696    1.393   .     A
C694   C702    1.401   .     A
C695   H542    1.080   1_655 S
C697   O733    1.383   .     S
C697   C699    1.412   .     A
C698   O731    1.382   .     S
C698   C700    1.415   .     A
C699   C701    1.420   .     A
C699   C703    1.422   .     A
C700   C704    1.418   .     A
C700   C702    1.414   .     A
C701   C1433   1.394   .     S
C702   C1434   1.396   1_554 S
C703   C1460   1.415   .     S
C704   C1459   1.415   1_554 S
Cu705  O727    1.956   .     S
Cu705  O730    1.943   .     S
Cu705  N721    2.010   .     S
Cu705  O726    1.967   .     S
Cu705  O723    1.966   .     S
Cu706  O728    1.956   .     S
Cu706  O729    1.943   .     S
Cu706  N722    2.010   .     S
Cu706  O724    1.966   .     S
Cu706  O725    1.967   .     S
Cu706  Cu537   2.675   1_655 S
H709   C528    1.083   1_655 S
H712   C526    1.082   1_655 S
O725   C505    1.287   1_655 S
O728   C522    1.299   1_655 S
O731   H732    0.992   .     S
O733   H734    0.991   .     S
C735   C740    1.405   .     A
C735   C736    1.404   .     A
C736   H741    1.083   .     S
C736   C737    1.398   .     A
C737   H742    1.081   .     S
C737   C738    1.397   .     A
C738   C739    1.398   .     A
C738   H743    1.082   .     S
C739   H744    1.082   .     S
C739   C740    1.399   .     A
C740   H745    1.083   .     S
C746   C747    1.404   .     A
C746   C751    1.404   .     A
C747   H752    1.083   .     S
C747   C748    1.400   .     A
C748   C749    1.397   .     A
C748   H753    1.082   .     S
C749   C750    1.397   .     A
C749   H754    1.083   .     S
C750   H755    1.081   .     S
C750   C751    1.398   .     A
C751   H756    1.083   .     S
C757   C768    1.451   .     S
C757   O807    1.292   .     A
C757   O977    1.287   1_455 S
C758   O808    1.294   .     A
C758   C851    1.452   .     S
C758   O894    1.287   .     S
C759   C788    1.412   .     A
C759   H797    1.081   .     S
C759   C761    1.388   .     A
C760   C762    1.392   .     A
C760   H798    1.080   .     S
C760   C787    1.414   .     A
C761   H791    1.084   .     S
C762   H792    1.083   .     S
C762   C30     1.396   1_556 S
C763   C819    1.481   .     S
C763   C1269   1.388   1_545 S
C763   C852    1.413   .     S
C764   C830    1.479   .     S
C764   C767    1.414   .     A
C764   C1018   1.386   .     S
C765   H799    1.084   .     S
C765   C1015   1.388   .     S
C765   C851    1.400   .     S
C766   H800    1.085   .     S
C766   C768    1.398   .     A
C766   C1268   1.386   1_545 S
C767   C933    1.400   1_455 S
C767   C926    1.452   1_455 S
C768   C931    1.413   1_455 S
C769   N806    1.367   .     A
C769   C771    1.415   .     A
C769   H801    1.081   .     S
C770   H802    1.081   .     S
C770   N805    1.367   .     A
C770   C772    1.415   .     A
C771   H803    1.082   .     S
C771   N805    1.366   .     A
C772   H804    1.082   .     S
C772   N806    1.366   .     A
C773   C775    1.465   .     S
C773   O813    1.292   .     A
C773   O895    1.296   .     S
C774   O814    1.293   .     A
C774   C776    1.475   .     S
C774   O980    1.299   1_455 S
C775   C779    1.398   .     A
C775   C781    1.412   .     A
C776   C782    1.410   .     A
C776   C780    1.403   .     A
C777   C779    1.389   .     A
C777   C785    1.400   .     A
C777   H795    1.084   .     S
C778   C780    1.393   .     A
C778   C786    1.401   .     A
C778   H964    1.082   1_455 S
C779   H878    1.080   .     S
C780   H961    1.083   1_455 S
C781   O817    1.383   .     S
C781   C783    1.412   .     A
C782   O815    1.382   .     S
C782   C784    1.415   .     A
C783   C785    1.420   .     A
C783   C787    1.422   .     A
C784   C788    1.418   .     A
C784   C786    1.414   .     A
C785   C5      1.394   1_556 S
C787   C32     1.415   1_556 S
Cu789  O811    1.956   .     S
Cu789  O814    1.943   .     S
Cu789  N805    2.010   .     S
Cu789  O810    1.967   .     S
Cu789  O807    1.966   .     S
Cu789  Cu958   2.675   1_455 S
Cu790  O812    1.956   .     S
Cu790  O813    1.943   .     S
Cu790  N806    2.010   .     S
Cu790  O808    1.966   .     S
Cu790  O809    1.967   .     S
Cu790  Cu873   2.675   .     S
H793   C864    1.083   .     S
H794   C947    1.080   1_455 S
H796   C862    1.082   .     S
O809   C841    1.287   .     S
O810   C926    1.287   1_455 S
O811   C941    1.296   1_455 S
O812   C858    1.299   .     S
O815   H816    0.992   .     S
O817   H818    0.991   .     S
C819   C824    1.405   .     A
C819   C820    1.404   .     A
C820   H825    1.083   .     S
C820   C821    1.398   .     A
C821   H826    1.081   .     S
C821   C822    1.397   .     A
C822   C823    1.398   .     A
C822   H827    1.082   .     S
C823   H828    1.082   .     S
C823   C824    1.399   .     A
C824   H829    1.083   .     S
C830   C831    1.404   .     A
C830   C835    1.404   .     A
C831   H836    1.083   .     S
C831   C832    1.400   .     A
C832   C833    1.397   .     A
C832   H837    1.082   .     S
C833   C834    1.397   .     A
C833   H838    1.083   .     S
C834   H839    1.081   .     S
C834   C835    1.398   .     A
C835   H840    1.083   .     S
C841   C852    1.451   .     S
C841   O891    1.292   .     A
C842   O892    1.294   .     A
C842   C935    1.452   .     S
C842   O978    1.287   .     S
C843   C872    1.412   .     A
C843   H881    1.081   .     S
C843   C845    1.388   .     A
C844   C846    1.392   .     A
C844   H882    1.080   .     S
C844   C871    1.414   .     A
C845   H875    1.084   .     S
C846   H876    1.083   .     S
C846   C114    1.396   1_556 S
C847   C903    1.481   .     S
C847   C1353   1.388   1_545 S
C847   C936    1.413   .     S
C848   C914    1.479   .     S
C848   C851    1.414   .     A
C848   C1102   1.386   .     S
C849   H883    1.084   .     S
C849   C1099   1.388   .     S
C849   C935    1.400   .     S
C850   H884    1.085   .     S
C850   C852    1.398   .     A
C850   C1352   1.386   1_545 S
C853   N890    1.367   .     A
C853   C855    1.415   .     A
C853   H885    1.081   .     S
C854   H886    1.081   .     S
C854   N889    1.367   .     A
C854   C856    1.415   .     A
C855   H887    1.082   .     S
C855   N889    1.366   .     A
C856   H888    1.082   .     S
C856   N890    1.366   .     A
C857   C859    1.465   .     S
C857   O897    1.292   .     A
C857   O979    1.296   .     S
C858   O898    1.293   .     A
C858   C860    1.475   .     S
C859   C863    1.398   .     A
C859   C865    1.412   .     A
C860   C866    1.410   .     A
C860   C864    1.403   .     A
C861   C863    1.389   .     A
C861   C869    1.400   .     A
C861   H879    1.084   .     S
C862   C864    1.393   .     A
C862   C870    1.401   .     A
C863   H962    1.080   .     S
C865   O901    1.383   .     S
C865   C867    1.412   .     A
C866   O899    1.382   .     S
C866   C868    1.415   .     A
C867   C869    1.420   .     A
C867   C871    1.422   .     A
C868   C872    1.418   .     A
C868   C870    1.414   .     A
C869   C89     1.394   1_556 S
C871   C116    1.415   1_556 S
Cu873  O895    1.956   .     S
Cu873  O898    1.943   .     S
Cu873  N889    2.010   .     S
Cu873  O894    1.967   .     S
Cu873  O891    1.966   .     S
Cu874  O896    1.956   .     S
Cu874  O897    1.943   .     S
Cu874  N890    2.010   .     S
Cu874  O892    1.966   .     S
Cu874  O893    1.967   .     S
Cu874  Cu957   2.675   .     S
H877   C948    1.083   .     S
H880   C946    1.082   .     S
O893   C925    1.287   .     S
O896   C942    1.299   .     S
O899   H900    0.992   .     S
O901   H902    0.991   .     S
C903   C908    1.405   .     A
C903   C904    1.404   .     A
C904   H909    1.083   .     S
C904   C905    1.398   .     A
C905   H910    1.081   .     S
C905   C906    1.397   .     A
C906   C907    1.398   .     A
C906   H911    1.082   .     S
C907   H912    1.082   .     S
C907   C908    1.399   .     A
C908   H913    1.083   .     S
C914   C915    1.404   .     A
C914   C919    1.404   .     A
C915   H920    1.083   .     S
C915   C916    1.400   .     A
C916   C917    1.397   .     A
C916   H921    1.082   .     S
C917   C918    1.397   .     A
C917   H922    1.083   .     S
C918   H923    1.081   .     S
C918   C919    1.398   .     A
C919   H924    1.083   .     S
C925   C936    1.451   .     S
C925   O975    1.292   .     A
C926   O976    1.294   .     A
C926   C767    1.452   1_655 S
C926   O810    1.287   1_655 S
C927   C956    1.412   .     A
C927   H965    1.081   .     S
C927   C929    1.388   .     A
C928   C930    1.392   .     A
C928   H966    1.080   .     S
C928   C955    1.414   .     A
C929   H959    1.084   .     S
C930   H960    1.083   .     S
C930   C198    1.396   1_556 S
C931   C987    1.481   .     S
C931   C1437   1.388   1_545 S
C931   C768    1.413   1_655 S
C932   C998    1.479   .     S
C932   C935    1.414   .     A
C932   C1186   1.386   .     S
C933   H967    1.084   .     S
C933   C1183   1.388   .     S
C933   C767    1.400   1_655 S
C934   H968    1.085   .     S
C934   C936    1.398   .     A
C934   C1436   1.386   1_545 S
C937   N974    1.367   .     A
C937   C939    1.415   .     A
C937   H969    1.081   .     S
C938   H970    1.081   .     S
C938   N973    1.367   .     A
C938   C940    1.415   .     A
C939   H971    1.082   .     S
C939   N973    1.366   .     A
C940   H972    1.082   .     S
C940   N974    1.366   .     A
C941   C943    1.465   .     S
C941   O981    1.292   .     A
C941   O811    1.296   1_655 S
C942   O982    1.293   .     A
C942   C944    1.475   .     S
C943   C947    1.398   .     A
C943   C949    1.412   .     A
C944   C950    1.410   .     A
C944   C948    1.403   .     A
C945   C947    1.389   .     A
C945   C953    1.400   .     A
C945   H963    1.084   .     S
C946   C948    1.393   .     A
C946   C954    1.401   .     A
C947   H794    1.080   1_655 S
C949   O985    1.383   .     S
C949   C951    1.412   .     A
C950   O983    1.382   .     S
C950   C952    1.415   .     A
C951   C953    1.420   .     A
C951   C955    1.422   .     A
C952   C956    1.418   .     A
C952   C954    1.414   .     A
C953   C173    1.394   1_556 S
C955   C200    1.415   1_556 S
Cu957  O979    1.956   .     S
Cu957  O982    1.943   .     S
Cu957  N973    2.010   .     S
Cu957  O978    1.967   .     S
Cu957  O975    1.966   .     S
Cu958  O980    1.956   .     S
Cu958  O981    1.943   .     S
Cu958  N974    2.010   .     S
Cu958  O976    1.966   .     S
Cu958  O977    1.967   .     S
Cu958  Cu789   2.675   1_655 S
H961   C780    1.083   1_655 S
H964   C778    1.082   1_655 S
O977   C757    1.287   1_655 S
O980   C774    1.299   1_655 S
O983   H984    0.992   .     S
O985   H986    0.991   .     S
C987   C992    1.405   .     A
C987   C988    1.404   .     A
C988   H993    1.083   .     S
C988   C989    1.398   .     A
C989   H994    1.081   .     S
C989   C990    1.397   .     A
C990   C991    1.398   .     A
C990   H995    1.082   .     S
C991   H996    1.082   .     S
C991   C992    1.399   .     A
C992   H997    1.083   .     S
C998   C999    1.404   .     A
C998   C1003   1.404   .     A
C999   H1004   1.083   .     S
C999   C1000   1.400   .     A
C1000  C1001   1.397   .     A
C1000  H1005   1.082   .     S
C1001  C1002   1.397   .     A
C1001  H1006   1.083   .     S
C1002  H1007   1.081   .     S
C1002  C1003   1.398   .     A
C1003  H1008   1.083   .     S
C1009  C1020   1.451   .     S
C1009  O1059   1.292   .     A
C1009  O1229   1.287   1_455 S
C1010  O1060   1.294   .     A
C1010  C1103   1.452   .     S
C1010  O1146   1.287   .     S
C1011  C1040   1.412   .     A
C1011  H1049   1.081   .     S
C1011  C1013   1.388   .     A
C1012  C1014   1.392   .     A
C1012  H1050   1.080   .     S
C1012  C1039   1.414   .     A
C1013  H1043   1.084   .     S
C1014  H1044   1.083   .     S
C1014  C282    1.396   1_556 S
C1015  C1071   1.481   .     S
C1015  C1104   1.413   .     S
C1016  C1082   1.479   .     S
C1016  C1019   1.414   .     A
C1016  C1270   1.386   .     S
C1017  H1051   1.084   .     S
C1017  C1267   1.388   .     S
C1017  C1103   1.400   .     S
C1018  H1052   1.085   .     S
C1018  C1020   1.398   .     A
C1019  C1185   1.400   1_455 S
C1019  C1178   1.452   1_455 S
C1020  C1183   1.413   1_455 S
C1021  N1058   1.367   .     A
C1021  C1023   1.415   .     A
C1021  H1053   1.081   .     S
C1022  H1054   1.081   .     S
C1022  N1057   1.367   .     A
C1022  C1024   1.415   .     A
C1023  H1055   1.082   .     S
C1023  N1057   1.366   .     A
C1024  H1056   1.082   .     S
C1024  N1058   1.366   .     A
C1025  C1027   1.465   .     S
C1025  O1065   1.292   .     A
C1025  O1147   1.296   .     S
C1026  O1066   1.293   .     A
C1026  C1028   1.475   .     S
C1026  O1232   1.299   1_455 S
C1027  C1031   1.398   .     A
C1027  C1033   1.412   .     A
C1028  C1034   1.410   .     A
C1028  C1032   1.403   .     A
C1029  C1031   1.389   .     A
C1029  C1037   1.400   .     A
C1029  H1047   1.084   .     S
C1030  C1032   1.393   .     A
C1030  C1038   1.401   .     A
C1030  H1216   1.082   1_455 S
C1031  H1130   1.080   .     S
C1032  H1213   1.083   1_455 S
C1033  O1069   1.383   .     S
C1033  C1035   1.412   .     A
C1034  O1067   1.382   .     S
C1034  C1036   1.415   .     A
C1035  C1037   1.420   .     A
C1035  C1039   1.422   .     A
C1036  C1040   1.418   .     A
C1036  C1038   1.414   .     A
C1037  C257    1.394   1_556 S
C1039  C284    1.415   1_556 S
Cu1041 O1063   1.956   .     S
Cu1041 O1066   1.943   .     S
Cu1041 N1057   2.010   .     S
Cu1041 O1062   1.967   .     S
Cu1041 O1059   1.966   .     S
Cu1041 Cu1210  2.675   1_455 S
Cu1042 O1064   1.956   .     S
Cu1042 O1065   1.943   .     S
Cu1042 N1058   2.010   .     S
Cu1042 O1060   1.966   .     S
Cu1042 O1061   1.967   .     S
Cu1042 Cu1125  2.675   .     S
H1045  C1116   1.083   .     S
H1046  C1199   1.080   1_455 S
H1048  C1114   1.082   .     S
O1061  C1093   1.287   .     S
O1062  C1178   1.287   1_455 S
O1063  C1193   1.296   1_455 S
O1064  C1110   1.299   .     S
O1067  H1068   0.992   .     S
O1069  H1070   0.991   .     S
C1071  C1076   1.405   .     A
C1071  C1072   1.404   .     A
C1072  H1077   1.083   .     S
C1072  C1073   1.398   .     A
C1073  H1078   1.081   .     S
C1073  C1074   1.397   .     A
C1074  C1075   1.398   .     A
C1074  H1079   1.082   .     S
C1075  H1080   1.082   .     S
C1075  C1076   1.399   .     A
C1076  H1081   1.083   .     S
C1082  C1083   1.404   .     A
C1082  C1087   1.404   .     A
C1083  H1088   1.083   .     S
C1083  C1084   1.400   .     A
C1084  C1085   1.397   .     A
C1084  H1089   1.082   .     S
C1085  C1086   1.397   .     A
C1085  H1090   1.083   .     S
C1086  H1091   1.081   .     S
C1086  C1087   1.398   .     A
C1087  H1092   1.083   .     S
C1093  C1104   1.451   .     S
C1093  O1143   1.292   .     A
C1094  O1144   1.294   .     A
C1094  C1187   1.452   .     S
C1094  O1230   1.287   .     S
C1095  C1124   1.412   .     A
C1095  H1133   1.081   .     S
C1095  C1097   1.388   .     A
C1096  C1098   1.392   .     A
C1096  H1134   1.080   .     S
C1096  C1123   1.414   .     A
C1097  H1127   1.084   .     S
C1098  H1128   1.083   .     S
C1098  C366    1.396   1_556 S
C1099  C1155   1.481   .     S
C1099  C1188   1.413   .     S
C1100  C1166   1.479   .     S
C1100  C1103   1.414   .     A
C1100  C1354   1.386   .     S
C1101  H1135   1.084   .     S
C1101  C1351   1.388   .     S
C1101  C1187   1.400   .     S
C1102  H1136   1.085   .     S
C1102  C1104   1.398   .     A
C1105  N1142   1.367   .     A
C1105  C1107   1.415   .     A
C1105  H1137   1.081   .     S
C1106  H1138   1.081   .     S
C1106  N1141   1.367   .     A
C1106  C1108   1.415   .     A
C1107  H1139   1.082   .     S
C1107  N1141   1.366   .     A
C1108  H1140   1.082   .     S
C1108  N1142   1.366   .     A
C1109  C1111   1.465   .     S
C1109  O1149   1.292   .     A
C1109  O1231   1.296   .     S
C1110  O1150   1.293   .     A
C1110  C1112   1.475   .     S
C1111  C1115   1.398   .     A
C1111  C1117   1.412   .     A
C1112  C1118   1.410   .     A
C1112  C1116   1.403   .     A
C1113  C1115   1.389   .     A
C1113  C1121   1.400   .     A
C1113  H1131   1.084   .     S
C1114  C1116   1.393   .     A
C1114  C1122   1.401   .     A
C1115  H1214   1.080   .     S
C1117  O1153   1.383   .     S
C1117  C1119   1.412   .     A
C1118  O1151   1.382   .     S
C1118  C1120   1.415   .     A
C1119  C1121   1.420   .     A
C1119  C1123   1.422   .     A
C1120  C1124   1.418   .     A
C1120  C1122   1.414   .     A
C1121  C341    1.394   1_556 S
C1123  C368    1.415   1_556 S
Cu1125 O1147   1.956   .     S
Cu1125 O1150   1.943   .     S
Cu1125 N1141   2.010   .     S
Cu1125 O1146   1.967   .     S
Cu1125 O1143   1.966   .     S
Cu1126 O1148   1.956   .     S
Cu1126 O1149   1.943   .     S
Cu1126 N1142   2.010   .     S
Cu1126 O1144   1.966   .     S
Cu1126 O1145   1.967   .     S
Cu1126 Cu1209  2.675   .     S
H1129  C1200   1.083   .     S
H1132  C1198   1.082   .     S
O1145  C1177   1.287   .     S
O1148  C1194   1.299   .     S
O1151  H1152   0.992   .     S
O1153  H1154   0.991   .     S
C1155  C1160   1.405   .     A
C1155  C1156   1.404   .     A
C1156  H1161   1.083   .     S
C1156  C1157   1.398   .     A
C1157  H1162   1.081   .     S
C1157  C1158   1.397   .     A
C1158  C1159   1.398   .     A
C1158  H1163   1.082   .     S
C1159  H1164   1.082   .     S
C1159  C1160   1.399   .     A
C1160  H1165   1.083   .     S
C1166  C1167   1.404   .     A
C1166  C1171   1.404   .     A
C1167  H1172   1.083   .     S
C1167  C1168   1.400   .     A
C1168  C1169   1.397   .     A
C1168  H1173   1.082   .     S
C1169  C1170   1.397   .     A
C1169  H1174   1.083   .     S
C1170  H1175   1.081   .     S
C1170  C1171   1.398   .     A
C1171  H1176   1.083   .     S
C1177  C1188   1.451   .     S
C1177  O1227   1.292   .     A
C1178  O1228   1.294   .     A
C1178  C1019   1.452   1_655 S
C1178  O1062   1.287   1_655 S
C1179  C1208   1.412   .     A
C1179  H1217   1.081   .     S
C1179  C1181   1.388   .     A
C1180  C1182   1.392   .     A
C1180  H1218   1.080   .     S
C1180  C1207   1.414   .     A
C1181  H1211   1.084   .     S
C1182  H1212   1.083   .     S
C1182  C450    1.396   1_556 S
C1183  C1239   1.481   .     S
C1183  C1020   1.413   1_655 S
C1184  C1250   1.479   .     S
C1184  C1187   1.414   .     A
C1184  C1438   1.386   .     S
C1185  H1219   1.084   .     S
C1185  C1435   1.388   .     S
C1185  C1019   1.400   1_655 S
C1186  H1220   1.085   .     S
C1186  C1188   1.398   .     A
C1189  N1226   1.367   .     A
C1189  C1191   1.415   .     A
C1189  H1221   1.081   .     S
C1190  H1222   1.081   .     S
C1190  N1225   1.367   .     A
C1190  C1192   1.415   .     A
C1191  H1223   1.082   .     S
C1191  N1225   1.366   .     A
C1192  H1224   1.082   .     S
C1192  N1226   1.366   .     A
C1193  C1195   1.465   .     S
C1193  O1233   1.292   .     A
C1193  O1063   1.296   1_655 S
C1194  O1234   1.293   .     A
C1194  C1196   1.475   .     S
C1195  C1199   1.398   .     A
C1195  C1201   1.412   .     A
C1196  C1202   1.410   .     A
C1196  C1200   1.403   .     A
C1197  C1199   1.389   .     A
C1197  C1205   1.400   .     A
C1197  H1215   1.084   .     S
C1198  C1200   1.393   .     A
C1198  C1206   1.401   .     A
C1199  H1046   1.080   1_655 S
C1201  O1237   1.383   .     S
C1201  C1203   1.412   .     A
C1202  O1235   1.382   .     S
C1202  C1204   1.415   .     A
C1203  C1205   1.420   .     A
C1203  C1207   1.422   .     A
C1204  C1208   1.418   .     A
C1204  C1206   1.414   .     A
C1205  C425    1.394   1_556 S
C1207  C452    1.415   1_556 S
Cu1209 O1231   1.956   .     S
Cu1209 O1234   1.943   .     S
Cu1209 N1225   2.010   .     S
Cu1209 O1230   1.967   .     S
Cu1209 O1227   1.966   .     S
Cu1210 O1232   1.956   .     S
Cu1210 O1233   1.943   .     S
Cu1210 N1226   2.010   .     S
Cu1210 O1228   1.966   .     S
Cu1210 O1229   1.967   .     S
Cu1210 Cu1041  2.675   1_655 S
H1213  C1032   1.083   1_655 S
H1216  C1030   1.082   1_655 S
O1229  C1009   1.287   1_655 S
O1232  C1026   1.299   1_655 S
O1235  H1236   0.992   .     S
O1237  H1238   0.991   .     S
C1239  C1244   1.405   .     A
C1239  C1240   1.404   .     A
C1240  H1245   1.083   .     S
C1240  C1241   1.398   .     A
C1241  H1246   1.081   .     S
C1241  C1242   1.397   .     A
C1242  C1243   1.398   .     A
C1242  H1247   1.082   .     S
C1243  H1248   1.082   .     S
C1243  C1244   1.399   .     A
C1244  H1249   1.083   .     S
C1250  C1251   1.404   .     A
C1250  C1255   1.404   .     A
C1251  H1256   1.083   .     S
C1251  C1252   1.400   .     A
C1252  C1253   1.397   .     A
C1252  H1257   1.082   .     S
C1253  C1254   1.397   .     A
C1253  H1258   1.083   .     S
C1254  H1259   1.081   .     S
C1254  C1255   1.398   .     A
C1255  H1260   1.083   .     S
C1261  C1272   1.451   .     S
C1261  O1311   1.292   .     A
C1261  O1481   1.287   1_455 S
C1262  O1312   1.294   .     A
C1262  C1355   1.452   .     S
C1262  O1398   1.287   .     S
C1263  C1292   1.412   .     A
C1263  H1301   1.081   .     S
C1263  C1265   1.388   .     A
C1264  C1266   1.392   .     A
C1264  H1302   1.080   .     S
C1264  C1291   1.414   .     A
C1265  H1295   1.084   .     S
C1266  H1296   1.083   .     S
C1266  C534    1.396   1_556 S
C1267  C1323   1.481   .     S
C1267  C1356   1.413   .     S
C1268  C1334   1.479   .     S
C1268  C1271   1.414   .     A
C1268  C766    1.386   1_565 S
C1269  H1303   1.084   .     S
C1269  C763    1.388   1_565 S
C1269  C1355   1.400   .     S
C1270  H1304   1.085   .     S
C1270  C1272   1.398   .     A
C1271  C1437   1.400   1_455 S
C1271  C1430   1.452   1_455 S
C1272  C1435   1.413   1_455 S
C1273  N1310   1.367   .     A
C1273  C1275   1.415   .     A
C1273  H1305   1.081   .     S
C1274  H1306   1.081   .     S
C1274  N1309   1.367   .     A
C1274  C1276   1.415   .     A
C1275  H1307   1.082   .     S
C1275  N1309   1.366   .     A
C1276  H1308   1.082   .     S
C1276  N1310   1.366   .     A
C1277  C1279   1.465   .     S
C1277  O1317   1.292   .     A
C1277  O1399   1.296   .     S
C1278  O1318   1.293   .     A
C1278  C1280   1.475   .     S
C1278  O1484   1.299   1_455 S
C1279  C1283   1.398   .     A
C1279  C1285   1.412   .     A
C1280  C1286   1.410   .     A
C1280  C1284   1.403   .     A
C1281  C1283   1.389   .     A
C1281  C1289   1.400   .     A
C1281  H1299   1.084   .     S
C1282  C1284   1.393   .     A
C1282  C1290   1.401   .     A
C1282  H1468   1.082   1_455 S
C1283  H1382   1.080   .     S
C1284  H1465   1.083   1_455 S
C1285  O1321   1.383   .     S
C1285  C1287   1.412   .     A
C1286  O1319   1.382   .     S
C1286  C1288   1.415   .     A
C1287  C1289   1.420   .     A
C1287  C1291   1.422   .     A
C1288  C1292   1.418   .     A
C1288  C1290   1.414   .     A
C1289  C509    1.394   1_556 S
C1291  C536    1.415   1_556 S
Cu1293 O1315   1.956   .     S
Cu1293 O1318   1.943   .     S
Cu1293 N1309   2.010   .     S
Cu1293 O1314   1.967   .     S
Cu1293 O1311   1.966   .     S
Cu1293 Cu1462  2.675   1_455 S
Cu1294 O1316   1.956   .     S
Cu1294 O1317   1.943   .     S
Cu1294 N1310   2.010   .     S
Cu1294 O1312   1.966   .     S
Cu1294 O1313   1.967   .     S
Cu1294 Cu1377  2.675   .     S
H1297  C1368   1.083   .     S
H1298  C1451   1.080   1_455 S
H1300  C1366   1.082   .     S
O1313  C1345   1.287   .     S
O1314  C1430   1.287   1_455 S
O1315  C1445   1.296   1_455 S
O1316  C1362   1.299   .     S
O1319  H1320   0.992   .     S
O1321  H1322   0.991   .     S
C1323  C1328   1.405   .     A
C1323  C1324   1.404   .     A
C1324  H1329   1.083   .     S
C1324  C1325   1.398   .     A
C1325  H1330   1.081   .     S
C1325  C1326   1.397   .     A
C1326  C1327   1.398   .     A
C1326  H1331   1.082   .     S
C1327  H1332   1.082   .     S
C1327  C1328   1.399   .     A
C1328  H1333   1.083   .     S
C1334  C1335   1.404   .     A
C1334  C1339   1.404   .     A
C1335  H1340   1.083   .     S
C1335  C1336   1.400   .     A
C1336  C1337   1.397   .     A
C1336  H1341   1.082   .     S
C1337  C1338   1.397   .     A
C1337  H1342   1.083   .     S
C1338  H1343   1.081   .     S
C1338  C1339   1.398   .     A
C1339  H1344   1.083   .     S
C1345  C1356   1.451   .     S
C1345  O1395   1.292   .     A
C1346  O1396   1.294   .     A
C1346  C1439   1.452   .     S
C1346  O1482   1.287   .     S
C1347  C1376   1.412   .     A
C1347  H1385   1.081   .     S
C1347  C1349   1.388   .     A
C1348  C1350   1.392   .     A
C1348  H1386   1.080   .     S
C1348  C1375   1.414   .     A
C1349  H1379   1.084   .     S
C1350  H1380   1.083   .     S
C1350  C618    1.396   1_556 S
C1351  C1407   1.481   .     S
C1351  C1440   1.413   .     S
C1352  C1418   1.479   .     S
C1352  C1355   1.414   .     A
C1352  C850    1.386   1_565 S
C1353  H1387   1.084   .     S
C1353  C847    1.388   1_565 S
C1353  C1439   1.400   .     S
C1354  H1388   1.085   .     S
C1354  C1356   1.398   .     A
C1357  N1394   1.367   .     A
C1357  C1359   1.415   .     A
C1357  H1389   1.081   .     S
C1358  H1390   1.081   .     S
C1358  N1393   1.367   .     A
C1358  C1360   1.415   .     A
C1359  H1391   1.082   .     S
C1359  N1393   1.366   .     A
C1360  H1392   1.082   .     S
C1360  N1394   1.366   .     A
C1361  C1363   1.465   .     S
C1361  O1401   1.292   .     A
C1361  O1483   1.296   .     S
C1362  O1402   1.293   .     A
C1362  C1364   1.475   .     S
C1363  C1367   1.398   .     A
C1363  C1369   1.412   .     A
C1364  C1370   1.410   .     A
C1364  C1368   1.403   .     A
C1365  C1367   1.389   .     A
C1365  C1373   1.400   .     A
C1365  H1383   1.084   .     S
C1366  C1368   1.393   .     A
C1366  C1374   1.401   .     A
C1367  H1466   1.080   .     S
C1369  O1405   1.383   .     S
C1369  C1371   1.412   .     A
C1370  O1403   1.382   .     S
C1370  C1372   1.415   .     A
C1371  C1373   1.420   .     A
C1371  C1375   1.422   .     A
C1372  C1376   1.418   .     A
C1372  C1374   1.414   .     A
C1373  C593    1.394   1_556 S
C1375  C620    1.415   1_556 S
Cu1377 O1399   1.956   .     S
Cu1377 O1402   1.943   .     S
Cu1377 N1393   2.010   .     S
Cu1377 O1398   1.967   .     S
Cu1377 O1395   1.966   .     S
Cu1378 O1400   1.956   .     S
Cu1378 O1401   1.943   .     S
Cu1378 N1394   2.010   .     S
Cu1378 O1396   1.966   .     S
Cu1378 O1397   1.967   .     S
Cu1378 Cu1461  2.675   .     S
H1381  C1452   1.083   .     S
H1384  C1450   1.082   .     S
O1397  C1429   1.287   .     S
O1400  C1446   1.299   .     S
O1403  H1404   0.992   .     S
O1405  H1406   0.991   .     S
C1407  C1412   1.405   .     A
C1407  C1408   1.404   .     A
C1408  H1413   1.083   .     S
C1408  C1409   1.398   .     A
C1409  H1414   1.081   .     S
C1409  C1410   1.397   .     A
C1410  C1411   1.398   .     A
C1410  H1415   1.082   .     S
C1411  H1416   1.082   .     S
C1411  C1412   1.399   .     A
C1412  H1417   1.083   .     S
C1418  C1419   1.404   .     A
C1418  C1423   1.404   .     A
C1419  H1424   1.083   .     S
C1419  C1420   1.400   .     A
C1420  C1421   1.397   .     A
C1420  H1425   1.082   .     S
C1421  C1422   1.397   .     A
C1421  H1426   1.083   .     S
C1422  H1427   1.081   .     S
C1422  C1423   1.398   .     A
C1423  H1428   1.083   .     S
C1429  C1440   1.451   .     S
C1429  O1479   1.292   .     A
C1430  O1480   1.294   .     A
C1430  C1271   1.452   1_655 S
C1430  O1314   1.287   1_655 S
C1431  C1460   1.412   .     A
C1431  H1469   1.081   .     S
C1431  C1433   1.388   .     A
C1432  C1434   1.392   .     A
C1432  H1470   1.080   .     S
C1432  C1459   1.414   .     A
C1433  H1463   1.084   .     S
C1434  H1464   1.083   .     S
C1434  C702    1.396   1_556 S
C1435  C1491   1.481   .     S
C1435  C1272   1.413   1_655 S
C1436  C1502   1.479   .     S
C1436  C1439   1.414   .     A
C1436  C934    1.386   1_565 S
C1437  H1471   1.084   .     S
C1437  C931    1.388   1_565 S
C1437  C1271   1.400   1_655 S
C1438  H1472   1.085   .     S
C1438  C1440   1.398   .     A
C1441  N1478   1.367   .     A
C1441  C1443   1.415   .     A
C1441  H1473   1.081   .     S
C1442  H1474   1.081   .     S
C1442  N1477   1.367   .     A
C1442  C1444   1.415   .     A
C1443  H1475   1.082   .     S
C1443  N1477   1.366   .     A
C1444  H1476   1.082   .     S
C1444  N1478   1.366   .     A
C1445  C1447   1.465   .     S
C1445  O1485   1.292   .     A
C1445  O1315   1.296   1_655 S
C1446  O1486   1.293   .     A
C1446  C1448   1.475   .     S
C1447  C1451   1.398   .     A
C1447  C1453   1.412   .     A
C1448  C1454   1.410   .     A
C1448  C1452   1.403   .     A
C1449  C1451   1.389   .     A
C1449  C1457   1.400   .     A
C1449  H1467   1.084   .     S
C1450  C1452   1.393   .     A
C1450  C1458   1.401   .     A
C1451  H1298   1.080   1_655 S
C1453  O1489   1.383   .     S
C1453  C1455   1.412   .     A
C1454  O1487   1.382   .     S
C1454  C1456   1.415   .     A
C1455  C1457   1.420   .     A
C1455  C1459   1.422   .     A
C1456  C1460   1.418   .     A
C1456  C1458   1.414   .     A
C1457  C677    1.394   1_556 S
C1459  C704    1.415   1_556 S
Cu1461 O1483   1.956   .     S
Cu1461 O1486   1.943   .     S
Cu1461 N1477   2.010   .     S
Cu1461 O1482   1.967   .     S
Cu1461 O1479   1.966   .     S
Cu1462 O1484   1.956   .     S
Cu1462 O1485   1.943   .     S
Cu1462 N1478   2.010   .     S
Cu1462 O1480   1.966   .     S
Cu1462 O1481   1.967   .     S
Cu1462 Cu1293  2.675   1_655 S
H1465  C1284   1.083   1_655 S
H1468  C1282   1.082   1_655 S
O1481  C1261   1.287   1_655 S
O1484  C1278   1.299   1_655 S
O1487  H1488   0.992   .     S
O1489  H1490   0.991   .     S
C1491  C1496   1.405   .     A
C1491  C1492   1.404   .     A
C1492  H1497   1.083   .     S
C1492  C1493   1.398   .     A
C1493  H1498   1.081   .     S
C1493  C1494   1.397   .     A
C1494  C1495   1.398   .     A
C1494  H1499   1.082   .     S
C1495  H1500   1.082   .     S
C1495  C1496   1.399   .     A
C1496  H1501   1.083   .     S
C1502  C1503   1.404   .     A
C1502  C1507   1.404   .     A
C1503  H1508   1.083   .     S
C1503  C1504   1.400   .     A
C1504  C1505   1.397   .     A
C1504  H1509   1.082   .     S
C1505  C1506   1.397   .     A
C1505  H1510   1.083   .     S
C1506  H1511   1.081   .     S
C1506  C1507   1.398   .     A
C1507  H1512   1.083   .     S
