data_str_m2_o1_o2_pcu_sym.15
_audit_creation_date              2020-01-03
_audit_creation_method            'Materials Studio'
_symmetry_space_group_name_H-M    'P1'
_symmetry_Int_Tables_number       1
_symmetry_cell_setting            triclinic
loop_
_symmetry_equiv_pos_as_xyz
  x,y,z
_cell_length_a                    32.3428
_cell_length_b                    28.5286
_cell_length_c                    30.2319
_cell_angle_alpha                 91.9561
_cell_angle_beta                  90.9808
_cell_angle_gamma                 90.1875
loop_
_atom_site_label
_atom_site_type_symbol
_atom_site_fract_x
_atom_site_fract_y
_atom_site_fract_z
_atom_site_U_iso_or_equiv
_atom_site_adp_type
_atom_site_occupancy
C1     C     0.08746   0.16659   0.24982   0.00000  Uiso   1.00
C2     C     0.31256   0.18857   0.28559   0.00000  Uiso   1.00
C3     C     0.31102   0.14494   0.21444   0.00000  Uiso   1.00
C4     C     0.02231   0.18839   0.28556   0.00000  Uiso   1.00
C5     C     0.19930   0.19328   0.04865   0.00000  Uiso   1.00
C6     C     0.13404   0.14003   0.45135   0.00000  Uiso   1.00
C7     C     0.17233   0.21169   0.45489   0.00000  Uiso   1.00
C8     C     0.16099   0.12164   0.04511   0.00000  Uiso   1.00
C9     C     0.19654   0.19566   0.09491   0.00000  Uiso   1.00
C10    C     0.13680   0.13766   0.40509   0.00000  Uiso   1.00
C11    C     0.17654   0.21019   0.40894   0.00000  Uiso   1.00
C12    C     0.24588   0.16674   0.25018   0.00000  Uiso   1.00
C13    C     0.15678   0.12314   0.09107   0.00000  Uiso   1.00
C14    C     0.17172   0.16274   0.11625   0.00000  Uiso   1.00
C15    C     0.16161   0.17059   0.38375   0.00000  Uiso   1.00
C16    C     0.17277   0.16255   0.02376   0.00000  Uiso   1.00
C17    C     0.16055   0.17077   0.47624   0.00000  Uiso   1.00
C18    C     0.29047   0.16684   0.25005   0.00000  Uiso   1.00
C19    C     0.04286   0.16649   0.24995   0.00000  Uiso   1.00
C20    C     0.16748   0.16569   0.16475   0.00000  Uiso   1.00
C21    C     0.16585   0.16764   0.33525   0.00000  Uiso   1.00
C22    C     0.13786   0.02383   0.22581   0.00000  Uiso   1.00
C23    C     0.19547   0.30950   0.27419   0.00000  Uiso   1.00
C24    C     0.19543   0.02579   0.27426   0.00000  Uiso   1.00
C25    C     0.13790   0.30755   0.22574   0.00000  Uiso   1.00
C26    C     0.02078   0.14476   0.21441   0.00000  Uiso   1.00
Cl27   Cl    0.24383   0.21720   0.02436   0.00000  Uiso   1.00
Cl28   Cl    0.28641   0.21435   0.33110   0.00000  Uiso   1.00
Cl29   Cl    0.28285   0.11934   0.16896   0.00000  Uiso   1.00
Cl30   Cl    0.05048   0.21399   0.33104   0.00000  Uiso   1.00
Cl31   Cl    0.08950   0.11611   0.47562   0.00000  Uiso   1.00
Cl32   Cl    0.16928   0.26732   0.48265   0.00000  Uiso   1.00
Cl33   Cl    0.16404   0.06600   0.01737   0.00000  Uiso   1.00
Cl34   Cl    0.22770   0.23687   0.12545   0.00000  Uiso   1.00
Cl35   Cl    0.10566   0.09643   0.37454   0.00000  Uiso   1.00
Cl36   Cl    0.20034   0.25889   0.38494   0.00000  Uiso   1.00
Cl37   Cl    0.13296   0.07446   0.11508   0.00000  Uiso   1.00
Cl38   Cl    0.04692   0.11899   0.16890   0.00000  Uiso   1.00
Cu39   Cu    0.16667   0.21355   0.25000   0.00000  Uiso   1.00
Cu40   Cu    0.16667   0.11978   0.25000   0.00000  Uiso   1.00
H41    H     0.11472   0.04175   0.20654   0.00000  Uiso   1.00
H42    H     0.21862   0.29159   0.29346   0.00000  Uiso   1.00
H43    H     0.21844   0.04527   0.29376   0.00000  Uiso   1.00
H44    H     0.11489   0.28807   0.20624   0.00000  Uiso   1.00
N45    N     0.16667   0.28402   0.25000   0.00000  Uiso   1.00
N46    N     0.16667   0.04931   0.25000   0.00000  Uiso   1.00
O47    O     0.10655   0.20625   0.24999   0.00000  Uiso   1.00
O48    O     0.22679   0.12709   0.25000   0.00000  Uiso   1.00
O49    O     0.22679   0.20625   0.25000   0.00000  Uiso   1.00
O50    O     0.10655   0.12709   0.24999   0.00000  Uiso   1.00
O51    O     0.16666   0.20626   0.18573   0.00000  Uiso   1.00
O52    O     0.16667   0.12707   0.31427   0.00000  Uiso   1.00
O53    O     0.16667   0.20626   0.31427   0.00000  Uiso   1.00
O54    O     0.16666   0.12707   0.18573   0.00000  Uiso   1.00
C55    C     0.42079   0.16659   0.24982   0.00000  Uiso   1.00
C56    C     0.64589   0.18857   0.28559   0.00000  Uiso   1.00
C57    C     0.64435   0.14494   0.21444   0.00000  Uiso   1.00
C58    C     0.35565   0.18839   0.28556   0.00000  Uiso   1.00
C59    C     0.53263   0.19328   0.04865   0.00000  Uiso   1.00
C60    C     0.46737   0.14003   0.45135   0.00000  Uiso   1.00
C61    C     0.50566   0.21169   0.45489   0.00000  Uiso   1.00
C62    C     0.49432   0.12164   0.04511   0.00000  Uiso   1.00
C63    C     0.52987   0.19566   0.09491   0.00000  Uiso   1.00
C64    C     0.47013   0.13766   0.40509   0.00000  Uiso   1.00
C65    C     0.50987   0.21019   0.40894   0.00000  Uiso   1.00
C66    C     0.57921   0.16674   0.25018   0.00000  Uiso   1.00
C67    C     0.49011   0.12314   0.09107   0.00000  Uiso   1.00
C68    C     0.50505   0.16274   0.11625   0.00000  Uiso   1.00
C69    C     0.49494   0.17059   0.38375   0.00000  Uiso   1.00
C70    C     0.50611   0.16255   0.02376   0.00000  Uiso   1.00
C71    C     0.49389   0.17077   0.47624   0.00000  Uiso   1.00
C72    C     0.62381   0.16684   0.25005   0.00000  Uiso   1.00
C73    C     0.37619   0.16649   0.24995   0.00000  Uiso   1.00
C74    C     0.50081   0.16569   0.16475   0.00000  Uiso   1.00
C75    C     0.49919   0.16764   0.33525   0.00000  Uiso   1.00
C76    C     0.47119   0.02383   0.22581   0.00000  Uiso   1.00
C77    C     0.52881   0.30950   0.27419   0.00000  Uiso   1.00
C78    C     0.52877   0.02579   0.27426   0.00000  Uiso   1.00
C79    C     0.47123   0.30755   0.22574   0.00000  Uiso   1.00
C80    C     0.35411   0.14476   0.21441   0.00000  Uiso   1.00
Cl81   Cl    0.57716   0.21720   0.02436   0.00000  Uiso   1.00
Cl82   Cl    0.61974   0.21435   0.33110   0.00000  Uiso   1.00
Cl83   Cl    0.61619   0.11934   0.16896   0.00000  Uiso   1.00
Cl84   Cl    0.38381   0.21399   0.33104   0.00000  Uiso   1.00
Cl85   Cl    0.42284   0.11611   0.47562   0.00000  Uiso   1.00
Cl86   Cl    0.50261   0.26732   0.48265   0.00000  Uiso   1.00
Cl87   Cl    0.49737   0.06600   0.01737   0.00000  Uiso   1.00
Cl88   Cl    0.56103   0.23687   0.12545   0.00000  Uiso   1.00
Cl89   Cl    0.43899   0.09643   0.37454   0.00000  Uiso   1.00
Cl90   Cl    0.53367   0.25889   0.38494   0.00000  Uiso   1.00
Cl91   Cl    0.46629   0.07446   0.11508   0.00000  Uiso   1.00
Cl92   Cl    0.38025   0.11899   0.16890   0.00000  Uiso   1.00
Cu93   Cu    0.50000   0.21355   0.25000   0.00000  Uiso   1.00
Cu94   Cu    0.50000   0.11978   0.25000   0.00000  Uiso   1.00
H95    H     0.44805   0.04175   0.20654   0.00000  Uiso   1.00
H96    H     0.55195   0.29159   0.29346   0.00000  Uiso   1.00
H97    H     0.55177   0.04527   0.29376   0.00000  Uiso   1.00
H98    H     0.44823   0.28807   0.20624   0.00000  Uiso   1.00
N99    N     0.50000   0.28402   0.25000   0.00000  Uiso   1.00
N100   N     0.50000   0.04931   0.25000   0.00000  Uiso   1.00
O101   O     0.43988   0.20625   0.24999   0.00000  Uiso   1.00
O102   O     0.56012   0.12709   0.25000   0.00000  Uiso   1.00
O103   O     0.56012   0.20625   0.25000   0.00000  Uiso   1.00
O104   O     0.43988   0.12709   0.24999   0.00000  Uiso   1.00
O105   O     0.50000   0.20626   0.18573   0.00000  Uiso   1.00
O106   O     0.50000   0.12707   0.31427   0.00000  Uiso   1.00
O107   O     0.50000   0.20626   0.31427   0.00000  Uiso   1.00
O108   O     0.50000   0.12707   0.18573   0.00000  Uiso   1.00
C109   C     0.75412   0.16659   0.24982   0.00000  Uiso   1.00
C110   C     0.97922   0.18857   0.28559   0.00000  Uiso   1.00
C111   C     0.97769   0.14494   0.21444   0.00000  Uiso   1.00
C112   C     0.68898   0.18839   0.28556   0.00000  Uiso   1.00
C113   C     0.86596   0.19328   0.04865   0.00000  Uiso   1.00
C114   C     0.80070   0.14003   0.45135   0.00000  Uiso   1.00
C115   C     0.83899   0.21169   0.45489   0.00000  Uiso   1.00
C116   C     0.82766   0.12164   0.04511   0.00000  Uiso   1.00
C117   C     0.86320   0.19566   0.09491   0.00000  Uiso   1.00
C118   C     0.80347   0.13766   0.40509   0.00000  Uiso   1.00
C119   C     0.84320   0.21019   0.40894   0.00000  Uiso   1.00
C120   C     0.91254   0.16674   0.25018   0.00000  Uiso   1.00
C121   C     0.82345   0.12314   0.09107   0.00000  Uiso   1.00
C122   C     0.83839   0.16274   0.11625   0.00000  Uiso   1.00
C123   C     0.82827   0.17059   0.38375   0.00000  Uiso   1.00
C124   C     0.83944   0.16255   0.02376   0.00000  Uiso   1.00
C125   C     0.82722   0.17077   0.47624   0.00000  Uiso   1.00
C126   C     0.95714   0.16684   0.25005   0.00000  Uiso   1.00
C127   C     0.70953   0.16649   0.24995   0.00000  Uiso   1.00
C128   C     0.83414   0.16569   0.16475   0.00000  Uiso   1.00
C129   C     0.83252   0.16764   0.33525   0.00000  Uiso   1.00
C130   C     0.80453   0.02383   0.22581   0.00000  Uiso   1.00
C131   C     0.86214   0.30950   0.27419   0.00000  Uiso   1.00
C132   C     0.86210   0.02579   0.27426   0.00000  Uiso   1.00
C133   C     0.80457   0.30755   0.22574   0.00000  Uiso   1.00
C134   C     0.68744   0.14476   0.21441   0.00000  Uiso   1.00
Cl135  Cl    0.91049   0.21720   0.02436   0.00000  Uiso   1.00
Cl136  Cl    0.95308   0.21435   0.33110   0.00000  Uiso   1.00
Cl137  Cl    0.94952   0.11934   0.16896   0.00000  Uiso   1.00
Cl138  Cl    0.71715   0.21399   0.33104   0.00000  Uiso   1.00
Cl139  Cl    0.75617   0.11611   0.47562   0.00000  Uiso   1.00
Cl140  Cl    0.83594   0.26732   0.48265   0.00000  Uiso   1.00
Cl141  Cl    0.83070   0.06600   0.01737   0.00000  Uiso   1.00
Cl142  Cl    0.89436   0.23687   0.12545   0.00000  Uiso   1.00
Cl143  Cl    0.77232   0.09643   0.37454   0.00000  Uiso   1.00
Cl144  Cl    0.86701   0.25889   0.38494   0.00000  Uiso   1.00
Cl145  Cl    0.79962   0.07446   0.11508   0.00000  Uiso   1.00
Cl146  Cl    0.71359   0.11899   0.16890   0.00000  Uiso   1.00
Cu147  Cu    0.83333   0.21355   0.25000   0.00000  Uiso   1.00
Cu148  Cu    0.83333   0.11978   0.25000   0.00000  Uiso   1.00
H149   H     0.78138   0.04175   0.20654   0.00000  Uiso   1.00
H150   H     0.88528   0.29159   0.29346   0.00000  Uiso   1.00
H151   H     0.88511   0.04527   0.29376   0.00000  Uiso   1.00
H152   H     0.78156   0.28807   0.20624   0.00000  Uiso   1.00
N153   N     0.83333   0.28402   0.25000   0.00000  Uiso   1.00
N154   N     0.83333   0.04931   0.25000   0.00000  Uiso   1.00
O155   O     0.77321   0.20625   0.24999   0.00000  Uiso   1.00
O156   O     0.89345   0.12709   0.25000   0.00000  Uiso   1.00
O157   O     0.89345   0.20625   0.25000   0.00000  Uiso   1.00
O158   O     0.77321   0.12709   0.24999   0.00000  Uiso   1.00
O159   O     0.83333   0.20626   0.18573   0.00000  Uiso   1.00
O160   O     0.83334   0.12707   0.31427   0.00000  Uiso   1.00
O161   O     0.83334   0.20626   0.31427   0.00000  Uiso   1.00
O162   O     0.83333   0.12707   0.18573   0.00000  Uiso   1.00
C163   C     0.08746   0.49993   0.24982   0.00000  Uiso   1.00
C164   C     0.31256   0.52190   0.28559   0.00000  Uiso   1.00
C165   C     0.31102   0.47828   0.21444   0.00000  Uiso   1.00
C166   C     0.02231   0.52172   0.28556   0.00000  Uiso   1.00
C167   C     0.19930   0.52661   0.04865   0.00000  Uiso   1.00
C168   C     0.13404   0.47337   0.45135   0.00000  Uiso   1.00
C169   C     0.17233   0.54502   0.45489   0.00000  Uiso   1.00
C170   C     0.16099   0.45497   0.04511   0.00000  Uiso   1.00
C171   C     0.19654   0.52899   0.09491   0.00000  Uiso   1.00
C172   C     0.13680   0.47099   0.40509   0.00000  Uiso   1.00
C173   C     0.17654   0.54352   0.40894   0.00000  Uiso   1.00
C174   C     0.24588   0.50007   0.25018   0.00000  Uiso   1.00
C175   C     0.15678   0.45648   0.09107   0.00000  Uiso   1.00
C176   C     0.17172   0.49607   0.11625   0.00000  Uiso   1.00
C177   C     0.16161   0.50393   0.38375   0.00000  Uiso   1.00
C178   C     0.17277   0.49588   0.02376   0.00000  Uiso   1.00
C179   C     0.16055   0.50410   0.47624   0.00000  Uiso   1.00
C180   C     0.29047   0.50017   0.25005   0.00000  Uiso   1.00
C181   C     0.04286   0.49983   0.24995   0.00000  Uiso   1.00
C182   C     0.16748   0.49903   0.16475   0.00000  Uiso   1.00
C183   C     0.16585   0.50097   0.33525   0.00000  Uiso   1.00
C184   C     0.13786   0.35717   0.22581   0.00000  Uiso   1.00
C185   C     0.19547   0.64283   0.27419   0.00000  Uiso   1.00
C186   C     0.19543   0.35912   0.27426   0.00000  Uiso   1.00
C187   C     0.13790   0.64088   0.22574   0.00000  Uiso   1.00
C188   C     0.02078   0.47810   0.21441   0.00000  Uiso   1.00
Cl189  Cl    0.24383   0.55054   0.02436   0.00000  Uiso   1.00
Cl190  Cl    0.28641   0.54768   0.33110   0.00000  Uiso   1.00
Cl191  Cl    0.28285   0.45268   0.16896   0.00000  Uiso   1.00
Cl192  Cl    0.05048   0.54732   0.33104   0.00000  Uiso   1.00
Cl193  Cl    0.08950   0.44944   0.47562   0.00000  Uiso   1.00
Cl194  Cl    0.16928   0.60065   0.48265   0.00000  Uiso   1.00
Cl195  Cl    0.16404   0.39933   0.01737   0.00000  Uiso   1.00
Cl196  Cl    0.22770   0.57021   0.12545   0.00000  Uiso   1.00
Cl197  Cl    0.10566   0.42976   0.37454   0.00000  Uiso   1.00
Cl198  Cl    0.20034   0.59223   0.38494   0.00000  Uiso   1.00
Cl199  Cl    0.13296   0.40780   0.11508   0.00000  Uiso   1.00
Cl200  Cl    0.04692   0.45232   0.16890   0.00000  Uiso   1.00
Cu201  Cu    0.16667   0.54689   0.25000   0.00000  Uiso   1.00
Cu202  Cu    0.16667   0.45311   0.25000   0.00000  Uiso   1.00
H203   H     0.11472   0.37508   0.20654   0.00000  Uiso   1.00
H204   H     0.21862   0.62492   0.29346   0.00000  Uiso   1.00
H205   H     0.21844   0.37860   0.29376   0.00000  Uiso   1.00
H206   H     0.11489   0.62140   0.20624   0.00000  Uiso   1.00
N207   N     0.16667   0.61736   0.25000   0.00000  Uiso   1.00
N208   N     0.16667   0.38264   0.25000   0.00000  Uiso   1.00
O209   O     0.10655   0.53958   0.24999   0.00000  Uiso   1.00
O210   O     0.22679   0.46042   0.25000   0.00000  Uiso   1.00
O211   O     0.22679   0.53958   0.25000   0.00000  Uiso   1.00
O212   O     0.10655   0.46042   0.24999   0.00000  Uiso   1.00
O213   O     0.16666   0.53959   0.18573   0.00000  Uiso   1.00
O214   O     0.16667   0.46041   0.31427   0.00000  Uiso   1.00
O215   O     0.16667   0.53959   0.31427   0.00000  Uiso   1.00
O216   O     0.16666   0.46041   0.18573   0.00000  Uiso   1.00
C217   C     0.42079   0.49993   0.24982   0.00000  Uiso   1.00
C218   C     0.64589   0.52190   0.28559   0.00000  Uiso   1.00
C219   C     0.64435   0.47828   0.21444   0.00000  Uiso   1.00
C220   C     0.35565   0.52172   0.28556   0.00000  Uiso   1.00
C221   C     0.53263   0.52661   0.04865   0.00000  Uiso   1.00
C222   C     0.46737   0.47337   0.45135   0.00000  Uiso   1.00
C223   C     0.50566   0.54502   0.45489   0.00000  Uiso   1.00
C224   C     0.49432   0.45497   0.04511   0.00000  Uiso   1.00
C225   C     0.52987   0.52899   0.09491   0.00000  Uiso   1.00
C226   C     0.47013   0.47099   0.40509   0.00000  Uiso   1.00
C227   C     0.50987   0.54352   0.40894   0.00000  Uiso   1.00
C228   C     0.57921   0.50007   0.25018   0.00000  Uiso   1.00
C229   C     0.49011   0.45648   0.09107   0.00000  Uiso   1.00
C230   C     0.50505   0.49607   0.11625   0.00000  Uiso   1.00
C231   C     0.49494   0.50393   0.38375   0.00000  Uiso   1.00
C232   C     0.50611   0.49588   0.02376   0.00000  Uiso   1.00
C233   C     0.49389   0.50410   0.47624   0.00000  Uiso   1.00
C234   C     0.62381   0.50017   0.25005   0.00000  Uiso   1.00
C235   C     0.37619   0.49983   0.24995   0.00000  Uiso   1.00
C236   C     0.50081   0.49903   0.16475   0.00000  Uiso   1.00
C237   C     0.49919   0.50097   0.33525   0.00000  Uiso   1.00
C238   C     0.47119   0.35717   0.22581   0.00000  Uiso   1.00
C239   C     0.52881   0.64283   0.27419   0.00000  Uiso   1.00
C240   C     0.52877   0.35912   0.27426   0.00000  Uiso   1.00
C241   C     0.47123   0.64088   0.22574   0.00000  Uiso   1.00
C242   C     0.35411   0.47810   0.21441   0.00000  Uiso   1.00
Cl243  Cl    0.57716   0.55054   0.02436   0.00000  Uiso   1.00
Cl244  Cl    0.61974   0.54768   0.33110   0.00000  Uiso   1.00
Cl245  Cl    0.61619   0.45268   0.16896   0.00000  Uiso   1.00
Cl246  Cl    0.38381   0.54732   0.33104   0.00000  Uiso   1.00
Cl247  Cl    0.42284   0.44944   0.47562   0.00000  Uiso   1.00
Cl248  Cl    0.50261   0.60065   0.48265   0.00000  Uiso   1.00
Cl249  Cl    0.49737   0.39933   0.01737   0.00000  Uiso   1.00
Cl250  Cl    0.56103   0.57021   0.12545   0.00000  Uiso   1.00
Cl251  Cl    0.43899   0.42976   0.37454   0.00000  Uiso   1.00
Cl252  Cl    0.53367   0.59223   0.38494   0.00000  Uiso   1.00
Cl253  Cl    0.46629   0.40780   0.11508   0.00000  Uiso   1.00
Cl254  Cl    0.38025   0.45232   0.16890   0.00000  Uiso   1.00
Cu255  Cu    0.50000   0.54689   0.25000   0.00000  Uiso   1.00
Cu256  Cu    0.50000   0.45311   0.25000   0.00000  Uiso   1.00
H257   H     0.44805   0.37508   0.20654   0.00000  Uiso   1.00
H258   H     0.55195   0.62492   0.29346   0.00000  Uiso   1.00
H259   H     0.55177   0.37860   0.29376   0.00000  Uiso   1.00
H260   H     0.44823   0.62140   0.20624   0.00000  Uiso   1.00
N261   N     0.50000   0.61736   0.25000   0.00000  Uiso   1.00
N262   N     0.50000   0.38264   0.25000   0.00000  Uiso   1.00
O263   O     0.43988   0.53958   0.24999   0.00000  Uiso   1.00
O264   O     0.56012   0.46042   0.25000   0.00000  Uiso   1.00
O265   O     0.56012   0.53958   0.25000   0.00000  Uiso   1.00
O266   O     0.43988   0.46042   0.24999   0.00000  Uiso   1.00
O267   O     0.50000   0.53959   0.18573   0.00000  Uiso   1.00
O268   O     0.50000   0.46041   0.31427   0.00000  Uiso   1.00
O269   O     0.50000   0.53959   0.31427   0.00000  Uiso   1.00
O270   O     0.50000   0.46041   0.18573   0.00000  Uiso   1.00
C271   C     0.75412   0.49993   0.24982   0.00000  Uiso   1.00
C272   C     0.97922   0.52190   0.28559   0.00000  Uiso   1.00
C273   C     0.97769   0.47828   0.21444   0.00000  Uiso   1.00
C274   C     0.68898   0.52172   0.28556   0.00000  Uiso   1.00
C275   C     0.86596   0.52661   0.04865   0.00000  Uiso   1.00
C276   C     0.80070   0.47337   0.45135   0.00000  Uiso   1.00
C277   C     0.83899   0.54502   0.45489   0.00000  Uiso   1.00
C278   C     0.82766   0.45497   0.04511   0.00000  Uiso   1.00
C279   C     0.86320   0.52899   0.09491   0.00000  Uiso   1.00
C280   C     0.80347   0.47099   0.40509   0.00000  Uiso   1.00
C281   C     0.84320   0.54352   0.40894   0.00000  Uiso   1.00
C282   C     0.91254   0.50007   0.25018   0.00000  Uiso   1.00
C283   C     0.82345   0.45648   0.09107   0.00000  Uiso   1.00
C284   C     0.83839   0.49607   0.11625   0.00000  Uiso   1.00
C285   C     0.82827   0.50393   0.38375   0.00000  Uiso   1.00
C286   C     0.83944   0.49588   0.02376   0.00000  Uiso   1.00
C287   C     0.82722   0.50410   0.47624   0.00000  Uiso   1.00
C288   C     0.95714   0.50017   0.25005   0.00000  Uiso   1.00
C289   C     0.70953   0.49983   0.24995   0.00000  Uiso   1.00
C290   C     0.83414   0.49903   0.16475   0.00000  Uiso   1.00
C291   C     0.83252   0.50097   0.33525   0.00000  Uiso   1.00
C292   C     0.80453   0.35717   0.22581   0.00000  Uiso   1.00
C293   C     0.86214   0.64283   0.27419   0.00000  Uiso   1.00
C294   C     0.86210   0.35912   0.27426   0.00000  Uiso   1.00
C295   C     0.80457   0.64088   0.22574   0.00000  Uiso   1.00
C296   C     0.68744   0.47810   0.21441   0.00000  Uiso   1.00
Cl297  Cl    0.91049   0.55054   0.02436   0.00000  Uiso   1.00
Cl298  Cl    0.95308   0.54768   0.33110   0.00000  Uiso   1.00
Cl299  Cl    0.94952   0.45268   0.16896   0.00000  Uiso   1.00
Cl300  Cl    0.71715   0.54732   0.33104   0.00000  Uiso   1.00
Cl301  Cl    0.75617   0.44944   0.47562   0.00000  Uiso   1.00
Cl302  Cl    0.83594   0.60065   0.48265   0.00000  Uiso   1.00
Cl303  Cl    0.83070   0.39933   0.01737   0.00000  Uiso   1.00
Cl304  Cl    0.89436   0.57021   0.12545   0.00000  Uiso   1.00
Cl305  Cl    0.77232   0.42976   0.37454   0.00000  Uiso   1.00
Cl306  Cl    0.86701   0.59223   0.38494   0.00000  Uiso   1.00
Cl307  Cl    0.79962   0.40780   0.11508   0.00000  Uiso   1.00
Cl308  Cl    0.71359   0.45232   0.16890   0.00000  Uiso   1.00
Cu309  Cu    0.83333   0.54689   0.25000   0.00000  Uiso   1.00
Cu310  Cu    0.83333   0.45311   0.25000   0.00000  Uiso   1.00
H311   H     0.78138   0.37508   0.20654   0.00000  Uiso   1.00
H312   H     0.88528   0.62492   0.29346   0.00000  Uiso   1.00
H313   H     0.88511   0.37860   0.29376   0.00000  Uiso   1.00
H314   H     0.78156   0.62140   0.20624   0.00000  Uiso   1.00
N315   N     0.83333   0.61736   0.25000   0.00000  Uiso   1.00
N316   N     0.83333   0.38264   0.25000   0.00000  Uiso   1.00
O317   O     0.77321   0.53958   0.24999   0.00000  Uiso   1.00
O318   O     0.89345   0.46042   0.25000   0.00000  Uiso   1.00
O319   O     0.89345   0.53958   0.25000   0.00000  Uiso   1.00
O320   O     0.77321   0.46042   0.24999   0.00000  Uiso   1.00
O321   O     0.83333   0.53959   0.18573   0.00000  Uiso   1.00
O322   O     0.83334   0.46041   0.31427   0.00000  Uiso   1.00
O323   O     0.83334   0.53959   0.31427   0.00000  Uiso   1.00
O324   O     0.83333   0.46041   0.18573   0.00000  Uiso   1.00
C325   C     0.08746   0.83326   0.24982   0.00000  Uiso   1.00
C326   C     0.31256   0.85524   0.28559   0.00000  Uiso   1.00
C327   C     0.31102   0.81161   0.21444   0.00000  Uiso   1.00
C328   C     0.02231   0.85506   0.28556   0.00000  Uiso   1.00
C329   C     0.19930   0.85995   0.04865   0.00000  Uiso   1.00
C330   C     0.13404   0.80670   0.45135   0.00000  Uiso   1.00
C331   C     0.17233   0.87835   0.45489   0.00000  Uiso   1.00
C332   C     0.16099   0.78830   0.04511   0.00000  Uiso   1.00
C333   C     0.19654   0.86232   0.09491   0.00000  Uiso   1.00
C334   C     0.13680   0.80433   0.40509   0.00000  Uiso   1.00
C335   C     0.17654   0.87686   0.40894   0.00000  Uiso   1.00
C336   C     0.24588   0.83341   0.25018   0.00000  Uiso   1.00
C337   C     0.15678   0.78981   0.09107   0.00000  Uiso   1.00
C338   C     0.17172   0.82940   0.11625   0.00000  Uiso   1.00
C339   C     0.16161   0.83726   0.38375   0.00000  Uiso   1.00
C340   C     0.17277   0.82921   0.02376   0.00000  Uiso   1.00
C341   C     0.16055   0.83744   0.47624   0.00000  Uiso   1.00
C342   C     0.29047   0.83351   0.25005   0.00000  Uiso   1.00
C343   C     0.04286   0.83316   0.24995   0.00000  Uiso   1.00
C344   C     0.16748   0.83236   0.16475   0.00000  Uiso   1.00
C345   C     0.16585   0.83431   0.33525   0.00000  Uiso   1.00
C346   C     0.13786   0.69050   0.22581   0.00000  Uiso   1.00
C347   C     0.19547   0.97617   0.27419   0.00000  Uiso   1.00
C348   C     0.19543   0.69245   0.27426   0.00000  Uiso   1.00
C349   C     0.13790   0.97421   0.22574   0.00000  Uiso   1.00
C350   C     0.02078   0.81143   0.21441   0.00000  Uiso   1.00
Cl351  Cl    0.24383   0.88387   0.02436   0.00000  Uiso   1.00
Cl352  Cl    0.28641   0.88101   0.33110   0.00000  Uiso   1.00
Cl353  Cl    0.28285   0.78601   0.16896   0.00000  Uiso   1.00
Cl354  Cl    0.05048   0.88065   0.33104   0.00000  Uiso   1.00
Cl355  Cl    0.08950   0.78278   0.47562   0.00000  Uiso   1.00
Cl356  Cl    0.16928   0.93398   0.48265   0.00000  Uiso   1.00
Cl357  Cl    0.16404   0.73267   0.01737   0.00000  Uiso   1.00
Cl358  Cl    0.22770   0.90354   0.12545   0.00000  Uiso   1.00
Cl359  Cl    0.10566   0.76310   0.37454   0.00000  Uiso   1.00
Cl360  Cl    0.20034   0.92556   0.38494   0.00000  Uiso   1.00
Cl361  Cl    0.13296   0.74113   0.11508   0.00000  Uiso   1.00
Cl362  Cl    0.04692   0.78565   0.16890   0.00000  Uiso   1.00
Cu363  Cu    0.16667   0.88022   0.25000   0.00000  Uiso   1.00
Cu364  Cu    0.16667   0.78645   0.25000   0.00000  Uiso   1.00
H365   H     0.11472   0.70841   0.20654   0.00000  Uiso   1.00
H366   H     0.21862   0.95825   0.29346   0.00000  Uiso   1.00
H367   H     0.21844   0.71193   0.29376   0.00000  Uiso   1.00
H368   H     0.11489   0.95473   0.20624   0.00000  Uiso   1.00
N369   N     0.16667   0.95069   0.25000   0.00000  Uiso   1.00
N370   N     0.16667   0.71598   0.25000   0.00000  Uiso   1.00
O371   O     0.10655   0.87291   0.24999   0.00000  Uiso   1.00
O372   O     0.22679   0.79375   0.25000   0.00000  Uiso   1.00
O373   O     0.22679   0.87291   0.25000   0.00000  Uiso   1.00
O374   O     0.10655   0.79375   0.24999   0.00000  Uiso   1.00
O375   O     0.16666   0.87293   0.18573   0.00000  Uiso   1.00
O376   O     0.16667   0.79374   0.31427   0.00000  Uiso   1.00
O377   O     0.16667   0.87293   0.31427   0.00000  Uiso   1.00
O378   O     0.16666   0.79374   0.18573   0.00000  Uiso   1.00
C379   C     0.42079   0.83326   0.24982   0.00000  Uiso   1.00
C380   C     0.64589   0.85524   0.28559   0.00000  Uiso   1.00
C381   C     0.64435   0.81161   0.21444   0.00000  Uiso   1.00
C382   C     0.35565   0.85506   0.28556   0.00000  Uiso   1.00
C383   C     0.53263   0.85995   0.04865   0.00000  Uiso   1.00
C384   C     0.46737   0.80670   0.45135   0.00000  Uiso   1.00
C385   C     0.50566   0.87835   0.45489   0.00000  Uiso   1.00
C386   C     0.49432   0.78830   0.04511   0.00000  Uiso   1.00
C387   C     0.52987   0.86232   0.09491   0.00000  Uiso   1.00
C388   C     0.47013   0.80433   0.40509   0.00000  Uiso   1.00
C389   C     0.50987   0.87686   0.40894   0.00000  Uiso   1.00
C390   C     0.57921   0.83341   0.25018   0.00000  Uiso   1.00
C391   C     0.49011   0.78981   0.09107   0.00000  Uiso   1.00
C392   C     0.50505   0.82940   0.11625   0.00000  Uiso   1.00
C393   C     0.49494   0.83726   0.38375   0.00000  Uiso   1.00
C394   C     0.50611   0.82921   0.02376   0.00000  Uiso   1.00
C395   C     0.49389   0.83744   0.47624   0.00000  Uiso   1.00
C396   C     0.62381   0.83351   0.25005   0.00000  Uiso   1.00
C397   C     0.37619   0.83316   0.24995   0.00000  Uiso   1.00
C398   C     0.50081   0.83236   0.16475   0.00000  Uiso   1.00
C399   C     0.49919   0.83431   0.33525   0.00000  Uiso   1.00
C400   C     0.47119   0.69050   0.22581   0.00000  Uiso   1.00
C401   C     0.52881   0.97617   0.27419   0.00000  Uiso   1.00
C402   C     0.52877   0.69245   0.27426   0.00000  Uiso   1.00
C403   C     0.47123   0.97421   0.22574   0.00000  Uiso   1.00
C404   C     0.35411   0.81143   0.21441   0.00000  Uiso   1.00
Cl405  Cl    0.57716   0.88387   0.02436   0.00000  Uiso   1.00
Cl406  Cl    0.61974   0.88101   0.33110   0.00000  Uiso   1.00
Cl407  Cl    0.61619   0.78601   0.16896   0.00000  Uiso   1.00
Cl408  Cl    0.38381   0.88065   0.33104   0.00000  Uiso   1.00
Cl409  Cl    0.42284   0.78278   0.47562   0.00000  Uiso   1.00
Cl410  Cl    0.50261   0.93398   0.48265   0.00000  Uiso   1.00
Cl411  Cl    0.49737   0.73267   0.01737   0.00000  Uiso   1.00
Cl412  Cl    0.56103   0.90354   0.12545   0.00000  Uiso   1.00
Cl413  Cl    0.43899   0.76310   0.37454   0.00000  Uiso   1.00
Cl414  Cl    0.53367   0.92556   0.38494   0.00000  Uiso   1.00
Cl415  Cl    0.46629   0.74113   0.11508   0.00000  Uiso   1.00
Cl416  Cl    0.38025   0.78565   0.16890   0.00000  Uiso   1.00
Cu417  Cu    0.50000   0.88022   0.25000   0.00000  Uiso   1.00
Cu418  Cu    0.50000   0.78645   0.25000   0.00000  Uiso   1.00
H419   H     0.44805   0.70841   0.20654   0.00000  Uiso   1.00
H420   H     0.55195   0.95825   0.29346   0.00000  Uiso   1.00
H421   H     0.55177   0.71193   0.29376   0.00000  Uiso   1.00
H422   H     0.44823   0.95473   0.20624   0.00000  Uiso   1.00
N423   N     0.50000   0.95069   0.25000   0.00000  Uiso   1.00
N424   N     0.50000   0.71598   0.25000   0.00000  Uiso   1.00
O425   O     0.43988   0.87291   0.24999   0.00000  Uiso   1.00
O426   O     0.56012   0.79375   0.25000   0.00000  Uiso   1.00
O427   O     0.56012   0.87291   0.25000   0.00000  Uiso   1.00
O428   O     0.43988   0.79375   0.24999   0.00000  Uiso   1.00
O429   O     0.50000   0.87293   0.18573   0.00000  Uiso   1.00
O430   O     0.50000   0.79374   0.31427   0.00000  Uiso   1.00
O431   O     0.50000   0.87293   0.31427   0.00000  Uiso   1.00
O432   O     0.50000   0.79374   0.18573   0.00000  Uiso   1.00
C433   C     0.75412   0.83326   0.24982   0.00000  Uiso   1.00
C434   C     0.97922   0.85524   0.28559   0.00000  Uiso   1.00
C435   C     0.97769   0.81161   0.21444   0.00000  Uiso   1.00
C436   C     0.68898   0.85506   0.28556   0.00000  Uiso   1.00
C437   C     0.86596   0.85995   0.04865   0.00000  Uiso   1.00
C438   C     0.80070   0.80670   0.45135   0.00000  Uiso   1.00
C439   C     0.83899   0.87835   0.45489   0.00000  Uiso   1.00
C440   C     0.82766   0.78830   0.04511   0.00000  Uiso   1.00
C441   C     0.86320   0.86232   0.09491   0.00000  Uiso   1.00
C442   C     0.80347   0.80433   0.40509   0.00000  Uiso   1.00
C443   C     0.84320   0.87686   0.40894   0.00000  Uiso   1.00
C444   C     0.91254   0.83341   0.25018   0.00000  Uiso   1.00
C445   C     0.82345   0.78981   0.09107   0.00000  Uiso   1.00
C446   C     0.83839   0.82940   0.11625   0.00000  Uiso   1.00
C447   C     0.82827   0.83726   0.38375   0.00000  Uiso   1.00
C448   C     0.83944   0.82921   0.02376   0.00000  Uiso   1.00
C449   C     0.82722   0.83744   0.47624   0.00000  Uiso   1.00
C450   C     0.95714   0.83351   0.25005   0.00000  Uiso   1.00
C451   C     0.70953   0.83316   0.24995   0.00000  Uiso   1.00
C452   C     0.83414   0.83236   0.16475   0.00000  Uiso   1.00
C453   C     0.83252   0.83431   0.33525   0.00000  Uiso   1.00
C454   C     0.80453   0.69050   0.22581   0.00000  Uiso   1.00
C455   C     0.86214   0.97617   0.27419   0.00000  Uiso   1.00
C456   C     0.86210   0.69245   0.27426   0.00000  Uiso   1.00
C457   C     0.80457   0.97421   0.22574   0.00000  Uiso   1.00
C458   C     0.68744   0.81143   0.21441   0.00000  Uiso   1.00
Cl459  Cl    0.91049   0.88387   0.02436   0.00000  Uiso   1.00
Cl460  Cl    0.95308   0.88101   0.33110   0.00000  Uiso   1.00
Cl461  Cl    0.94952   0.78601   0.16896   0.00000  Uiso   1.00
Cl462  Cl    0.71715   0.88065   0.33104   0.00000  Uiso   1.00
Cl463  Cl    0.75617   0.78278   0.47562   0.00000  Uiso   1.00
Cl464  Cl    0.83594   0.93398   0.48265   0.00000  Uiso   1.00
Cl465  Cl    0.83070   0.73267   0.01737   0.00000  Uiso   1.00
Cl466  Cl    0.89436   0.90354   0.12545   0.00000  Uiso   1.00
Cl467  Cl    0.77232   0.76310   0.37454   0.00000  Uiso   1.00
Cl468  Cl    0.86701   0.92556   0.38494   0.00000  Uiso   1.00
Cl469  Cl    0.79962   0.74113   0.11508   0.00000  Uiso   1.00
Cl470  Cl    0.71359   0.78565   0.16890   0.00000  Uiso   1.00
Cu471  Cu    0.83333   0.88022   0.25000   0.00000  Uiso   1.00
Cu472  Cu    0.83333   0.78645   0.25000   0.00000  Uiso   1.00
H473   H     0.78138   0.70841   0.20654   0.00000  Uiso   1.00
H474   H     0.88528   0.95825   0.29346   0.00000  Uiso   1.00
H475   H     0.88511   0.71193   0.29376   0.00000  Uiso   1.00
H476   H     0.78156   0.95473   0.20624   0.00000  Uiso   1.00
N477   N     0.83333   0.95069   0.25000   0.00000  Uiso   1.00
N478   N     0.83333   0.71598   0.25000   0.00000  Uiso   1.00
O479   O     0.77321   0.87291   0.24999   0.00000  Uiso   1.00
O480   O     0.89345   0.79375   0.25000   0.00000  Uiso   1.00
O481   O     0.89345   0.87291   0.25000   0.00000  Uiso   1.00
O482   O     0.77321   0.79375   0.24999   0.00000  Uiso   1.00
O483   O     0.83333   0.87293   0.18573   0.00000  Uiso   1.00
O484   O     0.83334   0.79374   0.31427   0.00000  Uiso   1.00
O485   O     0.83334   0.87293   0.31427   0.00000  Uiso   1.00
O486   O     0.83333   0.79374   0.18573   0.00000  Uiso   1.00
C487   C     0.08746   0.16659   0.74982   0.00000  Uiso   1.00
C488   C     0.31256   0.18857   0.78559   0.00000  Uiso   1.00
C489   C     0.31102   0.14494   0.71444   0.00000  Uiso   1.00
C490   C     0.02231   0.18839   0.78556   0.00000  Uiso   1.00
C491   C     0.19930   0.19328   0.54865   0.00000  Uiso   1.00
C492   C     0.13404   0.14003   0.95135   0.00000  Uiso   1.00
C493   C     0.17233   0.21169   0.95489   0.00000  Uiso   1.00
C494   C     0.16099   0.12164   0.54511   0.00000  Uiso   1.00
C495   C     0.19654   0.19566   0.59491   0.00000  Uiso   1.00
C496   C     0.13680   0.13766   0.90509   0.00000  Uiso   1.00
C497   C     0.17654   0.21019   0.90894   0.00000  Uiso   1.00
C498   C     0.24588   0.16674   0.75018   0.00000  Uiso   1.00
C499   C     0.15678   0.12314   0.59107   0.00000  Uiso   1.00
C500   C     0.17172   0.16274   0.61625   0.00000  Uiso   1.00
C501   C     0.16161   0.17059   0.88375   0.00000  Uiso   1.00
C502   C     0.17277   0.16255   0.52376   0.00000  Uiso   1.00
C503   C     0.16055   0.17077   0.97624   0.00000  Uiso   1.00
C504   C     0.29047   0.16684   0.75005   0.00000  Uiso   1.00
C505   C     0.04286   0.16649   0.74995   0.00000  Uiso   1.00
C506   C     0.16748   0.16569   0.66475   0.00000  Uiso   1.00
C507   C     0.16585   0.16764   0.83525   0.00000  Uiso   1.00
C508   C     0.13786   0.02383   0.72581   0.00000  Uiso   1.00
C509   C     0.19547   0.30950   0.77419   0.00000  Uiso   1.00
C510   C     0.19543   0.02579   0.77426   0.00000  Uiso   1.00
C511   C     0.13790   0.30755   0.72574   0.00000  Uiso   1.00
C512   C     0.02078   0.14476   0.71441   0.00000  Uiso   1.00
Cl513  Cl    0.24383   0.21720   0.52436   0.00000  Uiso   1.00
Cl514  Cl    0.28641   0.21435   0.83110   0.00000  Uiso   1.00
Cl515  Cl    0.28285   0.11934   0.66896   0.00000  Uiso   1.00
Cl516  Cl    0.05048   0.21399   0.83104   0.00000  Uiso   1.00
Cl517  Cl    0.08950   0.11611   0.97562   0.00000  Uiso   1.00
Cl518  Cl    0.16928   0.26732   0.98265   0.00000  Uiso   1.00
Cl519  Cl    0.16404   0.06600   0.51737   0.00000  Uiso   1.00
Cl520  Cl    0.22770   0.23687   0.62545   0.00000  Uiso   1.00
Cl521  Cl    0.10566   0.09643   0.87454   0.00000  Uiso   1.00
Cl522  Cl    0.20034   0.25889   0.88494   0.00000  Uiso   1.00
Cl523  Cl    0.13296   0.07446   0.61508   0.00000  Uiso   1.00
Cl524  Cl    0.04692   0.11899   0.66890   0.00000  Uiso   1.00
Cu525  Cu    0.16667   0.21355   0.75000   0.00000  Uiso   1.00
Cu526  Cu    0.16667   0.11978   0.75000   0.00000  Uiso   1.00
H527   H     0.11472   0.04175   0.70654   0.00000  Uiso   1.00
H528   H     0.21862   0.29159   0.79346   0.00000  Uiso   1.00
H529   H     0.21844   0.04527   0.79376   0.00000  Uiso   1.00
H530   H     0.11489   0.28807   0.70624   0.00000  Uiso   1.00
N531   N     0.16667   0.28402   0.75000   0.00000  Uiso   1.00
N532   N     0.16667   0.04931   0.75000   0.00000  Uiso   1.00
O533   O     0.10655   0.20625   0.74999   0.00000  Uiso   1.00
O534   O     0.22679   0.12709   0.75000   0.00000  Uiso   1.00
O535   O     0.22679   0.20625   0.75000   0.00000  Uiso   1.00
O536   O     0.10655   0.12709   0.74999   0.00000  Uiso   1.00
O537   O     0.16666   0.20626   0.68573   0.00000  Uiso   1.00
O538   O     0.16667   0.12707   0.81427   0.00000  Uiso   1.00
O539   O     0.16667   0.20626   0.81427   0.00000  Uiso   1.00
O540   O     0.16666   0.12707   0.68573   0.00000  Uiso   1.00
C541   C     0.42079   0.16659   0.74982   0.00000  Uiso   1.00
C542   C     0.64589   0.18857   0.78559   0.00000  Uiso   1.00
C543   C     0.64435   0.14494   0.71444   0.00000  Uiso   1.00
C544   C     0.35565   0.18839   0.78556   0.00000  Uiso   1.00
C545   C     0.53263   0.19328   0.54865   0.00000  Uiso   1.00
C546   C     0.46737   0.14003   0.95135   0.00000  Uiso   1.00
C547   C     0.50566   0.21169   0.95489   0.00000  Uiso   1.00
C548   C     0.49432   0.12164   0.54511   0.00000  Uiso   1.00
C549   C     0.52987   0.19566   0.59491   0.00000  Uiso   1.00
C550   C     0.47013   0.13766   0.90509   0.00000  Uiso   1.00
C551   C     0.50987   0.21019   0.90894   0.00000  Uiso   1.00
C552   C     0.57921   0.16674   0.75018   0.00000  Uiso   1.00
C553   C     0.49011   0.12314   0.59107   0.00000  Uiso   1.00
C554   C     0.50505   0.16274   0.61625   0.00000  Uiso   1.00
C555   C     0.49494   0.17059   0.88375   0.00000  Uiso   1.00
C556   C     0.50611   0.16255   0.52376   0.00000  Uiso   1.00
C557   C     0.49389   0.17077   0.97624   0.00000  Uiso   1.00
C558   C     0.62381   0.16684   0.75005   0.00000  Uiso   1.00
C559   C     0.37619   0.16649   0.74995   0.00000  Uiso   1.00
C560   C     0.50081   0.16569   0.66475   0.00000  Uiso   1.00
C561   C     0.49919   0.16764   0.83525   0.00000  Uiso   1.00
C562   C     0.47119   0.02383   0.72581   0.00000  Uiso   1.00
C563   C     0.52881   0.30950   0.77419   0.00000  Uiso   1.00
C564   C     0.52877   0.02579   0.77426   0.00000  Uiso   1.00
C565   C     0.47123   0.30755   0.72574   0.00000  Uiso   1.00
C566   C     0.35411   0.14476   0.71441   0.00000  Uiso   1.00
Cl567  Cl    0.57716   0.21720   0.52436   0.00000  Uiso   1.00
Cl568  Cl    0.61974   0.21435   0.83110   0.00000  Uiso   1.00
Cl569  Cl    0.61619   0.11934   0.66896   0.00000  Uiso   1.00
Cl570  Cl    0.38381   0.21399   0.83104   0.00000  Uiso   1.00
Cl571  Cl    0.42284   0.11611   0.97562   0.00000  Uiso   1.00
Cl572  Cl    0.50261   0.26732   0.98265   0.00000  Uiso   1.00
Cl573  Cl    0.49737   0.06600   0.51737   0.00000  Uiso   1.00
Cl574  Cl    0.56103   0.23687   0.62545   0.00000  Uiso   1.00
Cl575  Cl    0.43899   0.09643   0.87454   0.00000  Uiso   1.00
Cl576  Cl    0.53367   0.25889   0.88494   0.00000  Uiso   1.00
Cl577  Cl    0.46629   0.07446   0.61508   0.00000  Uiso   1.00
Cl578  Cl    0.38025   0.11899   0.66890   0.00000  Uiso   1.00
Cu579  Cu    0.50000   0.21355   0.75000   0.00000  Uiso   1.00
Cu580  Cu    0.50000   0.11978   0.75000   0.00000  Uiso   1.00
H581   H     0.44805   0.04175   0.70654   0.00000  Uiso   1.00
H582   H     0.55195   0.29159   0.79346   0.00000  Uiso   1.00
H583   H     0.55177   0.04527   0.79376   0.00000  Uiso   1.00
H584   H     0.44823   0.28807   0.70624   0.00000  Uiso   1.00
N585   N     0.50000   0.28402   0.75000   0.00000  Uiso   1.00
N586   N     0.50000   0.04931   0.75000   0.00000  Uiso   1.00
O587   O     0.43988   0.20625   0.74999   0.00000  Uiso   1.00
O588   O     0.56012   0.12709   0.75000   0.00000  Uiso   1.00
O589   O     0.56012   0.20625   0.75000   0.00000  Uiso   1.00
O590   O     0.43988   0.12709   0.74999   0.00000  Uiso   1.00
O591   O     0.50000   0.20626   0.68573   0.00000  Uiso   1.00
O592   O     0.50000   0.12707   0.81427   0.00000  Uiso   1.00
O593   O     0.50000   0.20626   0.81427   0.00000  Uiso   1.00
O594   O     0.50000   0.12707   0.68573   0.00000  Uiso   1.00
C595   C     0.75412   0.16659   0.74982   0.00000  Uiso   1.00
C596   C     0.97922   0.18857   0.78559   0.00000  Uiso   1.00
C597   C     0.97769   0.14494   0.71444   0.00000  Uiso   1.00
C598   C     0.68898   0.18839   0.78556   0.00000  Uiso   1.00
C599   C     0.86596   0.19328   0.54865   0.00000  Uiso   1.00
C600   C     0.80070   0.14003   0.95135   0.00000  Uiso   1.00
C601   C     0.83899   0.21169   0.95489   0.00000  Uiso   1.00
C602   C     0.82766   0.12164   0.54511   0.00000  Uiso   1.00
C603   C     0.86320   0.19566   0.59491   0.00000  Uiso   1.00
C604   C     0.80347   0.13766   0.90509   0.00000  Uiso   1.00
C605   C     0.84320   0.21019   0.90894   0.00000  Uiso   1.00
C606   C     0.91254   0.16674   0.75018   0.00000  Uiso   1.00
C607   C     0.82345   0.12314   0.59107   0.00000  Uiso   1.00
C608   C     0.83839   0.16274   0.61625   0.00000  Uiso   1.00
C609   C     0.82827   0.17059   0.88375   0.00000  Uiso   1.00
C610   C     0.83944   0.16255   0.52376   0.00000  Uiso   1.00
C611   C     0.82722   0.17077   0.97624   0.00000  Uiso   1.00
C612   C     0.95714   0.16684   0.75005   0.00000  Uiso   1.00
C613   C     0.70953   0.16649   0.74995   0.00000  Uiso   1.00
C614   C     0.83414   0.16569   0.66475   0.00000  Uiso   1.00
C615   C     0.83252   0.16764   0.83525   0.00000  Uiso   1.00
C616   C     0.80453   0.02383   0.72581   0.00000  Uiso   1.00
C617   C     0.86214   0.30950   0.77419   0.00000  Uiso   1.00
C618   C     0.86210   0.02579   0.77426   0.00000  Uiso   1.00
C619   C     0.80457   0.30755   0.72574   0.00000  Uiso   1.00
C620   C     0.68744   0.14476   0.71441   0.00000  Uiso   1.00
Cl621  Cl    0.91049   0.21720   0.52436   0.00000  Uiso   1.00
Cl622  Cl    0.95308   0.21435   0.83110   0.00000  Uiso   1.00
Cl623  Cl    0.94952   0.11934   0.66896   0.00000  Uiso   1.00
Cl624  Cl    0.71715   0.21399   0.83104   0.00000  Uiso   1.00
Cl625  Cl    0.75617   0.11611   0.97562   0.00000  Uiso   1.00
Cl626  Cl    0.83594   0.26732   0.98265   0.00000  Uiso   1.00
Cl627  Cl    0.83070   0.06600   0.51737   0.00000  Uiso   1.00
Cl628  Cl    0.89436   0.23687   0.62545   0.00000  Uiso   1.00
Cl629  Cl    0.77232   0.09643   0.87454   0.00000  Uiso   1.00
Cl630  Cl    0.86701   0.25889   0.88494   0.00000  Uiso   1.00
Cl631  Cl    0.79962   0.07446   0.61508   0.00000  Uiso   1.00
Cl632  Cl    0.71359   0.11899   0.66890   0.00000  Uiso   1.00
Cu633  Cu    0.83333   0.21355   0.75000   0.00000  Uiso   1.00
Cu634  Cu    0.83333   0.11978   0.75000   0.00000  Uiso   1.00
H635   H     0.78138   0.04175   0.70654   0.00000  Uiso   1.00
H636   H     0.88528   0.29159   0.79346   0.00000  Uiso   1.00
H637   H     0.88511   0.04527   0.79376   0.00000  Uiso   1.00
H638   H     0.78156   0.28807   0.70624   0.00000  Uiso   1.00
N639   N     0.83333   0.28402   0.75000   0.00000  Uiso   1.00
N640   N     0.83333   0.04931   0.75000   0.00000  Uiso   1.00
O641   O     0.77321   0.20625   0.74999   0.00000  Uiso   1.00
O642   O     0.89345   0.12709   0.75000   0.00000  Uiso   1.00
O643   O     0.89345   0.20625   0.75000   0.00000  Uiso   1.00
O644   O     0.77321   0.12709   0.74999   0.00000  Uiso   1.00
O645   O     0.83333   0.20626   0.68573   0.00000  Uiso   1.00
O646   O     0.83334   0.12707   0.81427   0.00000  Uiso   1.00
O647   O     0.83334   0.20626   0.81427   0.00000  Uiso   1.00
O648   O     0.83333   0.12707   0.68573   0.00000  Uiso   1.00
C649   C     0.08746   0.49993   0.74982   0.00000  Uiso   1.00
C650   C     0.31256   0.52190   0.78559   0.00000  Uiso   1.00
C651   C     0.31102   0.47828   0.71444   0.00000  Uiso   1.00
C652   C     0.02231   0.52172   0.78556   0.00000  Uiso   1.00
C653   C     0.19930   0.52661   0.54865   0.00000  Uiso   1.00
C654   C     0.13404   0.47337   0.95135   0.00000  Uiso   1.00
C655   C     0.17233   0.54502   0.95489   0.00000  Uiso   1.00
C656   C     0.16099   0.45497   0.54511   0.00000  Uiso   1.00
C657   C     0.19654   0.52899   0.59491   0.00000  Uiso   1.00
C658   C     0.13680   0.47099   0.90509   0.00000  Uiso   1.00
C659   C     0.17654   0.54352   0.90894   0.00000  Uiso   1.00
C660   C     0.24588   0.50007   0.75018   0.00000  Uiso   1.00
C661   C     0.15678   0.45648   0.59107   0.00000  Uiso   1.00
C662   C     0.17172   0.49607   0.61625   0.00000  Uiso   1.00
C663   C     0.16161   0.50393   0.88375   0.00000  Uiso   1.00
C664   C     0.17277   0.49588   0.52376   0.00000  Uiso   1.00
C665   C     0.16055   0.50410   0.97624   0.00000  Uiso   1.00
C666   C     0.29047   0.50017   0.75005   0.00000  Uiso   1.00
C667   C     0.04286   0.49983   0.74995   0.00000  Uiso   1.00
C668   C     0.16748   0.49903   0.66475   0.00000  Uiso   1.00
C669   C     0.16585   0.50097   0.83525   0.00000  Uiso   1.00
C670   C     0.13786   0.35717   0.72581   0.00000  Uiso   1.00
C671   C     0.19547   0.64283   0.77419   0.00000  Uiso   1.00
C672   C     0.19543   0.35912   0.77426   0.00000  Uiso   1.00
C673   C     0.13790   0.64088   0.72574   0.00000  Uiso   1.00
C674   C     0.02078   0.47810   0.71441   0.00000  Uiso   1.00
Cl675  Cl    0.24383   0.55054   0.52436   0.00000  Uiso   1.00
Cl676  Cl    0.28641   0.54768   0.83110   0.00000  Uiso   1.00
Cl677  Cl    0.28285   0.45268   0.66896   0.00000  Uiso   1.00
Cl678  Cl    0.05048   0.54732   0.83104   0.00000  Uiso   1.00
Cl679  Cl    0.08950   0.44944   0.97562   0.00000  Uiso   1.00
Cl680  Cl    0.16928   0.60065   0.98265   0.00000  Uiso   1.00
Cl681  Cl    0.16404   0.39933   0.51737   0.00000  Uiso   1.00
Cl682  Cl    0.22770   0.57021   0.62545   0.00000  Uiso   1.00
Cl683  Cl    0.10566   0.42976   0.87454   0.00000  Uiso   1.00
Cl684  Cl    0.20034   0.59223   0.88494   0.00000  Uiso   1.00
Cl685  Cl    0.13296   0.40780   0.61508   0.00000  Uiso   1.00
Cl686  Cl    0.04692   0.45232   0.66890   0.00000  Uiso   1.00
Cu687  Cu    0.16667   0.54689   0.75000   0.00000  Uiso   1.00
Cu688  Cu    0.16667   0.45311   0.75000   0.00000  Uiso   1.00
H689   H     0.11472   0.37508   0.70654   0.00000  Uiso   1.00
H690   H     0.21862   0.62492   0.79346   0.00000  Uiso   1.00
H691   H     0.21844   0.37860   0.79376   0.00000  Uiso   1.00
H692   H     0.11489   0.62140   0.70624   0.00000  Uiso   1.00
N693   N     0.16667   0.61736   0.75000   0.00000  Uiso   1.00
N694   N     0.16667   0.38264   0.75000   0.00000  Uiso   1.00
O695   O     0.10655   0.53958   0.74999   0.00000  Uiso   1.00
O696   O     0.22679   0.46042   0.75000   0.00000  Uiso   1.00
O697   O     0.22679   0.53958   0.75000   0.00000  Uiso   1.00
O698   O     0.10655   0.46042   0.74999   0.00000  Uiso   1.00
O699   O     0.16666   0.53959   0.68573   0.00000  Uiso   1.00
O700   O     0.16667   0.46041   0.81427   0.00000  Uiso   1.00
O701   O     0.16667   0.53959   0.81427   0.00000  Uiso   1.00
O702   O     0.16666   0.46041   0.68573   0.00000  Uiso   1.00
C703   C     0.42079   0.49993   0.74982   0.00000  Uiso   1.00
C704   C     0.64589   0.52190   0.78559   0.00000  Uiso   1.00
C705   C     0.64435   0.47828   0.71444   0.00000  Uiso   1.00
C706   C     0.35565   0.52172   0.78556   0.00000  Uiso   1.00
C707   C     0.53263   0.52661   0.54865   0.00000  Uiso   1.00
C708   C     0.46737   0.47337   0.95135   0.00000  Uiso   1.00
C709   C     0.50566   0.54502   0.95489   0.00000  Uiso   1.00
C710   C     0.49432   0.45497   0.54511   0.00000  Uiso   1.00
C711   C     0.52987   0.52899   0.59491   0.00000  Uiso   1.00
C712   C     0.47013   0.47099   0.90509   0.00000  Uiso   1.00
C713   C     0.50987   0.54352   0.90894   0.00000  Uiso   1.00
C714   C     0.57921   0.50007   0.75018   0.00000  Uiso   1.00
C715   C     0.49011   0.45648   0.59107   0.00000  Uiso   1.00
C716   C     0.50505   0.49607   0.61625   0.00000  Uiso   1.00
C717   C     0.49494   0.50393   0.88375   0.00000  Uiso   1.00
C718   C     0.50611   0.49588   0.52376   0.00000  Uiso   1.00
C719   C     0.49389   0.50410   0.97624   0.00000  Uiso   1.00
C720   C     0.62381   0.50017   0.75005   0.00000  Uiso   1.00
C721   C     0.37619   0.49983   0.74995   0.00000  Uiso   1.00
C722   C     0.50081   0.49903   0.66475   0.00000  Uiso   1.00
C723   C     0.49919   0.50097   0.83525   0.00000  Uiso   1.00
C724   C     0.47119   0.35717   0.72581   0.00000  Uiso   1.00
C725   C     0.52881   0.64283   0.77419   0.00000  Uiso   1.00
C726   C     0.52877   0.35912   0.77426   0.00000  Uiso   1.00
C727   C     0.47123   0.64088   0.72574   0.00000  Uiso   1.00
C728   C     0.35411   0.47810   0.71441   0.00000  Uiso   1.00
Cl729  Cl    0.57716   0.55054   0.52436   0.00000  Uiso   1.00
Cl730  Cl    0.61974   0.54768   0.83110   0.00000  Uiso   1.00
Cl731  Cl    0.61619   0.45268   0.66896   0.00000  Uiso   1.00
Cl732  Cl    0.38381   0.54732   0.83104   0.00000  Uiso   1.00
Cl733  Cl    0.42284   0.44944   0.97562   0.00000  Uiso   1.00
Cl734  Cl    0.50261   0.60065   0.98265   0.00000  Uiso   1.00
Cl735  Cl    0.49737   0.39933   0.51737   0.00000  Uiso   1.00
Cl736  Cl    0.56103   0.57021   0.62545   0.00000  Uiso   1.00
Cl737  Cl    0.43899   0.42976   0.87454   0.00000  Uiso   1.00
Cl738  Cl    0.53367   0.59223   0.88494   0.00000  Uiso   1.00
Cl739  Cl    0.46629   0.40780   0.61508   0.00000  Uiso   1.00
Cl740  Cl    0.38025   0.45232   0.66890   0.00000  Uiso   1.00
Cu741  Cu    0.50000   0.54689   0.75000   0.00000  Uiso   1.00
Cu742  Cu    0.50000   0.45311   0.75000   0.00000  Uiso   1.00
H743   H     0.44805   0.37508   0.70654   0.00000  Uiso   1.00
H744   H     0.55195   0.62492   0.79346   0.00000  Uiso   1.00
H745   H     0.55177   0.37860   0.79376   0.00000  Uiso   1.00
H746   H     0.44823   0.62140   0.70624   0.00000  Uiso   1.00
N747   N     0.50000   0.61736   0.75000   0.00000  Uiso   1.00
N748   N     0.50000   0.38264   0.75000   0.00000  Uiso   1.00
O749   O     0.43988   0.53958   0.74999   0.00000  Uiso   1.00
O750   O     0.56012   0.46042   0.75000   0.00000  Uiso   1.00
O751   O     0.56012   0.53958   0.75000   0.00000  Uiso   1.00
O752   O     0.43988   0.46042   0.74999   0.00000  Uiso   1.00
O753   O     0.50000   0.53959   0.68573   0.00000  Uiso   1.00
O754   O     0.50000   0.46041   0.81427   0.00000  Uiso   1.00
O755   O     0.50000   0.53959   0.81427   0.00000  Uiso   1.00
O756   O     0.50000   0.46041   0.68573   0.00000  Uiso   1.00
C757   C     0.75412   0.49993   0.74982   0.00000  Uiso   1.00
C758   C     0.97922   0.52190   0.78559   0.00000  Uiso   1.00
C759   C     0.97769   0.47828   0.71444   0.00000  Uiso   1.00
C760   C     0.68898   0.52172   0.78556   0.00000  Uiso   1.00
C761   C     0.86596   0.52661   0.54865   0.00000  Uiso   1.00
C762   C     0.80070   0.47337   0.95135   0.00000  Uiso   1.00
C763   C     0.83899   0.54502   0.95489   0.00000  Uiso   1.00
C764   C     0.82766   0.45497   0.54511   0.00000  Uiso   1.00
C765   C     0.86320   0.52899   0.59491   0.00000  Uiso   1.00
C766   C     0.80347   0.47099   0.90509   0.00000  Uiso   1.00
C767   C     0.84320   0.54352   0.90894   0.00000  Uiso   1.00
C768   C     0.91254   0.50007   0.75018   0.00000  Uiso   1.00
C769   C     0.82345   0.45648   0.59107   0.00000  Uiso   1.00
C770   C     0.83839   0.49607   0.61625   0.00000  Uiso   1.00
C771   C     0.82827   0.50393   0.88375   0.00000  Uiso   1.00
C772   C     0.83944   0.49588   0.52376   0.00000  Uiso   1.00
C773   C     0.82722   0.50410   0.97624   0.00000  Uiso   1.00
C774   C     0.95714   0.50017   0.75005   0.00000  Uiso   1.00
C775   C     0.70953   0.49983   0.74995   0.00000  Uiso   1.00
C776   C     0.83414   0.49903   0.66475   0.00000  Uiso   1.00
C777   C     0.83252   0.50097   0.83525   0.00000  Uiso   1.00
C778   C     0.80453   0.35717   0.72581   0.00000  Uiso   1.00
C779   C     0.86214   0.64283   0.77419   0.00000  Uiso   1.00
C780   C     0.86210   0.35912   0.77426   0.00000  Uiso   1.00
C781   C     0.80457   0.64088   0.72574   0.00000  Uiso   1.00
C782   C     0.68744   0.47810   0.71441   0.00000  Uiso   1.00
Cl783  Cl    0.91049   0.55054   0.52436   0.00000  Uiso   1.00
Cl784  Cl    0.95308   0.54768   0.83110   0.00000  Uiso   1.00
Cl785  Cl    0.94952   0.45268   0.66896   0.00000  Uiso   1.00
Cl786  Cl    0.71715   0.54732   0.83104   0.00000  Uiso   1.00
Cl787  Cl    0.75617   0.44944   0.97562   0.00000  Uiso   1.00
Cl788  Cl    0.83594   0.60065   0.98265   0.00000  Uiso   1.00
Cl789  Cl    0.83070   0.39933   0.51737   0.00000  Uiso   1.00
Cl790  Cl    0.89436   0.57021   0.62545   0.00000  Uiso   1.00
Cl791  Cl    0.77232   0.42976   0.87454   0.00000  Uiso   1.00
Cl792  Cl    0.86701   0.59223   0.88494   0.00000  Uiso   1.00
Cl793  Cl    0.79962   0.40780   0.61508   0.00000  Uiso   1.00
Cl794  Cl    0.71359   0.45232   0.66890   0.00000  Uiso   1.00
Cu795  Cu    0.83333   0.54689   0.75000   0.00000  Uiso   1.00
Cu796  Cu    0.83333   0.45311   0.75000   0.00000  Uiso   1.00
H797   H     0.78138   0.37508   0.70654   0.00000  Uiso   1.00
H798   H     0.88528   0.62492   0.79346   0.00000  Uiso   1.00
H799   H     0.88511   0.37860   0.79376   0.00000  Uiso   1.00
H800   H     0.78156   0.62140   0.70624   0.00000  Uiso   1.00
N801   N     0.83333   0.61736   0.75000   0.00000  Uiso   1.00
N802   N     0.83333   0.38264   0.75000   0.00000  Uiso   1.00
O803   O     0.77321   0.53958   0.74999   0.00000  Uiso   1.00
O804   O     0.89345   0.46042   0.75000   0.00000  Uiso   1.00
O805   O     0.89345   0.53958   0.75000   0.00000  Uiso   1.00
O806   O     0.77321   0.46042   0.74999   0.00000  Uiso   1.00
O807   O     0.83333   0.53959   0.68573   0.00000  Uiso   1.00
O808   O     0.83334   0.46041   0.81427   0.00000  Uiso   1.00
O809   O     0.83334   0.53959   0.81427   0.00000  Uiso   1.00
O810   O     0.83333   0.46041   0.68573   0.00000  Uiso   1.00
C811   C     0.08746   0.83326   0.74982   0.00000  Uiso   1.00
C812   C     0.31256   0.85524   0.78559   0.00000  Uiso   1.00
C813   C     0.31102   0.81161   0.71444   0.00000  Uiso   1.00
C814   C     0.02231   0.85506   0.78556   0.00000  Uiso   1.00
C815   C     0.19930   0.85995   0.54865   0.00000  Uiso   1.00
C816   C     0.13404   0.80670   0.95135   0.00000  Uiso   1.00
C817   C     0.17233   0.87835   0.95489   0.00000  Uiso   1.00
C818   C     0.16099   0.78830   0.54511   0.00000  Uiso   1.00
C819   C     0.19654   0.86232   0.59491   0.00000  Uiso   1.00
C820   C     0.13680   0.80433   0.90509   0.00000  Uiso   1.00
C821   C     0.17654   0.87686   0.90894   0.00000  Uiso   1.00
C822   C     0.24588   0.83341   0.75018   0.00000  Uiso   1.00
C823   C     0.15678   0.78981   0.59107   0.00000  Uiso   1.00
C824   C     0.17172   0.82940   0.61625   0.00000  Uiso   1.00
C825   C     0.16161   0.83726   0.88375   0.00000  Uiso   1.00
C826   C     0.17277   0.82921   0.52376   0.00000  Uiso   1.00
C827   C     0.16055   0.83744   0.97624   0.00000  Uiso   1.00
C828   C     0.29047   0.83351   0.75005   0.00000  Uiso   1.00
C829   C     0.04286   0.83316   0.74995   0.00000  Uiso   1.00
C830   C     0.16748   0.83236   0.66475   0.00000  Uiso   1.00
C831   C     0.16585   0.83431   0.83525   0.00000  Uiso   1.00
C832   C     0.13786   0.69050   0.72581   0.00000  Uiso   1.00
C833   C     0.19547   0.97617   0.77419   0.00000  Uiso   1.00
C834   C     0.19543   0.69245   0.77426   0.00000  Uiso   1.00
C835   C     0.13790   0.97421   0.72574   0.00000  Uiso   1.00
C836   C     0.02078   0.81143   0.71441   0.00000  Uiso   1.00
Cl837  Cl    0.24383   0.88387   0.52436   0.00000  Uiso   1.00
Cl838  Cl    0.28641   0.88101   0.83110   0.00000  Uiso   1.00
Cl839  Cl    0.28285   0.78601   0.66896   0.00000  Uiso   1.00
Cl840  Cl    0.05048   0.88065   0.83104   0.00000  Uiso   1.00
Cl841  Cl    0.08950   0.78278   0.97562   0.00000  Uiso   1.00
Cl842  Cl    0.16928   0.93398   0.98265   0.00000  Uiso   1.00
Cl843  Cl    0.16404   0.73267   0.51737   0.00000  Uiso   1.00
Cl844  Cl    0.22770   0.90354   0.62545   0.00000  Uiso   1.00
Cl845  Cl    0.10566   0.76310   0.87454   0.00000  Uiso   1.00
Cl846  Cl    0.20034   0.92556   0.88494   0.00000  Uiso   1.00
Cl847  Cl    0.13296   0.74113   0.61508   0.00000  Uiso   1.00
Cl848  Cl    0.04692   0.78565   0.66890   0.00000  Uiso   1.00
Cu849  Cu    0.16667   0.88022   0.75000   0.00000  Uiso   1.00
Cu850  Cu    0.16667   0.78645   0.75000   0.00000  Uiso   1.00
H851   H     0.11472   0.70841   0.70654   0.00000  Uiso   1.00
H852   H     0.21862   0.95825   0.79346   0.00000  Uiso   1.00
H853   H     0.21844   0.71193   0.79376   0.00000  Uiso   1.00
H854   H     0.11489   0.95473   0.70624   0.00000  Uiso   1.00
N855   N     0.16667   0.95069   0.75000   0.00000  Uiso   1.00
N856   N     0.16667   0.71598   0.75000   0.00000  Uiso   1.00
O857   O     0.10655   0.87291   0.74999   0.00000  Uiso   1.00
O858   O     0.22679   0.79375   0.75000   0.00000  Uiso   1.00
O859   O     0.22679   0.87291   0.75000   0.00000  Uiso   1.00
O860   O     0.10655   0.79375   0.74999   0.00000  Uiso   1.00
O861   O     0.16666   0.87293   0.68573   0.00000  Uiso   1.00
O862   O     0.16667   0.79374   0.81427   0.00000  Uiso   1.00
O863   O     0.16667   0.87293   0.81427   0.00000  Uiso   1.00
O864   O     0.16666   0.79374   0.68573   0.00000  Uiso   1.00
C865   C     0.42079   0.83326   0.74982   0.00000  Uiso   1.00
C866   C     0.64589   0.85524   0.78559   0.00000  Uiso   1.00
C867   C     0.64435   0.81161   0.71444   0.00000  Uiso   1.00
C868   C     0.35565   0.85506   0.78556   0.00000  Uiso   1.00
C869   C     0.53263   0.85995   0.54865   0.00000  Uiso   1.00
C870   C     0.46737   0.80670   0.95135   0.00000  Uiso   1.00
C871   C     0.50566   0.87835   0.95489   0.00000  Uiso   1.00
C872   C     0.49432   0.78830   0.54511   0.00000  Uiso   1.00
C873   C     0.52987   0.86232   0.59491   0.00000  Uiso   1.00
C874   C     0.47013   0.80433   0.90509   0.00000  Uiso   1.00
C875   C     0.50987   0.87686   0.90894   0.00000  Uiso   1.00
C876   C     0.57921   0.83341   0.75018   0.00000  Uiso   1.00
C877   C     0.49011   0.78981   0.59107   0.00000  Uiso   1.00
C878   C     0.50505   0.82940   0.61625   0.00000  Uiso   1.00
C879   C     0.49494   0.83726   0.88375   0.00000  Uiso   1.00
C880   C     0.50611   0.82921   0.52376   0.00000  Uiso   1.00
C881   C     0.49389   0.83744   0.97624   0.00000  Uiso   1.00
C882   C     0.62381   0.83351   0.75005   0.00000  Uiso   1.00
C883   C     0.37619   0.83316   0.74995   0.00000  Uiso   1.00
C884   C     0.50081   0.83236   0.66475   0.00000  Uiso   1.00
C885   C     0.49919   0.83431   0.83525   0.00000  Uiso   1.00
C886   C     0.47119   0.69050   0.72581   0.00000  Uiso   1.00
C887   C     0.52881   0.97617   0.77419   0.00000  Uiso   1.00
C888   C     0.52877   0.69245   0.77426   0.00000  Uiso   1.00
C889   C     0.47123   0.97421   0.72574   0.00000  Uiso   1.00
C890   C     0.35411   0.81143   0.71441   0.00000  Uiso   1.00
Cl891  Cl    0.57716   0.88387   0.52436   0.00000  Uiso   1.00
Cl892  Cl    0.61974   0.88101   0.83110   0.00000  Uiso   1.00
Cl893  Cl    0.61619   0.78601   0.66896   0.00000  Uiso   1.00
Cl894  Cl    0.38381   0.88065   0.83104   0.00000  Uiso   1.00
Cl895  Cl    0.42284   0.78278   0.97562   0.00000  Uiso   1.00
Cl896  Cl    0.50261   0.93398   0.98265   0.00000  Uiso   1.00
Cl897  Cl    0.49737   0.73267   0.51737   0.00000  Uiso   1.00
Cl898  Cl    0.56103   0.90354   0.62545   0.00000  Uiso   1.00
Cl899  Cl    0.43899   0.76310   0.87454   0.00000  Uiso   1.00
Cl900  Cl    0.53367   0.92556   0.88494   0.00000  Uiso   1.00
Cl901  Cl    0.46629   0.74113   0.61508   0.00000  Uiso   1.00
Cl902  Cl    0.38025   0.78565   0.66890   0.00000  Uiso   1.00
Cu903  Cu    0.50000   0.88022   0.75000   0.00000  Uiso   1.00
Cu904  Cu    0.50000   0.78645   0.75000   0.00000  Uiso   1.00
H905   H     0.44805   0.70841   0.70654   0.00000  Uiso   1.00
H906   H     0.55195   0.95825   0.79346   0.00000  Uiso   1.00
H907   H     0.55177   0.71193   0.79376   0.00000  Uiso   1.00
H908   H     0.44823   0.95473   0.70624   0.00000  Uiso   1.00
N909   N     0.50000   0.95069   0.75000   0.00000  Uiso   1.00
N910   N     0.50000   0.71598   0.75000   0.00000  Uiso   1.00
O911   O     0.43988   0.87291   0.74999   0.00000  Uiso   1.00
O912   O     0.56012   0.79375   0.75000   0.00000  Uiso   1.00
O913   O     0.56012   0.87291   0.75000   0.00000  Uiso   1.00
O914   O     0.43988   0.79375   0.74999   0.00000  Uiso   1.00
O915   O     0.50000   0.87293   0.68573   0.00000  Uiso   1.00
O916   O     0.50000   0.79374   0.81427   0.00000  Uiso   1.00
O917   O     0.50000   0.87293   0.81427   0.00000  Uiso   1.00
O918   O     0.50000   0.79374   0.68573   0.00000  Uiso   1.00
C919   C     0.75412   0.83326   0.74982   0.00000  Uiso   1.00
C920   C     0.97922   0.85524   0.78559   0.00000  Uiso   1.00
C921   C     0.97769   0.81161   0.71444   0.00000  Uiso   1.00
C922   C     0.68898   0.85506   0.78556   0.00000  Uiso   1.00
C923   C     0.86596   0.85995   0.54865   0.00000  Uiso   1.00
C924   C     0.80070   0.80670   0.95135   0.00000  Uiso   1.00
C925   C     0.83899   0.87835   0.95489   0.00000  Uiso   1.00
C926   C     0.82766   0.78830   0.54511   0.00000  Uiso   1.00
C927   C     0.86320   0.86232   0.59491   0.00000  Uiso   1.00
C928   C     0.80347   0.80433   0.90509   0.00000  Uiso   1.00
C929   C     0.84320   0.87686   0.90894   0.00000  Uiso   1.00
C930   C     0.91254   0.83341   0.75018   0.00000  Uiso   1.00
C931   C     0.82345   0.78981   0.59107   0.00000  Uiso   1.00
C932   C     0.83839   0.82940   0.61625   0.00000  Uiso   1.00
C933   C     0.82827   0.83726   0.88375   0.00000  Uiso   1.00
C934   C     0.83944   0.82921   0.52376   0.00000  Uiso   1.00
C935   C     0.82722   0.83744   0.97624   0.00000  Uiso   1.00
C936   C     0.95714   0.83351   0.75005   0.00000  Uiso   1.00
C937   C     0.70953   0.83316   0.74995   0.00000  Uiso   1.00
C938   C     0.83414   0.83236   0.66475   0.00000  Uiso   1.00
C939   C     0.83252   0.83431   0.83525   0.00000  Uiso   1.00
C940   C     0.80453   0.69050   0.72581   0.00000  Uiso   1.00
C941   C     0.86214   0.97617   0.77419   0.00000  Uiso   1.00
C942   C     0.86210   0.69245   0.77426   0.00000  Uiso   1.00
C943   C     0.80457   0.97421   0.72574   0.00000  Uiso   1.00
C944   C     0.68744   0.81143   0.71441   0.00000  Uiso   1.00
Cl945  Cl    0.91049   0.88387   0.52436   0.00000  Uiso   1.00
Cl946  Cl    0.95308   0.88101   0.83110   0.00000  Uiso   1.00
Cl947  Cl    0.94952   0.78601   0.66896   0.00000  Uiso   1.00
Cl948  Cl    0.71715   0.88065   0.83104   0.00000  Uiso   1.00
Cl949  Cl    0.75617   0.78278   0.97562   0.00000  Uiso   1.00
Cl950  Cl    0.83594   0.93398   0.98265   0.00000  Uiso   1.00
Cl951  Cl    0.83070   0.73267   0.51737   0.00000  Uiso   1.00
Cl952  Cl    0.89436   0.90354   0.62545   0.00000  Uiso   1.00
Cl953  Cl    0.77232   0.76310   0.87454   0.00000  Uiso   1.00
Cl954  Cl    0.86701   0.92556   0.88494   0.00000  Uiso   1.00
Cl955  Cl    0.79962   0.74113   0.61508   0.00000  Uiso   1.00
Cl956  Cl    0.71359   0.78565   0.66890   0.00000  Uiso   1.00
Cu957  Cu    0.83333   0.88022   0.75000   0.00000  Uiso   1.00
Cu958  Cu    0.83333   0.78645   0.75000   0.00000  Uiso   1.00
H959   H     0.78138   0.70841   0.70654   0.00000  Uiso   1.00
H960   H     0.88528   0.95825   0.79346   0.00000  Uiso   1.00
H961   H     0.88511   0.71193   0.79376   0.00000  Uiso   1.00
H962   H     0.78156   0.95473   0.70624   0.00000  Uiso   1.00
N963   N     0.83333   0.95069   0.75000   0.00000  Uiso   1.00
N964   N     0.83333   0.71598   0.75000   0.00000  Uiso   1.00
O965   O     0.77321   0.87291   0.74999   0.00000  Uiso   1.00
O966   O     0.89345   0.79375   0.75000   0.00000  Uiso   1.00
O967   O     0.89345   0.87291   0.75000   0.00000  Uiso   1.00
O968   O     0.77321   0.79375   0.74999   0.00000  Uiso   1.00
O969   O     0.83333   0.87293   0.68573   0.00000  Uiso   1.00
O970   O     0.83334   0.79374   0.81427   0.00000  Uiso   1.00
O971   O     0.83334   0.87293   0.81427   0.00000  Uiso   1.00
O972   O     0.83333   0.79374   0.68573   0.00000  Uiso   1.00
loop_
_geom_bond_atom_site_label_1
_geom_bond_atom_site_label_2
_geom_bond_distance
_geom_bond_site_symmetry_2
_ccdc_geom_bond_type
C1     O50     1.287   .     A
C1     C19     1.443   .     S
C1     O47     1.287   .     A
C2     C18     1.405   .     A
C2     Cl28    1.768   .     S
C2     C58     1.394   .     S
C3     Cl29    1.771   .     S
C3     C18     1.404   .     A
C3     C80     1.394   .     S
C4     Cl30    1.771   .     S
C4     C19     1.404   .     A
C4     C110    1.394   1_455 S
C5     C9      1.402   .     A
C5     Cl27    1.773   .     S
C5     C16     1.414   .     A
C6     C10     1.402   .     A
C6     Cl31    1.773   .     S
C6     C17     1.414   .     A
C7     C11     1.397   .     A
C7     Cl32    1.774   .     S
C7     C17     1.408   .     A
C8     C16     1.408   .     A
C8     Cl33    1.773   .     S
C8     C13     1.397   .     A
C9     C14     1.413   .     A
C9     Cl34    1.771   .     S
C10    Cl35    1.771   .     S
C10    C15     1.413   .     A
C11    Cl36    1.769   .     S
C11    C15     1.419   .     A
C12    O48     1.287   .     A
C12    O49     1.287   .     A
C12    C18     1.442   .     S
C13    Cl37    1.769   .     S
C13    C14     1.419   .     A
C14    C20     1.475   .     S
C15    C21     1.475   .     S
C16    C503    1.509   1_554 S
C17    C502    1.509   .     S
C19    C26     1.405   .     A
C20    O51     1.301   .     A
C20    O54     1.290   .     A
C21    O53     1.290   .     A
C21    O52     1.301   .     A
C22    H41     1.081   .     S
C22    N46     1.366   .     A
C22    C349    1.416   1_545 S
C23    N45     1.366   .     A
C23    H42     1.081   .     S
C23    C186    1.416   .     S
C24    N46     1.367   .     A
C24    H43     1.082   .     S
C24    C347    1.416   1_545 S
C25    N45     1.367   .     A
C25    H44     1.082   .     S
C25    C184    1.416   .     S
C26    Cl38    1.767   .     S
C26    C111    1.394   1_455 S
Cu39   O51     1.947   .     S
Cu39   N45     2.010   .     S
Cu39   O53     1.961   .     S
Cu39   O47     1.955   .     S
Cu39   O49     1.956   .     S
Cu39   Cu40    2.675   .     S
Cu40   O50     1.956   .     S
Cu40   O54     1.961   .     S
Cu40   N46     2.010   .     S
Cu40   O48     1.955   .     S
Cu40   O52     1.947   .     S
C55    O104    1.287   .     A
C55    C73     1.443   .     S
C55    O101    1.287   .     A
C56    C72     1.405   .     A
C56    Cl82    1.768   .     S
C56    C112    1.394   .     S
C57    Cl83    1.771   .     S
C57    C72     1.404   .     A
C57    C134    1.394   .     S
C58    Cl84    1.771   .     S
C58    C73     1.404   .     A
C59    C63     1.402   .     A
C59    Cl81    1.773   .     S
C59    C70     1.414   .     A
C60    C64     1.402   .     A
C60    Cl85    1.773   .     S
C60    C71     1.414   .     A
C61    C65     1.397   .     A
C61    Cl86    1.774   .     S
C61    C71     1.408   .     A
C62    C70     1.408   .     A
C62    Cl87    1.773   .     S
C62    C67     1.397   .     A
C63    C68     1.413   .     A
C63    Cl88    1.771   .     S
C64    Cl89    1.771   .     S
C64    C69     1.413   .     A
C65    Cl90    1.769   .     S
C65    C69     1.419   .     A
C66    O102    1.287   .     A
C66    O103    1.287   .     A
C66    C72     1.442   .     S
C67    Cl91    1.769   .     S
C67    C68     1.419   .     A
C68    C74     1.475   .     S
C69    C75     1.475   .     S
C70    C557    1.509   1_554 S
C71    C556    1.509   .     S
C73    C80     1.405   .     A
C74    O105    1.301   .     A
C74    O108    1.290   .     A
C75    O107    1.290   .     A
C75    O106    1.301   .     A
C76    H95     1.081   .     S
C76    N100    1.366   .     A
C76    C403    1.416   1_545 S
C77    N99     1.366   .     A
C77    H96     1.081   .     S
C77    C240    1.416   .     S
C78    N100    1.367   .     A
C78    H97     1.082   .     S
C78    C401    1.416   1_545 S
C79    N99     1.367   .     A
C79    H98     1.082   .     S
C79    C238    1.416   .     S
C80    Cl92    1.767   .     S
Cu93   O105    1.947   .     S
Cu93   N99     2.010   .     S
Cu93   O107    1.961   .     S
Cu93   O101    1.955   .     S
Cu93   O103    1.956   .     S
Cu93   Cu94    2.675   .     S
Cu94   O104    1.956   .     S
Cu94   O108    1.961   .     S
Cu94   N100    2.010   .     S
Cu94   O102    1.955   .     S
Cu94   O106    1.947   .     S
C109   O158    1.287   .     A
C109   C127    1.443   .     S
C109   O155    1.287   .     A
C110   C126    1.405   .     A
C110   Cl136   1.768   .     S
C110   C4      1.394   1_655 S
C111   Cl137   1.771   .     S
C111   C126    1.404   .     A
C111   C26     1.394   1_655 S
C112   Cl138   1.771   .     S
C112   C127    1.404   .     A
C113   C117    1.402   .     A
C113   Cl135   1.773   .     S
C113   C124    1.414   .     A
C114   C118    1.402   .     A
C114   Cl139   1.773   .     S
C114   C125    1.414   .     A
C115   C119    1.397   .     A
C115   Cl140   1.774   .     S
C115   C125    1.408   .     A
C116   C124    1.408   .     A
C116   Cl141   1.773   .     S
C116   C121    1.397   .     A
C117   C122    1.413   .     A
C117   Cl142   1.771   .     S
C118   Cl143   1.771   .     S
C118   C123    1.413   .     A
C119   Cl144   1.769   .     S
C119   C123    1.419   .     A
C120   O156    1.287   .     A
C120   O157    1.287   .     A
C120   C126    1.442   .     S
C121   Cl145   1.769   .     S
C121   C122    1.419   .     A
C122   C128    1.475   .     S
C123   C129    1.475   .     S
C124   C611    1.509   1_554 S
C125   C610    1.509   .     S
C127   C134    1.405   .     A
C128   O159    1.301   .     A
C128   O162    1.290   .     A
C129   O161    1.290   .     A
C129   O160    1.301   .     A
C130   H149    1.081   .     S
C130   N154    1.366   .     A
C130   C457    1.416   1_545 S
C131   N153    1.366   .     A
C131   H150    1.081   .     S
C131   C294    1.416   .     S
C132   N154    1.367   .     A
C132   H151    1.082   .     S
C132   C455    1.416   1_545 S
C133   N153    1.367   .     A
C133   H152    1.082   .     S
C133   C292    1.416   .     S
C134   Cl146   1.767   .     S
Cu147  O159    1.947   .     S
Cu147  N153    2.010   .     S
Cu147  O161    1.961   .     S
Cu147  O155    1.955   .     S
Cu147  O157    1.956   .     S
Cu147  Cu148   2.675   .     S
Cu148  O158    1.956   .     S
Cu148  O162    1.961   .     S
Cu148  N154    2.010   .     S
Cu148  O156    1.955   .     S
Cu148  O160    1.947   .     S
C163   O212    1.287   .     A
C163   C181    1.443   .     S
C163   O209    1.287   .     A
C164   C180    1.405   .     A
C164   Cl190   1.768   .     S
C164   C220    1.394   .     S
C165   Cl191   1.771   .     S
C165   C180    1.404   .     A
C165   C242    1.394   .     S
C166   Cl192   1.771   .     S
C166   C181    1.404   .     A
C166   C272    1.394   1_455 S
C167   C171    1.402   .     A
C167   Cl189   1.773   .     S
C167   C178    1.414   .     A
C168   C172    1.402   .     A
C168   Cl193   1.773   .     S
C168   C179    1.414   .     A
C169   C173    1.397   .     A
C169   Cl194   1.774   .     S
C169   C179    1.408   .     A
C170   C178    1.408   .     A
C170   Cl195   1.773   .     S
C170   C175    1.397   .     A
C171   C176    1.413   .     A
C171   Cl196   1.771   .     S
C172   Cl197   1.771   .     S
C172   C177    1.413   .     A
C173   Cl198   1.769   .     S
C173   C177    1.419   .     A
C174   O210    1.287   .     A
C174   O211    1.287   .     A
C174   C180    1.442   .     S
C175   Cl199   1.769   .     S
C175   C176    1.419   .     A
C176   C182    1.475   .     S
C177   C183    1.475   .     S
C178   C665    1.509   1_554 S
C179   C664    1.509   .     S
C181   C188    1.405   .     A
C182   O213    1.301   .     A
C182   O216    1.290   .     A
C183   O215    1.290   .     A
C183   O214    1.301   .     A
C184   H203    1.081   .     S
C184   N208    1.366   .     A
C185   N207    1.366   .     A
C185   H204    1.081   .     S
C185   C348    1.416   .     S
C186   N208    1.367   .     A
C186   H205    1.082   .     S
C187   N207    1.367   .     A
C187   H206    1.082   .     S
C187   C346    1.416   .     S
C188   Cl200   1.767   .     S
C188   C273    1.394   1_455 S
Cu201  O213    1.947   .     S
Cu201  N207    2.010   .     S
Cu201  O215    1.961   .     S
Cu201  O209    1.955   .     S
Cu201  O211    1.956   .     S
Cu201  Cu202   2.675   .     S
Cu202  O212    1.956   .     S
Cu202  O216    1.961   .     S
Cu202  N208    2.010   .     S
Cu202  O210    1.955   .     S
Cu202  O214    1.947   .     S
C217   O266    1.287   .     A
C217   C235    1.443   .     S
C217   O263    1.287   .     A
C218   C234    1.405   .     A
C218   Cl244   1.768   .     S
C218   C274    1.394   .     S
C219   Cl245   1.771   .     S
C219   C234    1.404   .     A
C219   C296    1.394   .     S
C220   Cl246   1.771   .     S
C220   C235    1.404   .     A
C221   C225    1.402   .     A
C221   Cl243   1.773   .     S
C221   C232    1.414   .     A
C222   C226    1.402   .     A
C222   Cl247   1.773   .     S
C222   C233    1.414   .     A
C223   C227    1.397   .     A
C223   Cl248   1.774   .     S
C223   C233    1.408   .     A
C224   C232    1.408   .     A
C224   Cl249   1.773   .     S
C224   C229    1.397   .     A
C225   C230    1.413   .     A
C225   Cl250   1.771   .     S
C226   Cl251   1.771   .     S
C226   C231    1.413   .     A
C227   Cl252   1.769   .     S
C227   C231    1.419   .     A
C228   O264    1.287   .     A
C228   O265    1.287   .     A
C228   C234    1.442   .     S
C229   Cl253   1.769   .     S
C229   C230    1.419   .     A
C230   C236    1.475   .     S
C231   C237    1.475   .     S
C232   C719    1.509   1_554 S
C233   C718    1.509   .     S
C235   C242    1.405   .     A
C236   O267    1.301   .     A
C236   O270    1.290   .     A
C237   O269    1.290   .     A
C237   O268    1.301   .     A
C238   H257    1.081   .     S
C238   N262    1.366   .     A
C239   N261    1.366   .     A
C239   H258    1.081   .     S
C239   C402    1.416   .     S
C240   N262    1.367   .     A
C240   H259    1.082   .     S
C241   N261    1.367   .     A
C241   H260    1.082   .     S
C241   C400    1.416   .     S
C242   Cl254   1.767   .     S
Cu255  O267    1.947   .     S
Cu255  N261    2.010   .     S
Cu255  O269    1.961   .     S
Cu255  O263    1.955   .     S
Cu255  O265    1.956   .     S
Cu255  Cu256   2.675   .     S
Cu256  O266    1.956   .     S
Cu256  O270    1.961   .     S
Cu256  N262    2.010   .     S
Cu256  O264    1.955   .     S
Cu256  O268    1.947   .     S
C271   O320    1.287   .     A
C271   C289    1.443   .     S
C271   O317    1.287   .     A
C272   C288    1.405   .     A
C272   Cl298   1.768   .     S
C272   C166    1.394   1_655 S
C273   Cl299   1.771   .     S
C273   C288    1.404   .     A
C273   C188    1.394   1_655 S
C274   Cl300   1.771   .     S
C274   C289    1.404   .     A
C275   C279    1.402   .     A
C275   Cl297   1.773   .     S
C275   C286    1.414   .     A
C276   C280    1.402   .     A
C276   Cl301   1.773   .     S
C276   C287    1.414   .     A
C277   C281    1.397   .     A
C277   Cl302   1.774   .     S
C277   C287    1.408   .     A
C278   C286    1.408   .     A
C278   Cl303   1.773   .     S
C278   C283    1.397   .     A
C279   C284    1.413   .     A
C279   Cl304   1.771   .     S
C280   Cl305   1.771   .     S
C280   C285    1.413   .     A
C281   Cl306   1.769   .     S
C281   C285    1.419   .     A
C282   O318    1.287   .     A
C282   O319    1.287   .     A
C282   C288    1.442   .     S
C283   Cl307   1.769   .     S
C283   C284    1.419   .     A
C284   C290    1.475   .     S
C285   C291    1.475   .     S
C286   C773    1.509   1_554 S
C287   C772    1.509   .     S
C289   C296    1.405   .     A
C290   O321    1.301   .     A
C290   O324    1.290   .     A
C291   O323    1.290   .     A
C291   O322    1.301   .     A
C292   H311    1.081   .     S
C292   N316    1.366   .     A
C293   N315    1.366   .     A
C293   H312    1.081   .     S
C293   C456    1.416   .     S
C294   N316    1.367   .     A
C294   H313    1.082   .     S
C295   N315    1.367   .     A
C295   H314    1.082   .     S
C295   C454    1.416   .     S
C296   Cl308   1.767   .     S
Cu309  O321    1.947   .     S
Cu309  N315    2.010   .     S
Cu309  O323    1.961   .     S
Cu309  O317    1.955   .     S
Cu309  O319    1.956   .     S
Cu309  Cu310   2.675   .     S
Cu310  O320    1.956   .     S
Cu310  O324    1.961   .     S
Cu310  N316    2.010   .     S
Cu310  O318    1.955   .     S
Cu310  O322    1.947   .     S
C325   O374    1.287   .     A
C325   C343    1.443   .     S
C325   O371    1.287   .     A
C326   C342    1.405   .     A
C326   Cl352   1.768   .     S
C326   C382    1.394   .     S
C327   Cl353   1.771   .     S
C327   C342    1.404   .     A
C327   C404    1.394   .     S
C328   Cl354   1.771   .     S
C328   C343    1.404   .     A
C328   C434    1.394   1_455 S
C329   C333    1.402   .     A
C329   Cl351   1.773   .     S
C329   C340    1.414   .     A
C330   C334    1.402   .     A
C330   Cl355   1.773   .     S
C330   C341    1.414   .     A
C331   C335    1.397   .     A
C331   Cl356   1.774   .     S
C331   C341    1.408   .     A
C332   C340    1.408   .     A
C332   Cl357   1.773   .     S
C332   C337    1.397   .     A
C333   C338    1.413   .     A
C333   Cl358   1.771   .     S
C334   Cl359   1.771   .     S
C334   C339    1.413   .     A
C335   Cl360   1.769   .     S
C335   C339    1.419   .     A
C336   O372    1.287   .     A
C336   O373    1.287   .     A
C336   C342    1.442   .     S
C337   Cl361   1.769   .     S
C337   C338    1.419   .     A
C338   C344    1.475   .     S
C339   C345    1.475   .     S
C340   C827    1.509   1_554 S
C341   C826    1.509   .     S
C343   C350    1.405   .     A
C344   O375    1.301   .     A
C344   O378    1.290   .     A
C345   O377    1.290   .     A
C345   O376    1.301   .     A
C346   H365    1.081   .     S
C346   N370    1.366   .     A
C347   N369    1.366   .     A
C347   H366    1.081   .     S
C347   C24     1.416   1_565 S
C348   N370    1.367   .     A
C348   H367    1.082   .     S
C349   N369    1.367   .     A
C349   H368    1.082   .     S
C349   C22     1.416   1_565 S
C350   Cl362   1.767   .     S
C350   C435    1.394   1_455 S
Cu363  O375    1.947   .     S
Cu363  N369    2.010   .     S
Cu363  O377    1.961   .     S
Cu363  O371    1.955   .     S
Cu363  O373    1.956   .     S
Cu363  Cu364   2.675   .     S
Cu364  O374    1.956   .     S
Cu364  O378    1.961   .     S
Cu364  N370    2.010   .     S
Cu364  O372    1.955   .     S
Cu364  O376    1.947   .     S
C379   O428    1.287   .     A
C379   C397    1.443   .     S
C379   O425    1.287   .     A
C380   C396    1.405   .     A
C380   Cl406   1.768   .     S
C380   C436    1.394   .     S
C381   Cl407   1.771   .     S
C381   C396    1.404   .     A
C381   C458    1.394   .     S
C382   Cl408   1.771   .     S
C382   C397    1.404   .     A
C383   C387    1.402   .     A
C383   Cl405   1.773   .     S
C383   C394    1.414   .     A
C384   C388    1.402   .     A
C384   Cl409   1.773   .     S
C384   C395    1.414   .     A
C385   C389    1.397   .     A
C385   Cl410   1.774   .     S
C385   C395    1.408   .     A
C386   C394    1.408   .     A
C386   Cl411   1.773   .     S
C386   C391    1.397   .     A
C387   C392    1.413   .     A
C387   Cl412   1.771   .     S
C388   Cl413   1.771   .     S
C388   C393    1.413   .     A
C389   Cl414   1.769   .     S
C389   C393    1.419   .     A
C390   O426    1.287   .     A
C390   O427    1.287   .     A
C390   C396    1.442   .     S
C391   Cl415   1.769   .     S
C391   C392    1.419   .     A
C392   C398    1.475   .     S
C393   C399    1.475   .     S
C394   C881    1.509   1_554 S
C395   C880    1.509   .     S
C397   C404    1.405   .     A
C398   O429    1.301   .     A
C398   O432    1.290   .     A
C399   O431    1.290   .     A
C399   O430    1.301   .     A
C400   H419    1.081   .     S
C400   N424    1.366   .     A
C401   N423    1.366   .     A
C401   H420    1.081   .     S
C401   C78     1.416   1_565 S
C402   N424    1.367   .     A
C402   H421    1.082   .     S
C403   N423    1.367   .     A
C403   H422    1.082   .     S
C403   C76     1.416   1_565 S
C404   Cl416   1.767   .     S
Cu417  O429    1.947   .     S
Cu417  N423    2.010   .     S
Cu417  O431    1.961   .     S
Cu417  O425    1.955   .     S
Cu417  O427    1.956   .     S
Cu417  Cu418   2.675   .     S
Cu418  O428    1.956   .     S
Cu418  O432    1.961   .     S
Cu418  N424    2.010   .     S
Cu418  O426    1.955   .     S
Cu418  O430    1.947   .     S
C433   O482    1.287   .     A
C433   C451    1.443   .     S
C433   O479    1.287   .     A
C434   C450    1.405   .     A
C434   Cl460   1.768   .     S
C434   C328    1.394   1_655 S
C435   Cl461   1.771   .     S
C435   C450    1.404   .     A
C435   C350    1.394   1_655 S
C436   Cl462   1.771   .     S
C436   C451    1.404   .     A
C437   C441    1.402   .     A
C437   Cl459   1.773   .     S
C437   C448    1.414   .     A
C438   C442    1.402   .     A
C438   Cl463   1.773   .     S
C438   C449    1.414   .     A
C439   C443    1.397   .     A
C439   Cl464   1.774   .     S
C439   C449    1.408   .     A
C440   C448    1.408   .     A
C440   Cl465   1.773   .     S
C440   C445    1.397   .     A
C441   C446    1.413   .     A
C441   Cl466   1.771   .     S
C442   Cl467   1.771   .     S
C442   C447    1.413   .     A
C443   Cl468   1.769   .     S
C443   C447    1.419   .     A
C444   O480    1.287   .     A
C444   O481    1.287   .     A
C444   C450    1.442   .     S
C445   Cl469   1.769   .     S
C445   C446    1.419   .     A
C446   C452    1.475   .     S
C447   C453    1.475   .     S
C448   C935    1.509   1_554 S
C449   C934    1.509   .     S
C451   C458    1.405   .     A
C452   O483    1.301   .     A
C452   O486    1.290   .     A
C453   O485    1.290   .     A
C453   O484    1.301   .     A
C454   H473    1.081   .     S
C454   N478    1.366   .     A
C455   N477    1.366   .     A
C455   H474    1.081   .     S
C455   C132    1.416   1_565 S
C456   N478    1.367   .     A
C456   H475    1.082   .     S
C457   N477    1.367   .     A
C457   H476    1.082   .     S
C457   C130    1.416   1_565 S
C458   Cl470   1.767   .     S
Cu471  O483    1.947   .     S
Cu471  N477    2.010   .     S
Cu471  O485    1.961   .     S
Cu471  O479    1.955   .     S
Cu471  O481    1.956   .     S
Cu471  Cu472   2.675   .     S
Cu472  O482    1.956   .     S
Cu472  O486    1.961   .     S
Cu472  N478    2.010   .     S
Cu472  O480    1.955   .     S
Cu472  O484    1.947   .     S
C487   O536    1.287   .     A
C487   C505    1.443   .     S
C487   O533    1.287   .     A
C488   C504    1.405   .     A
C488   Cl514   1.768   .     S
C488   C544    1.394   .     S
C489   Cl515   1.771   .     S
C489   C504    1.404   .     A
C489   C566    1.394   .     S
C490   Cl516   1.771   .     S
C490   C505    1.404   .     A
C490   C596    1.394   1_455 S
C491   C495    1.402   .     A
C491   Cl513   1.773   .     S
C491   C502    1.414   .     A
C492   C496    1.402   .     A
C492   Cl517   1.773   .     S
C492   C503    1.414   .     A
C493   C497    1.397   .     A
C493   Cl518   1.774   .     S
C493   C503    1.408   .     A
C494   C502    1.408   .     A
C494   Cl519   1.773   .     S
C494   C499    1.397   .     A
C495   C500    1.413   .     A
C495   Cl520   1.771   .     S
C496   Cl521   1.771   .     S
C496   C501    1.413   .     A
C497   Cl522   1.769   .     S
C497   C501    1.419   .     A
C498   O534    1.287   .     A
C498   O535    1.287   .     A
C498   C504    1.442   .     S
C499   Cl523   1.769   .     S
C499   C500    1.419   .     A
C500   C506    1.475   .     S
C501   C507    1.475   .     S
C503   C16     1.509   1_556 S
C505   C512    1.405   .     A
C506   O537    1.301   .     A
C506   O540    1.290   .     A
C507   O539    1.290   .     A
C507   O538    1.301   .     A
C508   H527    1.081   .     S
C508   N532    1.366   .     A
C508   C835    1.416   1_545 S
C509   N531    1.366   .     A
C509   H528    1.081   .     S
C509   C672    1.416   .     S
C510   N532    1.367   .     A
C510   H529    1.082   .     S
C510   C833    1.416   1_545 S
C511   N531    1.367   .     A
C511   H530    1.082   .     S
C511   C670    1.416   .     S
C512   Cl524   1.767   .     S
C512   C597    1.394   1_455 S
Cu525  O537    1.947   .     S
Cu525  N531    2.010   .     S
Cu525  O539    1.961   .     S
Cu525  O533    1.955   .     S
Cu525  O535    1.956   .     S
Cu525  Cu526   2.675   .     S
Cu526  O536    1.956   .     S
Cu526  O540    1.961   .     S
Cu526  N532    2.010   .     S
Cu526  O534    1.955   .     S
Cu526  O538    1.947   .     S
C541   O590    1.287   .     A
C541   C559    1.443   .     S
C541   O587    1.287   .     A
C542   C558    1.405   .     A
C542   Cl568   1.768   .     S
C542   C598    1.394   .     S
C543   Cl569   1.771   .     S
C543   C558    1.404   .     A
C543   C620    1.394   .     S
C544   Cl570   1.771   .     S
C544   C559    1.404   .     A
C545   C549    1.402   .     A
C545   Cl567   1.773   .     S
C545   C556    1.414   .     A
C546   C550    1.402   .     A
C546   Cl571   1.773   .     S
C546   C557    1.414   .     A
C547   C551    1.397   .     A
C547   Cl572   1.774   .     S
C547   C557    1.408   .     A
C548   C556    1.408   .     A
C548   Cl573   1.773   .     S
C548   C553    1.397   .     A
C549   C554    1.413   .     A
C549   Cl574   1.771   .     S
C550   Cl575   1.771   .     S
C550   C555    1.413   .     A
C551   Cl576   1.769   .     S
C551   C555    1.419   .     A
C552   O588    1.287   .     A
C552   O589    1.287   .     A
C552   C558    1.442   .     S
C553   Cl577   1.769   .     S
C553   C554    1.419   .     A
C554   C560    1.475   .     S
C555   C561    1.475   .     S
C557   C70     1.509   1_556 S
C559   C566    1.405   .     A
C560   O591    1.301   .     A
C560   O594    1.290   .     A
C561   O593    1.290   .     A
C561   O592    1.301   .     A
C562   H581    1.081   .     S
C562   N586    1.366   .     A
C562   C889    1.416   1_545 S
C563   N585    1.366   .     A
C563   H582    1.081   .     S
C563   C726    1.416   .     S
C564   N586    1.367   .     A
C564   H583    1.082   .     S
C564   C887    1.416   1_545 S
C565   N585    1.367   .     A
C565   H584    1.082   .     S
C565   C724    1.416   .     S
C566   Cl578   1.767   .     S
Cu579  O591    1.947   .     S
Cu579  N585    2.010   .     S
Cu579  O593    1.961   .     S
Cu579  O587    1.955   .     S
Cu579  O589    1.956   .     S
Cu579  Cu580   2.675   .     S
Cu580  O590    1.956   .     S
Cu580  O594    1.961   .     S
Cu580  N586    2.010   .     S
Cu580  O588    1.955   .     S
Cu580  O592    1.947   .     S
C595   O644    1.287   .     A
C595   C613    1.443   .     S
C595   O641    1.287   .     A
C596   C612    1.405   .     A
C596   Cl622   1.768   .     S
C596   C490    1.394   1_655 S
C597   Cl623   1.771   .     S
C597   C612    1.404   .     A
C597   C512    1.394   1_655 S
C598   Cl624   1.771   .     S
C598   C613    1.404   .     A
C599   C603    1.402   .     A
C599   Cl621   1.773   .     S
C599   C610    1.414   .     A
C600   C604    1.402   .     A
C600   Cl625   1.773   .     S
C600   C611    1.414   .     A
C601   C605    1.397   .     A
C601   Cl626   1.774   .     S
C601   C611    1.408   .     A
C602   C610    1.408   .     A
C602   Cl627   1.773   .     S
C602   C607    1.397   .     A
C603   C608    1.413   .     A
C603   Cl628   1.771   .     S
C604   Cl629   1.771   .     S
C604   C609    1.413   .     A
C605   Cl630   1.769   .     S
C605   C609    1.419   .     A
C606   O642    1.287   .     A
C606   O643    1.287   .     A
C606   C612    1.442   .     S
C607   Cl631   1.769   .     S
C607   C608    1.419   .     A
C608   C614    1.475   .     S
C609   C615    1.475   .     S
C611   C124    1.509   1_556 S
C613   C620    1.405   .     A
C614   O645    1.301   .     A
C614   O648    1.290   .     A
C615   O647    1.290   .     A
C615   O646    1.301   .     A
C616   H635    1.081   .     S
C616   N640    1.366   .     A
C616   C943    1.416   1_545 S
C617   N639    1.366   .     A
C617   H636    1.081   .     S
C617   C780    1.416   .     S
C618   N640    1.367   .     A
C618   H637    1.082   .     S
C618   C941    1.416   1_545 S
C619   N639    1.367   .     A
C619   H638    1.082   .     S
C619   C778    1.416   .     S
C620   Cl632   1.767   .     S
Cu633  O645    1.947   .     S
Cu633  N639    2.010   .     S
Cu633  O647    1.961   .     S
Cu633  O641    1.955   .     S
Cu633  O643    1.956   .     S
Cu633  Cu634   2.675   .     S
Cu634  O644    1.956   .     S
Cu634  O648    1.961   .     S
Cu634  N640    2.010   .     S
Cu634  O642    1.955   .     S
Cu634  O646    1.947   .     S
C649   O698    1.287   .     A
C649   C667    1.443   .     S
C649   O695    1.287   .     A
C650   C666    1.405   .     A
C650   Cl676   1.768   .     S
C650   C706    1.394   .     S
C651   Cl677   1.771   .     S
C651   C666    1.404   .     A
C651   C728    1.394   .     S
C652   Cl678   1.771   .     S
C652   C667    1.404   .     A
C652   C758    1.394   1_455 S
C653   C657    1.402   .     A
C653   Cl675   1.773   .     S
C653   C664    1.414   .     A
C654   C658    1.402   .     A
C654   Cl679   1.773   .     S
C654   C665    1.414   .     A
C655   C659    1.397   .     A
C655   Cl680   1.774   .     S
C655   C665    1.408   .     A
C656   C664    1.408   .     A
C656   Cl681   1.773   .     S
C656   C661    1.397   .     A
C657   C662    1.413   .     A
C657   Cl682   1.771   .     S
C658   Cl683   1.771   .     S
C658   C663    1.413   .     A
C659   Cl684   1.769   .     S
C659   C663    1.419   .     A
C660   O696    1.287   .     A
C660   O697    1.287   .     A
C660   C666    1.442   .     S
C661   Cl685   1.769   .     S
C661   C662    1.419   .     A
C662   C668    1.475   .     S
C663   C669    1.475   .     S
C665   C178    1.509   1_556 S
C667   C674    1.405   .     A
C668   O699    1.301   .     A
C668   O702    1.290   .     A
C669   O701    1.290   .     A
C669   O700    1.301   .     A
C670   H689    1.081   .     S
C670   N694    1.366   .     A
C671   N693    1.366   .     A
C671   H690    1.081   .     S
C671   C834    1.416   .     S
C672   N694    1.367   .     A
C672   H691    1.082   .     S
C673   N693    1.367   .     A
C673   H692    1.082   .     S
C673   C832    1.416   .     S
C674   Cl686   1.767   .     S
C674   C759    1.394   1_455 S
Cu687  O699    1.947   .     S
Cu687  N693    2.010   .     S
Cu687  O701    1.961   .     S
Cu687  O695    1.955   .     S
Cu687  O697    1.956   .     S
Cu687  Cu688   2.675   .     S
Cu688  O698    1.956   .     S
Cu688  O702    1.961   .     S
Cu688  N694    2.010   .     S
Cu688  O696    1.955   .     S
Cu688  O700    1.947   .     S
C703   O752    1.287   .     A
C703   C721    1.443   .     S
C703   O749    1.287   .     A
C704   C720    1.405   .     A
C704   Cl730   1.768   .     S
C704   C760    1.394   .     S
C705   Cl731   1.771   .     S
C705   C720    1.404   .     A
C705   C782    1.394   .     S
C706   Cl732   1.771   .     S
C706   C721    1.404   .     A
C707   C711    1.402   .     A
C707   Cl729   1.773   .     S
C707   C718    1.414   .     A
C708   C712    1.402   .     A
C708   Cl733   1.773   .     S
C708   C719    1.414   .     A
C709   C713    1.397   .     A
C709   Cl734   1.774   .     S
C709   C719    1.408   .     A
C710   C718    1.408   .     A
C710   Cl735   1.773   .     S
C710   C715    1.397   .     A
C711   C716    1.413   .     A
C711   Cl736   1.771   .     S
C712   Cl737   1.771   .     S
C712   C717    1.413   .     A
C713   Cl738   1.769   .     S
C713   C717    1.419   .     A
C714   O750    1.287   .     A
C714   O751    1.287   .     A
C714   C720    1.442   .     S
C715   Cl739   1.769   .     S
C715   C716    1.419   .     A
C716   C722    1.475   .     S
C717   C723    1.475   .     S
C719   C232    1.509   1_556 S
C721   C728    1.405   .     A
C722   O753    1.301   .     A
C722   O756    1.290   .     A
C723   O755    1.290   .     A
C723   O754    1.301   .     A
C724   H743    1.081   .     S
C724   N748    1.366   .     A
C725   N747    1.366   .     A
C725   H744    1.081   .     S
C725   C888    1.416   .     S
C726   N748    1.367   .     A
C726   H745    1.082   .     S
C727   N747    1.367   .     A
C727   H746    1.082   .     S
C727   C886    1.416   .     S
C728   Cl740   1.767   .     S
Cu741  O753    1.947   .     S
Cu741  N747    2.010   .     S
Cu741  O755    1.961   .     S
Cu741  O749    1.955   .     S
Cu741  O751    1.956   .     S
Cu741  Cu742   2.675   .     S
Cu742  O752    1.956   .     S
Cu742  O756    1.961   .     S
Cu742  N748    2.010   .     S
Cu742  O750    1.955   .     S
Cu742  O754    1.947   .     S
C757   O806    1.287   .     A
C757   C775    1.443   .     S
C757   O803    1.287   .     A
C758   C774    1.405   .     A
C758   Cl784   1.768   .     S
C758   C652    1.394   1_655 S
C759   Cl785   1.771   .     S
C759   C774    1.404   .     A
C759   C674    1.394   1_655 S
C760   Cl786   1.771   .     S
C760   C775    1.404   .     A
C761   C765    1.402   .     A
C761   Cl783   1.773   .     S
C761   C772    1.414   .     A
C762   C766    1.402   .     A
C762   Cl787   1.773   .     S
C762   C773    1.414   .     A
C763   C767    1.397   .     A
C763   Cl788   1.774   .     S
C763   C773    1.408   .     A
C764   C772    1.408   .     A
C764   Cl789   1.773   .     S
C764   C769    1.397   .     A
C765   C770    1.413   .     A
C765   Cl790   1.771   .     S
C766   Cl791   1.771   .     S
C766   C771    1.413   .     A
C767   Cl792   1.769   .     S
C767   C771    1.419   .     A
C768   O804    1.287   .     A
C768   O805    1.287   .     A
C768   C774    1.442   .     S
C769   Cl793   1.769   .     S
C769   C770    1.419   .     A
C770   C776    1.475   .     S
C771   C777    1.475   .     S
C773   C286    1.509   1_556 S
C775   C782    1.405   .     A
C776   O807    1.301   .     A
C776   O810    1.290   .     A
C777   O809    1.290   .     A
C777   O808    1.301   .     A
C778   H797    1.081   .     S
C778   N802    1.366   .     A
C779   N801    1.366   .     A
C779   H798    1.081   .     S
C779   C942    1.416   .     S
C780   N802    1.367   .     A
C780   H799    1.082   .     S
C781   N801    1.367   .     A
C781   H800    1.082   .     S
C781   C940    1.416   .     S
C782   Cl794   1.767   .     S
Cu795  O807    1.947   .     S
Cu795  N801    2.010   .     S
Cu795  O809    1.961   .     S
Cu795  O803    1.955   .     S
Cu795  O805    1.956   .     S
Cu795  Cu796   2.675   .     S
Cu796  O806    1.956   .     S
Cu796  O810    1.961   .     S
Cu796  N802    2.010   .     S
Cu796  O804    1.955   .     S
Cu796  O808    1.947   .     S
C811   O860    1.287   .     A
C811   C829    1.443   .     S
C811   O857    1.287   .     A
C812   C828    1.405   .     A
C812   Cl838   1.768   .     S
C812   C868    1.394   .     S
C813   Cl839   1.771   .     S
C813   C828    1.404   .     A
C813   C890    1.394   .     S
C814   Cl840   1.771   .     S
C814   C829    1.404   .     A
C814   C920    1.394   1_455 S
C815   C819    1.402   .     A
C815   Cl837   1.773   .     S
C815   C826    1.414   .     A
C816   C820    1.402   .     A
C816   Cl841   1.773   .     S
C816   C827    1.414   .     A
C817   C821    1.397   .     A
C817   Cl842   1.774   .     S
C817   C827    1.408   .     A
C818   C826    1.408   .     A
C818   Cl843   1.773   .     S
C818   C823    1.397   .     A
C819   C824    1.413   .     A
C819   Cl844   1.771   .     S
C820   Cl845   1.771   .     S
C820   C825    1.413   .     A
C821   Cl846   1.769   .     S
C821   C825    1.419   .     A
C822   O858    1.287   .     A
C822   O859    1.287   .     A
C822   C828    1.442   .     S
C823   Cl847   1.769   .     S
C823   C824    1.419   .     A
C824   C830    1.475   .     S
C825   C831    1.475   .     S
C827   C340    1.509   1_556 S
C829   C836    1.405   .     A
C830   O861    1.301   .     A
C830   O864    1.290   .     A
C831   O863    1.290   .     A
C831   O862    1.301   .     A
C832   H851    1.081   .     S
C832   N856    1.366   .     A
C833   N855    1.366   .     A
C833   H852    1.081   .     S
C833   C510    1.416   1_565 S
C834   N856    1.367   .     A
C834   H853    1.082   .     S
C835   N855    1.367   .     A
C835   H854    1.082   .     S
C835   C508    1.416   1_565 S
C836   Cl848   1.767   .     S
C836   C921    1.394   1_455 S
Cu849  O861    1.947   .     S
Cu849  N855    2.010   .     S
Cu849  O863    1.961   .     S
Cu849  O857    1.955   .     S
Cu849  O859    1.956   .     S
Cu849  Cu850   2.675   .     S
Cu850  O860    1.956   .     S
Cu850  O864    1.961   .     S
Cu850  N856    2.010   .     S
Cu850  O858    1.955   .     S
Cu850  O862    1.947   .     S
C865   O914    1.287   .     A
C865   C883    1.443   .     S
C865   O911    1.287   .     A
C866   C882    1.405   .     A
C866   Cl892   1.768   .     S
C866   C922    1.394   .     S
C867   Cl893   1.771   .     S
C867   C882    1.404   .     A
C867   C944    1.394   .     S
C868   Cl894   1.771   .     S
C868   C883    1.404   .     A
C869   C873    1.402   .     A
C869   Cl891   1.773   .     S
C869   C880    1.414   .     A
C870   C874    1.402   .     A
C870   Cl895   1.773   .     S
C870   C881    1.414   .     A
C871   C875    1.397   .     A
C871   Cl896   1.774   .     S
C871   C881    1.408   .     A
C872   C880    1.408   .     A
C872   Cl897   1.773   .     S
C872   C877    1.397   .     A
C873   C878    1.413   .     A
C873   Cl898   1.771   .     S
C874   Cl899   1.771   .     S
C874   C879    1.413   .     A
C875   Cl900   1.769   .     S
C875   C879    1.419   .     A
C876   O912    1.287   .     A
C876   O913    1.287   .     A
C876   C882    1.442   .     S
C877   Cl901   1.769   .     S
C877   C878    1.419   .     A
C878   C884    1.475   .     S
C879   C885    1.475   .     S
C881   C394    1.509   1_556 S
C883   C890    1.405   .     A
C884   O915    1.301   .     A
C884   O918    1.290   .     A
C885   O917    1.290   .     A
C885   O916    1.301   .     A
C886   H905    1.081   .     S
C886   N910    1.366   .     A
C887   N909    1.366   .     A
C887   H906    1.081   .     S
C887   C564    1.416   1_565 S
C888   N910    1.367   .     A
C888   H907    1.082   .     S
C889   N909    1.367   .     A
C889   H908    1.082   .     S
C889   C562    1.416   1_565 S
C890   Cl902   1.767   .     S
Cu903  O915    1.947   .     S
Cu903  N909    2.010   .     S
Cu903  O917    1.961   .     S
Cu903  O911    1.955   .     S
Cu903  O913    1.956   .     S
Cu903  Cu904   2.675   .     S
Cu904  O914    1.956   .     S
Cu904  O918    1.961   .     S
Cu904  N910    2.010   .     S
Cu904  O912    1.955   .     S
Cu904  O916    1.947   .     S
C919   O968    1.287   .     A
C919   C937    1.443   .     S
C919   O965    1.287   .     A
C920   C936    1.405   .     A
C920   Cl946   1.768   .     S
C920   C814    1.394   1_655 S
C921   Cl947   1.771   .     S
C921   C936    1.404   .     A
C921   C836    1.394   1_655 S
C922   Cl948   1.771   .     S
C922   C937    1.404   .     A
C923   C927    1.402   .     A
C923   Cl945   1.773   .     S
C923   C934    1.414   .     A
C924   C928    1.402   .     A
C924   Cl949   1.773   .     S
C924   C935    1.414   .     A
C925   C929    1.397   .     A
C925   Cl950   1.774   .     S
C925   C935    1.408   .     A
C926   C934    1.408   .     A
C926   Cl951   1.773   .     S
C926   C931    1.397   .     A
C927   C932    1.413   .     A
C927   Cl952   1.771   .     S
C928   Cl953   1.771   .     S
C928   C933    1.413   .     A
C929   Cl954   1.769   .     S
C929   C933    1.419   .     A
C930   O966    1.287   .     A
C930   O967    1.287   .     A
C930   C936    1.442   .     S
C931   Cl955   1.769   .     S
C931   C932    1.419   .     A
C932   C938    1.475   .     S
C933   C939    1.475   .     S
C935   C448    1.509   1_556 S
C937   C944    1.405   .     A
C938   O969    1.301   .     A
C938   O972    1.290   .     A
C939   O971    1.290   .     A
C939   O970    1.301   .     A
C940   H959    1.081   .     S
C940   N964    1.366   .     A
C941   N963    1.366   .     A
C941   H960    1.081   .     S
C941   C618    1.416   1_565 S
C942   N964    1.367   .     A
C942   H961    1.082   .     S
C943   N963    1.367   .     A
C943   H962    1.082   .     S
C943   C616    1.416   1_565 S
C944   Cl956   1.767   .     S
Cu957  O969    1.947   .     S
Cu957  N963    2.010   .     S
Cu957  O971    1.961   .     S
Cu957  O965    1.955   .     S
Cu957  O967    1.956   .     S
Cu957  Cu958   2.675   .     S
Cu958  O968    1.956   .     S
Cu958  O972    1.961   .     S
Cu958  N964    2.010   .     S
Cu958  O966    1.955   .     S
Cu958  O970    1.947   .     S
